REMARK  7 active torsions:
REMARK  status: ('A' for Active; 'I' for Inactive)
REMARK    1  A    between atoms: C2_2  and  C3_3 
REMARK    2  A    between atoms: N2_22  and  C18_23 
REMARK    3  A    between atoms: C18_23  and  C19_24 
REMARK    4  A    between atoms: C19_24  and  C20_25 
REMARK    5  A    between atoms: C20_25  and  C21_26 
REMARK       I    between atoms: C21_26  and  N3_28 
REMARK    6  A    between atoms: C23_33  and  N6_34 
REMARK    7  A    between atoms: C24_38  and  C25_39 
ROOT
HETATM    1  C3  UNL     1      -4.556  -0.713  -1.303  1.00  0.00     0.032 A 
HETATM    2  C4  UNL     1      -3.583  -1.589  -1.801  1.00  0.00     0.030 A 
HETATM    3  C5  UNL     1      -2.242  -1.221  -1.778  1.00  0.00    -0.007 A 
HETATM    4  C6  UNL     1      -1.829  -0.021  -1.269  1.00  0.00     0.056 A 
HETATM    5  N1  UNL     1      -2.798   0.811  -0.796  1.00  0.00    -0.322 N 
ATOM      6  H1  UNL     1      -2.524   1.717  -0.416  1.00  0.00     0.169 HD
HETATM    7  C7  UNL     1      -4.098   0.484  -0.811  1.00  0.00     0.256 A 
HETATM    8  O1  UNL     1      -4.936   1.318  -0.352  1.00  0.00    -0.267 OA
HETATM    9  C8  UNL     1      -0.523   0.249  -0.986  1.00  0.00     0.033 C 
HETATM   10  C9  UNL     1      -0.291   1.573  -0.490  1.00  0.00     0.068 A 
HETATM   11  C10 UNL     1      -0.299   2.592  -1.489  1.00  0.00     0.072 A 
HETATM   12 CL1  UNL     1      -0.547   2.201  -3.181  1.00  0.00    -0.081 Cl
HETATM   13  C11 UNL     1      -0.121   3.920  -1.192  1.00  0.00    -0.001 A 
HETATM   14  C12 UNL     1      -0.137   4.893  -2.187  1.00  0.00     0.014 A 
HETATM   15  C13 UNL     1       0.042   6.211  -1.851  1.00  0.00     0.001 A 
HETATM   16  C14 UNL     1       0.238   6.591  -0.552  1.00  0.00     0.001 A 
HETATM   17  C15 UNL     1       0.260   5.658   0.459  1.00  0.00     0.014 A 
HETATM   18  C16 UNL     1       0.076   4.317   0.100  1.00  0.00    -0.009 A 
HETATM   19  C17 UNL     1       0.083   3.330   1.052  1.00  0.00     0.103 A 
HETATM   20  N2  UNL     1      -0.097   2.006   0.739  1.00  0.00    -0.354 N 
HETATM   21  C23 UNL     1       0.357  -0.901  -1.156  1.00  0.00     0.255 C 
HETATM   22  C24 UNL     1       0.021  -1.652  -2.406  1.00  0.00    -0.012 C 
HETATM   23  C31 UNL     1      -1.376  -2.043  -2.408  1.00  0.00     0.024 C 
ENDROOT
BRANCH  21  24
HETATM   24  N6  UNL     1       0.097  -1.827  -0.028  1.00  0.00    -0.067 N 
ATOM     25  H63 UNL     1       0.195  -1.381   0.884  1.00  0.00     0.275 HD
ATOM     26  H62 UNL     1      -0.886  -2.086   0.056  1.00  0.00     0.275 HD
ATOM     27  H61 UNL     1       0.713  -2.632  -0.147  1.00  0.00     0.275 HD
ENDBRANCH  21  24
BRANCH  20  28
HETATM   28  C18 UNL     1      -0.029   1.114   1.861  1.00  0.00     0.129 C 
BRANCH  28  29
HETATM   29  C19 UNL     1       1.406   0.711   2.164  1.00  0.00     0.029 C 
BRANCH  29  30
HETATM   30  C20 UNL     1       1.502  -0.235   3.341  1.00  0.00     0.105 C 
BRANCH  30  31
HETATM   31  C21 UNL     1       2.906  -0.619   3.624  1.00  0.00     0.223 C 
HETATM   32  O2  UNL     1       3.855  -0.075   3.014  1.00  0.00    -0.273 OA
HETATM   33  N3  UNL     1       3.159  -1.611   4.597  1.00  0.00    -0.304 N 
HETATM   34  C22 UNL     1       3.307  -1.298   5.853  1.00  0.00     0.203 C 
ATOM     35  H3  UNL     1       3.227  -2.588   4.312  1.00  0.00     0.171 HD
HETATM   36  N4  UNL     1       3.210   0.057   6.217  1.00  0.00    -0.066 NA
HETATM   37  N5  UNL     1       3.564  -2.327   6.819  1.00  0.00    -0.066 NA
ENDBRANCH  30  31
ENDBRANCH  29  30
ENDBRANCH  28  29
ENDBRANCH  20  28
BRANCH  22  38
HETATM   38  C25 UNL     1       1.002  -2.628  -2.881  1.00  0.00    -0.028 A 
HETATM   39  C26 UNL     1       0.917  -3.974  -2.589  1.00  0.00     0.012 A 
HETATM   40  C27 UNL     1       1.882  -4.862  -3.051  1.00  0.00     0.001 A 
HETATM   41  C28 UNL     1       2.946  -4.456  -3.805  1.00  0.00     0.000 A 
HETATM   42  C29 UNL     1       3.054  -3.107  -4.114  1.00  0.00     0.001 A 
HETATM   43  C30 UNL     1       2.091  -2.223  -3.652  1.00  0.00     0.012 A 
ENDBRANCH  22  38
BRANCH   1  44
HETATM   44  C2  UNL     1      -5.963  -1.040  -1.310  1.00  0.00     0.007 C 
HETATM   45  C1  UNL     1      -6.373  -2.278  -1.361  1.00  0.00     0.012 C 
ENDBRANCH   1  44
TORSDOF 7
