REMARK  9 active torsions:
REMARK  status: ('A' for Active; 'I' for Inactive)
REMARK    1  A    between atoms: C2_2  and  N5_38 
REMARK       I    between atoms: N1_3  and  C3_5 
REMARK       I    between atoms: C3_5  and  N2_6 
REMARK    2  A    between atoms: N2_6  and  C4_8 
REMARK    3  A    between atoms: N3_14  and  C10_16 
REMARK    4  A    between atoms: C10_16  and  C11_17 
REMARK       I    between atoms: C11_17  and  N4_19 
REMARK    5  A    between atoms: N4_19  and  C12_20 
REMARK    6  A    between atoms: C12_20  and  C13_21 
REMARK    7  A    between atoms: C12_20  and  C19_28 
REMARK    8  A    between atoms: C19_28  and  O2_29 
REMARK    9  A    between atoms: C19_28  and  C20_31 
ROOT
HETATM    1  C10 UNL     1      -0.621  -0.749  -1.802  1.00  0.00     0.257 C 
ENDROOT
BRANCH   1   2
HETATM    2  N3  UNL     1      -0.952   0.450  -1.064  1.00  0.00    -0.216 N 
HETATM    3  C3  UNL     1      -2.042   0.610  -0.410  1.00  0.00     0.676 C 
HETATM    4  N1  UNL     1      -3.020  -0.413  -0.371  1.00  0.00    -0.181 N 
HETATM    5  N2  UNL     1      -2.329   1.799   0.307  1.00  0.00    -0.222 N 
HETATM    6  C2  UNL     1      -3.091  -1.372   0.460  1.00  0.00     0.091 C 
ATOM      7  H1  UNL     1      -3.746  -0.376  -1.087  1.00  0.00     0.185 HD
HETATM    8  C1  UNL     1      -2.111  -1.569   1.561  1.00  0.00     0.089 C 
ATOM      9  H2  UNL     1      -1.916   1.903   1.234  1.00  0.00     0.178 HD
ATOM     10  H3  UNL     1      -0.277   1.214  -1.064  1.00  0.00     0.178 HD
BRANCH   6  11
HETATM   11  N5  UNL     1      -4.162  -2.294   0.310  1.00  0.00    -0.371 N 
HETATM   12  C27 UNL     1      -5.413  -2.224   1.003  1.00  0.00     0.124 C 
HETATM   13  C28 UNL     1      -5.847  -3.653   1.179  1.00  0.00     0.021 C 
HETATM   14  C29 UNL     1      -5.180  -4.376   0.047  1.00  0.00     0.021 C 
HETATM   15  C30 UNL     1      -4.159  -3.446  -0.561  1.00  0.00     0.124 C 
ENDBRANCH   6  11
BRANCH   5  16
HETATM   16  C4  UNL     1      -3.156   2.865  -0.173  1.00  0.00     0.099 C 
HETATM   17  C5  UNL     1      -2.639   3.534  -1.413  1.00  0.00     0.026 C 
HETATM   18  C6  UNL     1      -3.666   3.646  -2.516  1.00  0.00     0.002 C 
HETATM   19  C7  UNL     1      -4.958   4.266  -2.007  1.00  0.00     0.000 C 
HETATM   20  C8  UNL     1      -5.417   3.575  -0.763  1.00  0.00     0.002 C 
HETATM   21  C9  UNL     1      -4.574   2.359  -0.472  1.00  0.00     0.026 C 
ENDBRANCH   5  16
ENDBRANCH   1   2
BRANCH   1  22
HETATM   22  C11 UNL     1       0.809  -1.184  -1.470  1.00  0.00     0.310 C 
HETATM   23  O1  UNL     1       1.151  -2.216  -2.093  1.00  0.00    -0.255 OA
HETATM   24  N4  UNL     1       1.526  -0.431  -0.569  1.00  0.00    -0.370 NA
BRANCH  24  25
HETATM   25  C12 UNL     1       2.235   0.315   0.322  1.00  0.00     0.128 C 
BRANCH  25  26
HETATM   26  C13 UNL     1       1.902   0.007   1.781  1.00  0.00     0.003 A 
HETATM   27  C14 UNL     1       1.776   1.037   2.674  1.00  0.00     0.017 A 
HETATM   28  C15 UNL     1       1.474   0.796   3.996  1.00  0.00     0.043 A 
HETATM   29  C16 UNL     1       1.291  -0.479   4.454  1.00  0.00     0.116 A 
HETATM   30  F1  UNL     1       0.991  -0.694   5.762  1.00  0.00    -0.206 F 
HETATM   31  C17 UNL     1       1.423  -1.506   3.534  1.00  0.00     0.043 A 
HETATM   32  C18 UNL     1       1.723  -1.281   2.215  1.00  0.00     0.017 A 
ENDBRANCH  25  26
BRANCH  25  33
HETATM   33  C19 UNL     1       3.652   0.672   0.168  1.00  0.00     0.191 C 
BRANCH  33  34
HETATM   34  O2  UNL     1       4.009   1.404   1.324  1.00  0.00    -0.388 OA
ATOM     35  H2  UNL     1       4.925   1.635   1.224  1.00  0.00     0.210 HD
ENDBRANCH  33  34
BRANCH  33  36
HETATM   36  C20 UNL     1       4.724  -0.226  -0.215  1.00  0.00    -0.011 C 
HETATM   37  C21 UNL     1       4.932  -1.438   0.653  1.00  0.00     0.018 C 
HETATM   38  C22 UNL     1       4.808  -0.567  -1.652  1.00  0.00     0.012 C 
HETATM   39  C23 UNL     1       6.100  -1.279  -2.032  1.00  0.00     0.001 C 
HETATM   40  C24 UNL     1       7.188  -0.230  -2.016  1.00  0.00     0.000 C 
HETATM   41  C25 UNL     1       6.765   0.946  -1.187  1.00  0.00     0.001 C 
HETATM   42  C26 UNL     1       6.033   0.595   0.056  1.00  0.00     0.012 C 
ENDBRANCH  33  36
ENDBRANCH  25  33
ENDBRANCH  24  25
ENDBRANCH   1  22
TORSDOF 9
