REMARK  3 active torsions:
REMARK  status: ('A' for Active; 'I' for Inactive)
REMARK    1  A    between atoms: C6_6  and  N1_7 
REMARK    2  A    between atoms: N1_7  and  O1_8 
REMARK    3  A    between atoms: N1_7  and  C7_10 
ROOT
HETATM    1  C1  UNL     1      -1.650   2.122  -0.364  1.00  0.00     0.012 C 
HETATM    2  C2  UNL     1      -1.496   0.783   0.350  1.00  0.00     0.006 C 
HETATM    3  C3  UNL     1      -2.757  -0.077   0.167  1.00  0.00     0.006 C 
HETATM    4  C4  UNL     1      -2.221  -1.501   0.283  1.00  0.00     0.002 C 
HETATM    5  C5  UNL     1      -0.715  -1.370   0.375  1.00  0.00     0.028 C 
HETATM    6  C6  UNL     1      -0.528  -0.076  -0.426  1.00  0.00     0.112 C 
ENDROOT
BRANCH   6   7
HETATM    7  N1  UNL     1       0.795   0.326  -0.518  1.00  0.00    -0.288 N 
BRANCH   7   8
HETATM    8  O1  UNL     1       1.280   0.210  -1.751  1.00  0.00    -0.291 OA
ATOM      9  H1  UNL     1       2.187   0.486  -1.814  1.00  0.00     0.244 HD
ENDBRANCH   7   8
BRANCH   7  10
HETATM   10  C7  UNL     1       1.734   0.019   0.490  1.00  0.00     0.101 C 
HETATM   11  C8  UNL     1       2.731   1.146   0.590  1.00  0.00     0.034 C 
HETATM   12  C9  UNL     1       2.586  -1.205   0.016  1.00  0.00     0.034 C 
ENDBRANCH   7  10
ENDBRANCH   6   7
TORSDOF 3
