REMARK  6 active torsions:
REMARK  status: ('A' for Active; 'I' for Inactive)
REMARK    1  A    between atoms: C3_3  and  C4_4 
REMARK    2  A    between atoms: C3_3  and  C17_23 
REMARK    3  A    between atoms: C12_12  and  O1_14 
REMARK    4  A    between atoms: C15_17  and  C16_18 
REMARK    5  A    between atoms: C16_18  and  O2_19 
REMARK    6  A    between atoms: O2_19  and  N1_20 
ROOT
HETATM    1  C4  UNL     1       2.431   0.042   0.656  1.00  0.00     0.021 C 
HETATM    2  C5  UNL     1       1.010  -0.180   0.629  1.00  0.00    -0.071 C 
HETATM    3  C6  UNL     1       0.550  -1.469  -0.023  1.00  0.00     0.044 C 
HETATM    4  C7  UNL     1      -0.869  -1.200  -0.476  1.00  0.00    -0.033 C 
HETATM    5  C8  UNL     1      -0.875  -0.839  -1.910  1.00  0.00     0.016 C 
HETATM    6  C9  UNL     1      -1.806  -2.329  -0.204  1.00  0.00     0.010 C 
HETATM    7  C10 UNL     1      -3.186  -1.828  -0.571  1.00  0.00     0.004 C 
HETATM    8  C11 UNL     1      -3.589  -0.599   0.121  1.00  0.00     0.038 C 
HETATM    9  C12 UNL     1      -2.559   0.494   0.269  1.00  0.00     0.059 C 
HETATM   10  C13 UNL     1      -3.032   1.261   1.521  1.00  0.00     0.046 C 
HETATM   11  C14 UNL     1      -1.236  -0.051   0.474  1.00  0.00     0.038 C 
HETATM   12  C15 UNL     1      -0.021   0.800   0.217  1.00  0.00     0.048 C 
ENDROOT
BRANCH   1  13
HETATM   13  C3  UNL     1       3.289   0.096  -0.488  1.00  0.00     0.036 C 
HETATM   14  C2  UNL     1       4.257  -0.860  -0.619  1.00  0.00    -0.013 C 
HETATM   15  C1  UNL     1       4.418  -1.933   0.403  1.00  0.00     0.037 C 
BRANCH  13  16
HETATM   16  C17 UNL     1       3.300   1.081  -1.525  1.00  0.00     0.209 C 
HETATM   17  O3  UNL     1       4.158   1.007  -2.498  1.00  0.00    -0.644 OA
HETATM   18  O4  UNL     1       2.437   2.155  -1.574  1.00  0.00    -0.644 OA
ENDBRANCH  13  16
ENDBRANCH   1  13
BRANCH  12  19
HETATM   19  C16 UNL     1       0.072   2.025   1.066  1.00  0.00     0.210 C 
BRANCH  19  20
HETATM   20  O2  UNL     1      -0.107   1.782   2.426  1.00  0.00    -0.287 OA
BRANCH  20  21
HETATM   21  N1  UNL     1       0.004   2.974   3.059  1.00  0.00    -0.311 N 
ATOM     22  H12 UNL     1       0.185   3.872   2.611  1.00  0.00     0.184 HD
ATOM     23  H11 UNL     1      -0.127   2.796   4.055  1.00  0.00     0.184 HD
ENDBRANCH  20  21
ENDBRANCH  19  20
ENDBRANCH  12  19
BRANCH   9  24
HETATM   24  O1  UNL     1      -2.670   1.445  -0.752  1.00  0.00    -0.390 OA
ATOM     25  H1  UNL     1      -2.022   2.133  -0.659  1.00  0.00     0.210 HD
ENDBRANCH   9  24
TORSDOF 6
