REMARK  3 active torsions:
REMARK  status: ('A' for Active; 'I' for Inactive)
REMARK    1  A    between atoms: S1_2  and  C2_3 
REMARK    2  A    between atoms: C4_8  and  C5_9 
REMARK       I    between atoms: C5_9  and  N2_11 
REMARK    3  A    between atoms: N2_11  and  C6_13 
ROOT
HETATM    1  C2  UNL     1       5.070  -0.729  -0.254  1.00  0.00     0.111 A 
HETATM    2  N1  UNL     1       4.815  -0.732   1.061  1.00  0.00    -0.328 N 
ATOM      3  H1  UNL     1       5.504  -0.815   1.808  1.00  0.00     0.168 HD
HETATM    4  C3  UNL     1       3.460  -0.604   1.220  1.00  0.00     0.158 A 
HETATM    5  S2  UNL     1       2.183  -0.503   2.347  1.00  0.00    -0.046 SA
HETATM    6  C4  UNL     1       0.887  -0.355   1.250  1.00  0.00     0.092 A 
HETATM    7  C11 UNL     1       1.532  -0.392   0.041  1.00  0.00     0.125 A 
HETATM    8  N3  UNL     1       2.839  -0.519   0.049  1.00  0.00    -0.289 N 
HETATM    9  C12 UNL     1       3.848  -0.598  -0.878  1.00  0.00     0.145 A 
HETATM   10 CL1  UNL     1       3.701  -0.547  -2.638  1.00  0.00    -0.061 Cl
ENDROOT
BRANCH   6  11
HETATM   11  C5  UNL     1      -0.564  -0.219   1.504  1.00  0.00     0.260 C 
HETATM   12  O1  UNL     1      -0.940  -0.208   2.705  1.00  0.00    -0.267 OA
HETATM   13  N2  UNL     1      -1.459  -0.111   0.436  1.00  0.00    -0.352 N 
ATOM     14  H2  UNL     1      -1.115  -0.126  -0.524  1.00  0.00     0.163 HD
BRANCH  13  15
HETATM   15  C6  UNL     1      -2.879   0.022   0.699  1.00  0.00     0.088 C 
HETATM   16  C7  UNL     1      -3.568  -1.139  -0.009  1.00  0.00     0.051 C 
HETATM   17  C8  UNL     1      -5.021  -0.828  -0.290  1.00  0.00     0.169 C 
HETATM   18  O2  UNL     1      -5.397   0.229   0.525  1.00  0.00    -0.391 OA
HETATM   19  C9  UNL     1      -4.838   1.393  -0.041  1.00  0.00     0.169 C 
HETATM   20  C10 UNL     1      -3.327   1.318   0.029  1.00  0.00     0.051 C 
ENDBRANCH  13  15
ENDBRANCH   6  11
BRANCH   1  21
HETATM   21  S1  UNL     1       6.681  -0.869  -1.056  1.00  0.00    -0.114 SA
HETATM   22  C1  UNL     1       7.367   0.811  -1.265  1.00  0.00     0.097 C 
ENDBRANCH   1  21
TORSDOF 3
