REMARK  8 active torsions:
REMARK  status: ('A' for Active; 'I' for Inactive)
REMARK    1  A    between atoms: O1_2  and  C2_3 
REMARK    2  A    between atoms: C3_4  and  C4_5 
REMARK    3  A    between atoms: C5_6  and  C6_7 
REMARK    4  A    between atoms: C11_13  and  C12_14 
REMARK    5  A    between atoms: C15_22  and  C16_23 
REMARK    6  A    between atoms: C19_27  and  O6_28 
REMARK    7  A    between atoms: C20_30  and  C21_31 
REMARK    8  A    between atoms: C21_31  and  C22_32 
ROOT
HETATM    1  C6  UNL     1      -1.992  -0.080   1.320  1.00  0.00     0.005 C 
HETATM    2  C7  UNL     1      -1.962   0.731   2.628  1.00  0.00     0.022 C 
HETATM    3  C8  UNL     1      -2.289   0.908   0.239  1.00  0.00     0.063 C 
HETATM    4  C9  UNL     1      -3.714   1.246   0.072  1.00  0.00     0.051 A 
HETATM    5  C10 UNL     1      -4.666   0.308   0.401  1.00  0.00     0.196 A 
HETATM    6  O2  UNL     1      -5.917   0.628   0.246  1.00  0.00    -0.286 OA
HETATM    7  C11 UNL     1      -6.334   1.815  -0.214  1.00  0.00     0.099 A 
HETATM    8  C13 UNL     1      -5.407   2.769  -0.550  1.00  0.00     0.094 A 
HETATM    9  C14 UNL     1      -4.040   2.486  -0.406  1.00  0.00     0.185 A 
HETATM   10  O3  UNL     1      -3.225   3.385  -0.724  1.00  0.00    -0.288 OA
HETATM   11  O4  UNL     1      -4.226  -0.907   0.872  1.00  0.00    -0.323 OA
HETATM   12  C15 UNL     1      -3.000  -1.159   1.484  1.00  0.00     0.146 C 
ENDROOT
BRANCH   1  13
HETATM   13  C5  UNL     1      -0.624  -0.586   1.128  1.00  0.00    -0.012 C 
HETATM   14  C4  UNL     1       0.242   0.082   0.376  1.00  0.00     0.037 C 
BRANCH  14  15
HETATM   15  C3  UNL     1       1.598  -0.400   0.172  1.00  0.00     0.112 A 
HETATM   16  C2  UNL     1       2.571   0.204  -0.580  1.00  0.00     0.113 A 
HETATM   17  C20 UNL     1       3.715  -0.561  -0.523  1.00  0.00     0.040 A 
HETATM   18  C19 UNL     1       3.372  -1.633   0.292  1.00  0.00     0.193 A 
HETATM   19  O5  UNL     1       2.116  -1.501   0.681  1.00  0.00    -0.285 OA
BRANCH  16  20
HETATM   20  O1  UNL     1       2.405   1.390  -1.275  1.00  0.00    -0.352 OA
HETATM   21  C1  UNL     1       1.943   1.342  -2.629  1.00  0.00     0.210 C 
ENDBRANCH  16  20
BRANCH  17  22
HETATM   22  C21 UNL     1       5.026  -0.318  -1.171  1.00  0.00     0.074 C 
BRANCH  22  23
HETATM   23  C22 UNL     1       5.794   0.749  -0.459  1.00  0.00    -0.020 C 
HETATM   24  C23 UNL     1       6.978   0.498   0.069  1.00  0.00    -0.091 C 
HETATM   25  C24 UNL     1       7.562  -0.875  -0.046  1.00  0.00     0.042 C 
HETATM   26  C25 UNL     1       7.721   1.577   0.772  1.00  0.00     0.042 C 
ENDBRANCH  22  23
ENDBRANCH  17  22
BRANCH  18  27
HETATM   27  O6  UNL     1       4.218  -2.671   0.636  1.00  0.00    -0.340 OA
ATOM     28  H6  UNL     1       5.121  -2.766   0.356  1.00  0.00     0.220 HD
ENDBRANCH  18  27
ENDBRANCH  14  15
ENDBRANCH   1  13
BRANCH  12  29
HETATM   29  C16 UNL     1      -2.539  -2.516   0.991  1.00  0.00     0.008 C 
HETATM   30  C17 UNL     1      -3.726  -3.456   1.260  1.00  0.00     0.012 C 
HETATM   31  C18 UNL     1      -2.286  -2.556  -0.478  1.00  0.00     0.012 C 
ENDBRANCH  12  29
BRANCH   7  32
HETATM   32  C12 UNL     1      -7.759   2.020  -0.331  1.00  0.00     0.156 C 
HETATM   33  N1  UNL     1      -8.353   3.035  -0.732  1.00  0.00    -0.233 N 
HETATM   34  F1  UNL     1      -8.002   4.204  -1.164  1.00  0.00    -0.102 F 
ATOM     35  H1  UNL     1      -9.366   2.919  -0.717  1.00  0.00     0.198 HD
ENDBRANCH   7  32
TORSDOF 8
