REMARK  8 active torsions:
REMARK  status: ('A' for Active; 'I' for Inactive)
REMARK    1  A    between atoms: C2_2  and  O1_3 
REMARK    2  A    between atoms: C2_2  and  C21_30 
REMARK    3  A    between atoms: O1_3  and  C3_4 
REMARK    4  A    between atoms: C3_4  and  C4_6 
REMARK    5  A    between atoms: C4_6  and  C5_7 
REMARK    6  A    between atoms: C5_7  and  N1_8 
REMARK    7  A    between atoms: N1_8  and  C6_10 
REMARK    8  A    between atoms: N2_21  and  O3_23 
ROOT
HETATM    1  C6  UNL     1       0.527  -0.378   0.313  1.00  0.00     0.076 C 
HETATM    2  C7  UNL     1       0.227   1.022  -0.082  1.00  0.00     0.024 C 
HETATM    3  C8  UNL     1      -0.673   1.222  -1.241  1.00  0.00     0.002 C 
HETATM    4  C9  UNL     1      -1.519   2.475  -0.975  1.00  0.00     0.000 C 
HETATM    5  C10 UNL     1      -2.808   2.129  -0.264  1.00  0.00     0.000 C 
HETATM    6  C11 UNL     1      -4.032   2.695  -0.902  1.00  0.00     0.000 C 
HETATM    7  C12 UNL     1      -5.075   1.612  -1.209  1.00  0.00     0.000 C 
HETATM    8  C13 UNL     1      -5.563   1.045   0.093  1.00  0.00     0.000 C 
HETATM    9  C14 UNL     1      -6.485  -0.123  -0.066  1.00  0.00     0.008 C 
HETATM   10  C15 UNL     1      -5.919  -1.273  -0.829  1.00  0.00     0.086 C 
HETATM   11  C16 UNL     1      -5.682  -2.481   0.018  1.00  0.00     0.137 C 
HETATM   12  N2  UNL     1      -6.474  -3.484  -0.159  1.00  0.00    -0.251 N 
ATOM     13  H2  UNL     1      -7.213  -3.408  -0.858  1.00  0.00     0.196 HD
HETATM   14  O4  UNL     1      -4.652  -2.473   0.932  1.00  0.00    -0.338 OA
HETATM   15  C17 UNL     1      -3.315  -2.076   0.643  1.00  0.00     0.177 C 
HETATM   16  C18 UNL     1      -2.759  -1.480   1.900  1.00  0.00     0.027 C 
HETATM   17  C19 UNL     1      -1.384  -0.897   1.738  1.00  0.00     0.004 C 
HETATM   18  C20 UNL     1      -0.713  -1.251   0.460  1.00  0.00     0.024 C 
ENDROOT
BRANCH   1  19
HETATM   19  N1  UNL     1       1.556  -1.042  -0.422  1.00  0.00    -0.417 N 
ATOM     20  H1  UNL     1       1.373  -1.870  -0.989  1.00  0.00     0.153 HD
BRANCH  19  21
HETATM   21  C5  UNL     1       2.871  -0.461  -0.308  1.00  0.00     0.124 C 
BRANCH  21  22
HETATM   22  C4  UNL     1       3.440  -0.605   1.082  1.00  0.00     0.130 C 
BRANCH  22  23
HETATM   23  C3  UNL     1       4.808  -0.001   1.115  1.00  0.00     0.261 C 
HETATM   24  O2  UNL     1       5.432   0.118   2.222  1.00  0.00    -0.265 OA
BRANCH  23  25
HETATM   25  O1  UNL     1       5.472   0.453  -0.014  1.00  0.00    -0.309 OA
BRANCH  25  26
HETATM   26  C2  UNL     1       6.773   1.017   0.092  1.00  0.00     0.188 C 
HETATM   27  C1  UNL     1       6.668   2.457  -0.351  1.00  0.00     0.047 C 
BRANCH  26  28
HETATM   28  C21 UNL     1       7.759   0.261  -0.713  1.00  0.00     0.120 A 
HETATM   29  O5  UNL     1       8.450   0.735  -1.704  1.00  0.00    -0.321 OA
HETATM   30  C22 UNL     1       9.237  -0.168  -2.218  1.00  0.00     0.145 A 
HETATM   31  C23 UNL     1       9.050  -1.342  -1.505  1.00  0.00     0.069 A 
HETATM   32  C24 UNL     1       8.104  -1.051  -0.548  1.00  0.00     0.150 A 
HETATM   33  F1  UNL     1       7.637  -1.958   0.375  1.00  0.00    -0.203 F 
ENDBRANCH  26  28
ENDBRANCH  25  26
ENDBRANCH  23  25
ENDBRANCH  22  23
ENDBRANCH  21  22
ENDBRANCH  19  21
ENDBRANCH   1  19
BRANCH  12  34
HETATM   34  O3  UNL     1      -6.360  -4.649   0.556  1.00  0.00    -0.288 OA
ATOM     35  H3  UNL     1      -6.943  -5.388   0.426  1.00  0.00     0.244 HD
ENDBRANCH  12  34
TORSDOF 8
