REMARK  5 active torsions:
REMARK  status: ('A' for Active; 'I' for Inactive)
REMARK    1  A    between atoms: C2_2  and  N1_5 
REMARK       I    between atoms: N1_5  and  C5_7 
REMARK    2  A    between atoms: C5_7  and  C6_9 
REMARK    3  A    between atoms: C6_9  and  S1_10 
REMARK    4  A    between atoms: S1_10  and  C7_11 
REMARK    5  A    between atoms: C7_11  and  N2_13 
ROOT
HETATM    1  C6  UNL     1       0.122  -0.867  -1.613  1.00  0.00     0.184 C 
ENDROOT
BRANCH   1   2
HETATM    2  C5  UNL     1      -1.031  -0.608  -0.724  1.00  0.00     0.227 C 
HETATM    3  N1  UNL     1      -2.346  -0.409  -1.194  1.00  0.00    -0.352 N 
ATOM      4  H1  UNL     1      -2.495  -0.448  -2.202  1.00  0.00     0.163 HD
HETATM    5  O1  UNL     1      -0.834  -0.562   0.515  1.00  0.00    -0.273 OA
BRANCH   3   6
HETATM    6  C2  UNL     1      -3.484  -0.158  -0.373  1.00  0.00     0.022 C 
HETATM    7  C1  UNL     1      -3.763  -1.273   0.611  1.00  0.00     0.037 C 
HETATM    8  C3  UNL     1      -4.692   0.125  -1.209  1.00  0.00     0.037 C 
HETATM    9  C4  UNL     1      -3.190   1.098   0.440  1.00  0.00     0.037 C 
ENDBRANCH   3   6
ENDBRANCH   1   2
BRANCH   1  10
HETATM   10  S1  UNL     1       1.638  -1.062  -0.669  1.00  0.00    -0.091 SA
BRANCH  10  11
HETATM   11  C7  UNL     1       2.071   0.475   0.114  1.00  0.00     0.137 C 
HETATM   12  S2  UNL     1       1.153   1.802  -0.071  1.00  0.00    -0.053 SA
BRANCH  11  13
HETATM   13  N2  UNL     1       3.230   0.534   0.903  1.00  0.00    -0.356 N 
HETATM   14  C8  UNL     1       4.046  -0.639   1.069  1.00  0.00     0.136 C 
HETATM   15  C9  UNL     1       5.174  -0.685   0.048  1.00  0.00     0.106 C 
HETATM   16  S3  UNL     1       6.312   0.719   0.337  1.00  0.00    -0.094 SA
HETATM   17  S4  UNL     1       5.352   1.953   1.813  1.00  0.00    -0.078 SA
HETATM   18  C10 UNL     1       3.569   1.794   1.533  1.00  0.00     0.210 C 
ENDBRANCH  11  13
ENDBRANCH  10  11
ENDBRANCH   1  10
TORSDOF 5
