REMARK  6 active torsions:
REMARK  status: ('A' for Active; 'I' for Inactive)
REMARK    1  A    between atoms: C2_2  and  N1_4 
REMARK    2  A    between atoms: C6_7  and  N2_8 
REMARK    3  A    between atoms: N2_8  and  N3_10 
REMARK    4  A    between atoms: N3_10  and  C7_12 
REMARK    5  A    between atoms: C9_14  and  C10_15 
REMARK    6  A    between atoms: N5_21  and  O1_22 
ROOT
HETATM    1  N3  UNL     1      -0.576   1.001  -0.827  1.00  0.00    -0.282 N 
ATOM      2  H3  UNL     1      -0.460   1.505   0.052  1.00  0.00     0.188 HD
ENDROOT
BRANCH   1   3
HETATM    3  N2  UNL     1       0.535   1.028  -1.591  1.00  0.00    -0.307 N 
ATOM      4  H2  UNL     1       0.492   1.041  -2.610  1.00  0.00     0.186 HD
BRANCH   3   5
HETATM    5  C6  UNL     1       1.682   1.036  -0.936  1.00  0.00     0.007 C 
HETATM    6  C5  UNL     1       1.706   1.015   0.552  1.00  0.00     0.084 C 
HETATM    7  C4  UNL     1       2.633  -0.079   1.054  1.00  0.00     0.278 C 
HETATM    8  N1  UNL     1       3.737  -0.245   0.162  1.00  0.00     0.093 N 
HETATM    9  C15 UNL     1       4.051   0.924  -0.618  1.00  0.00     0.278 C 
HETATM   10  C14 UNL     1       2.942   1.081  -1.673  1.00  0.00     0.084 C 
BRANCH   8  11
HETATM   11  C2  UNL     1       4.876  -0.865   0.761  1.00  0.00     0.215 C 
HETATM   12  C1  UNL     1       5.604  -1.624  -0.330  1.00  0.00     0.042 C 
HETATM   13  C3  UNL     1       5.808   0.103   1.416  1.00  0.00     0.042 C 
ENDBRANCH   8  11
ENDBRANCH   3   5
ENDBRANCH   1   3
BRANCH   1  14
HETATM   14  C7  UNL     1      -1.721   0.498  -0.948  1.00  0.00     0.168 A 
HETATM   15  C8  UNL     1      -2.721   0.627   0.033  1.00  0.00     0.081 A 
HETATM   16  C9  UNL     1      -3.857  -0.033  -0.390  1.00  0.00     0.039 A 
HETATM   17  N4  UNL     1      -3.541  -0.538  -1.591  1.00  0.00    -0.276 N 
HETATM   18  N5  UNL     1      -2.282  -0.223  -1.915  1.00  0.00    -0.145 N 
ATOM     19  H4  UNL     1      -4.172  -1.086  -2.176  1.00  0.00     0.189 HD
BRANCH  16  20
HETATM   20  C10 UNL     1      -5.151  -0.137   0.370  1.00  0.00    -0.007 C 
HETATM   21  C11 UNL     1      -5.713   1.218   0.672  1.00  0.00     0.021 C 
HETATM   22  C12 UNL     1      -6.064  -1.073  -0.332  1.00  0.00     0.021 C 
HETATM   23  C13 UNL     1      -4.754  -0.745   1.723  1.00  0.00     0.021 C 
ENDBRANCH  16  20
BRANCH  18  24
HETATM   24  O1  UNL     1      -1.665  -0.599  -3.091  1.00  0.00    -0.266 OA
ATOM     25  H1  UNL     1      -2.066  -1.114  -3.782  1.00  0.00     0.247 HD
ENDBRANCH  18  24
ENDBRANCH   1  14
TORSDOF 6
