REMARK  3 active torsions:
REMARK  status: ('A' for Active; 'I' for Inactive)
REMARK    1  A    between atoms: C2_2  and  N1_4 
REMARK    2  A    between atoms: C7_14  and  C8_15 
REMARK    3  A    between atoms: C8_15  and  C9_16 
ROOT
HETATM    1  N1  UNL     1      -2.146  -0.812   0.504  1.00  0.00    -0.279 N 
HETATM    2  C4  UNL     1      -2.643  -1.519   1.529  1.00  0.00     0.329 A 
HETATM    3  O1  UNL     1      -3.703  -2.198   1.467  1.00  0.00    -0.246 OA
HETATM    4  N2  UNL     1      -1.836  -1.382   2.610  1.00  0.00    -0.301 N 
ATOM      5  H2  UNL     1      -1.987  -1.817   3.520  1.00  0.00     0.171 HD
HETATM    6  C5  UNL     1      -0.806  -0.582   2.290  1.00  0.00     0.150 A 
HETATM    7  C6  UNL     1       0.300  -0.095   2.959  1.00  0.00     0.277 A 
HETATM    8  O2  UNL     1       0.487  -0.413   4.158  1.00  0.00    -0.266 OA
HETATM    9  N3  UNL     1       1.186   0.724   2.327  1.00  0.00    -0.311 N 
ATOM     10  H3  UNL     1       2.000   1.079   2.829  1.00  0.00     0.170 HD
HETATM   11  C7  UNL     1       0.987   1.065   1.041  1.00  0.00     0.092 A 
HETATM   12  N7  UNL     1      -0.088   0.584   0.415  1.00  0.00    -0.329 N 
ATOM     13  H7  UNL     1      -0.225   0.852  -0.560  1.00  0.00     0.168 HD
HETATM   14  C11 UNL     1      -1.004  -0.227   0.972  1.00  0.00     0.146 A 
ENDROOT
BRANCH  11  15
HETATM   15  C8  UNL     1       1.951   1.970   0.319  1.00  0.00     0.154 C 
BRANCH  15  16
HETATM   16  C9  UNL     1       3.006   1.116  -0.325  1.00  0.00     0.106 A 
HETATM   17  N4  UNL     1       4.171   0.714   0.185  1.00  0.00    -0.285 N 
HETATM   18  N5  UNL     1       4.822  -0.032  -0.710  1.00  0.00    -0.250 N 
ATOM     19  H4  UNL     1       4.513   0.942   1.118  1.00  0.00     0.188 HD
HETATM   20  C10 UNL     1       4.044  -0.098  -1.808  1.00  0.00     0.340 A 
ATOM     21  H5  UNL     1       5.735  -0.469  -0.586  1.00  0.00     0.192 HD
HETATM   22  O3  UNL     1       4.322  -0.721  -2.877  1.00  0.00    -0.245 OA
HETATM   23  N6  UNL     1       2.925   0.614  -1.560  1.00  0.00    -0.295 N 
ATOM     24  H6  UNL     1       2.148   0.747  -2.207  1.00  0.00     0.172 HD
ENDBRANCH  15  16
ENDBRANCH  11  15
BRANCH   1  25
HETATM   25  C2  UNL     1      -2.650  -0.648  -0.848  1.00  0.00     0.088 C 
HETATM   26  C1  UNL     1      -3.133   0.752  -1.120  1.00  0.00     0.032 C 
HETATM   27  C3  UNL     1      -1.708  -1.170  -1.891  1.00  0.00     0.032 C 
ENDBRANCH   1  25
TORSDOF 3
