REMARK  9 active torsions:
REMARK  status: ('A' for Active; 'I' for Inactive)
REMARK    1  A    between atoms: O1_2  and  C2_3 
REMARK    2  A    between atoms: C2_3  and  O2_4 
REMARK    3  A    between atoms: C2_3  and  C3_6 
REMARK    4  A    between atoms: C3_6  and  C4_7 
REMARK    5  A    between atoms: C4_7  and  N1_8 
REMARK    6  A    between atoms: N1_8  and  S1_10 
REMARK    7  A    between atoms: S1_10  and  C5_13 
REMARK    8  A    between atoms: C8_16  and  N2_17 
REMARK    9  A    between atoms: N2_17  and  N3_19 
ROOT
HETATM    1  N3  UNL     1       5.491   0.302  -1.620  1.00  0.00    -0.236 N 
ATOM      2  H3  UNL     1       6.280  -0.076  -2.145  1.00  0.00     0.199 HD
HETATM    3  C9  UNL     1       5.652   1.400  -0.770  1.00  0.00     0.197 C 
HETATM    4  N4  UNL     1       5.805   2.308  -0.064  1.00  0.00    -0.170 NA
ENDROOT
BRANCH   1   5
HETATM    5  N2  UNL     1       4.220  -0.261  -1.729  1.00  0.00    -0.292 N 
ATOM      6  H2  UNL     1       3.969  -0.813  -2.549  1.00  0.00     0.187 HD
BRANCH   5   7
HETATM    7  C8  UNL     1       3.278  -0.058  -0.685  1.00  0.00     0.048 A 
HETATM    8  C7  UNL     1       3.178  -0.901   0.405  1.00  0.00     0.032 A 
HETATM    9  C6  UNL     1       2.262  -0.703   1.419  1.00  0.00     0.027 A 
HETATM   10  C5  UNL     1       1.407   0.367   1.362  1.00  0.00     0.079 A 
HETATM   11  C11 UNL     1       1.466   1.233   0.300  1.00  0.00     0.027 A 
HETATM   12  C10 UNL     1       2.397   1.015  -0.710  1.00  0.00     0.032 A 
BRANCH  10  13
HETATM   13  S1  UNL     1       0.239   0.657   2.619  1.00  0.00     0.258 S 
HETATM   14  O3  UNL     1       0.758   0.214   3.960  1.00  0.00    -0.201 OA
HETATM   15  O4  UNL     1      -0.013   2.145   2.667  1.00  0.00    -0.201 OA
BRANCH  13  16
HETATM   16  N1  UNL     1      -1.206  -0.193   2.204  1.00  0.00    -0.315 N 
ATOM     17  H1  UNL     1      -1.608  -0.937   2.774  1.00  0.00     0.172 HD
BRANCH  16  18
HETATM   18  C4  UNL     1      -1.778   0.260   0.972  1.00  0.00     0.137 C 
BRANCH  18  19
HETATM   19  C3  UNL     1      -3.039  -0.587   0.754  1.00  0.00     0.081 C 
BRANCH  19  20
HETATM   20  C2  UNL     1      -3.673  -0.140  -0.546  1.00  0.00     0.257 C 
BRANCH  20  21
HETATM   21  O1  UNL     1      -4.818  -0.838  -0.844  1.00  0.00    -0.366 OA
HETATM   22  C1  UNL     1      -4.801  -1.502  -2.046  1.00  0.00     0.204 C 
ENDBRANCH  20  21
BRANCH  20  23
HETATM   23  O2  UNL     1      -3.900   1.242  -0.429  1.00  0.00    -0.371 OA
ATOM     24  H2  UNL     1      -3.108   1.725  -0.223  1.00  0.00     0.212 HD
ENDBRANCH  20  23
ENDBRANCH  19  20
ENDBRANCH  18  19
ENDBRANCH  16  18
ENDBRANCH  13  16
ENDBRANCH  10  13
ENDBRANCH   5   7
ENDBRANCH   1   5
TORSDOF 9
