REMARK  9 active torsions:
REMARK  status: ('A' for Active; 'I' for Inactive)
REMARK    1  A    between atoms: N1_1  and  C1_4 
REMARK    2  A    between atoms: C2_7  and  N3_8 
REMARK    3  A    between atoms: N3_8  and  C3_10 
REMARK    4  A    between atoms: C3_10  and  C4_11 
REMARK    5  A    between atoms: C4_11  and  C5_12 
REMARK    6  A    between atoms: C5_12  and  O1_13 
REMARK    7  A    between atoms: C5_12  and  O2_15 
REMARK       I    between atoms: N7_25  and  C8_26 
REMARK       I    between atoms: C8_26  and  N8_28 
REMARK    8  A    between atoms: C11_34  and  N10_35 
REMARK    9  A    between atoms: N10_35  and  C12_37 
ROOT
HETATM    1  C1  UNL     1       1.918   2.105  -0.389  1.00  0.00     0.147 A 
HETATM    2  N2  UNL     1       2.821   1.270   0.125  1.00  0.00    -0.175 N 
ATOM      3  H2  UNL     1       3.766   1.623   0.275  1.00  0.00     0.186 HD
HETATM    4  C2  UNL     1       2.569   0.008   0.455  1.00  0.00     0.681 A 
HETATM    5  N4  UNL     1       1.319  -0.490   0.269  1.00  0.00    -0.172 N 
ATOM      6  H4  UNL     1       1.110  -1.457   0.518  1.00  0.00     0.186 HD
HETATM    7  C6  UNL     1       0.352   0.303  -0.249  1.00  0.00     0.180 A 
HETATM    8  C7  UNL     1       0.636   1.617  -0.587  1.00  0.00     0.140 A 
HETATM    9  N5  UNL     1      -0.497   2.140  -1.066  1.00  0.00    -0.279 N 
ATOM     10  H5  UNL     1      -0.611   3.096  -1.402  1.00  0.00     0.189 HD
HETATM   11  N6  UNL     1      -1.437   1.231  -1.036  1.00  0.00    -0.230 N 
ATOM     12  H6  UNL     1      -2.399   1.374  -1.345  1.00  0.00     0.209 HD
HETATM   13  N7  UNL     1      -0.952   0.086  -0.540  1.00  0.00    -0.171 N 
HETATM   14  C8  UNL     1      -1.657  -1.121  -0.339  1.00  0.00     0.348 C 
HETATM   15  O3  UNL     1      -1.055  -2.109   0.171  1.00  0.00    -0.245 OA
HETATM   16  N8  UNL     1      -3.000  -1.314  -0.664  1.00  0.00    -0.306 N 
HETATM   17  C9  UNL     1      -3.648  -2.637  -0.384  1.00  0.00     0.360 C 
HETATM   18  N9  UNL     1      -4.991  -2.358   0.079  1.00  0.00    -0.057 N 
ATOM     19  H91 UNL     1      -5.338  -3.115   0.668  1.00  0.00     0.279 HD
ATOM     20  H92 UNL     1      -5.661  -2.422  -0.687  1.00  0.00     0.279 HD
HETATM   21  C10 UNL     1      -5.101  -1.086   0.756  1.00  0.00     0.261 C 
HETATM   22  C11 UNL     1      -4.793   0.105  -0.120  1.00  0.00     0.127 C 
HETATM   23  C13 UNL     1      -3.929  -0.392  -1.265  1.00  0.00     0.156 C 
ENDROOT
BRANCH   4  24
HETATM   24  N3  UNL     1       3.443  -0.801   0.952  1.00  0.00    -0.226 N 
ATOM     25  H3  UNL     1       3.165  -1.756   1.178  1.00  0.00     0.177 HD
BRANCH  24  26
HETATM   26  C3  UNL     1       4.806  -0.386   1.196  1.00  0.00     0.143 C 
BRANCH  26  27
HETATM   27  C4  UNL     1       5.653  -0.502  -0.050  1.00  0.00     0.080 C 
BRANCH  27  28
HETATM   28  C5  UNL     1       7.067  -0.081   0.162  1.00  0.00     0.255 C 
BRANCH  28  29
HETATM   29  O1  UNL     1       7.618  -0.901   1.146  1.00  0.00    -0.371 OA
ATOM     30  H1  UNL     1       8.519  -0.633   1.281  1.00  0.00     0.212 HD
ENDBRANCH  28  29
BRANCH  28  31
HETATM   31  O2  UNL     1       7.213   1.222   0.574  1.00  0.00    -0.371 OA
ATOM     32  H2  UNL     1       8.114   1.490   0.709  1.00  0.00     0.212 HD
ENDBRANCH  28  31
ENDBRANCH  27  28
ENDBRANCH  26  27
ENDBRANCH  24  26
ENDBRANCH   4  24
BRANCH   1  33
HETATM   33  N1  UNL     1       2.177   3.330  -0.706  1.00  0.00    -0.383 N 
ATOM     34  H12 UNL     1       3.120   3.689  -0.560  1.00  0.00     0.157 HD
ATOM     35  H11 UNL     1       1.486   3.969  -1.099  1.00  0.00     0.157 HD
ENDBRANCH   1  33
BRANCH  22  36
HETATM   36  N10 UNL     1      -5.978   0.783  -0.580  1.00  0.00    -0.360 N 
ATOM     37  H10 UNL     1      -6.666   0.281  -1.141  1.00  0.00     0.162 HD
BRANCH  36  38
HETATM   38  C12 UNL     1      -6.191   2.152  -0.254  1.00  0.00     0.348 C 
HETATM   39  O4  UNL     1      -5.330   2.775   0.446  1.00  0.00    -0.284 OA
ENDBRANCH  36  38
ENDBRANCH  22  36
TORSDOF 9
