REMARK  4 active torsions:
REMARK  status: ('A' for Active; 'I' for Inactive)
REMARK    1  A    between atoms: N1_1  and  C1_4 
REMARK    2  A    between atoms: C2_5  and  N2_6 
REMARK    3  A    between atoms: C4_12  and  N4_13 
REMARK    4  A    between atoms: N4_13  and  N5_15 
ROOT
HETATM    1  C1  UNL     1      -1.681   0.417   0.156  1.00  0.00     0.130 C 
HETATM    2  C2  UNL     1      -1.257  -0.838   0.516  1.00  0.00     0.150 C 
HETATM    3  C3  UNL     1       0.035  -1.251   0.756  1.00  0.00     0.144 C 
HETATM    4  N3  UNL     1       1.166  -0.499   0.611  1.00  0.00    -0.198 N 
ATOM      5  H3  UNL     1       2.015  -0.910   1.001  1.00  0.00     0.183 HD
HETATM    6  C4  UNL     1       1.324   0.699   0.032  1.00  0.00     0.699 C 
HETATM    7  N6  UNL     1       0.403   1.665  -0.117  1.00  0.00    -0.153 N 
ATOM      8  H6  UNL     1       0.773   2.611  -0.215  1.00  0.00     0.187 HD
HETATM    9  C5  UNL     1      -0.957   1.561  -0.156  1.00  0.00     0.288 C 
HETATM   10  O3  UNL     1      -1.621   2.568  -0.499  1.00  0.00    -0.265 OA
ENDROOT
BRANCH   6  11
HETATM   11  N4  UNL     1       2.478   0.981  -0.445  1.00  0.00    -0.138 N 
ATOM     12  H4  UNL     1       2.632   1.884  -0.893  1.00  0.00     0.205 HD
BRANCH  11  13
HETATM   13  N5  UNL     1       3.527   0.066  -0.359  1.00  0.00    -0.331 N 
ATOM     14  H52 UNL     1       3.356  -0.833   0.092  1.00  0.00     0.177 HD
ATOM     15  H51 UNL     1       4.446   0.291  -0.739  1.00  0.00     0.177 HD
ENDBRANCH  11  13
ENDBRANCH   6  11
BRANCH   2  16
HETATM   16  N2  UNL     1      -2.312  -1.784   0.641  1.00  0.00    -0.112 N 
HETATM   17  O1  UNL     1      -3.456  -1.475   1.008  1.00  0.00    -0.532 OA
HETATM   18  O2  UNL     1      -1.984  -3.098   0.324  1.00  0.00    -0.532 OA
ENDBRANCH   2  16
BRANCH   1  19
HETATM   19  N1  UNL     1      -2.956   0.570   0.096  1.00  0.00    -0.393 N 
ATOM     20  H12 UNL     1      -3.488  -0.270   0.325  1.00  0.00     0.156 HD
ATOM     21  H11 UNL     1      -3.271   1.503  -0.171  1.00  0.00     0.156 HD
ENDBRANCH   1  19
TORSDOF 4
