REMARK  1 active torsions:
REMARK  status: ('A' for Active; 'I' for Inactive)
REMARK    1  A    between atoms: C1_2  and  N1_3 
ROOT
HETATM    1  N1  UNL     1       2.141   0.042   0.460  1.00  0.00    -0.270 N 
HETATM    2  C2  UNL     1       1.884   1.450   0.352  1.00  0.00     0.166 C 
HETATM    3  C3  UNL     1       1.404   1.827  -1.030  1.00  0.00     0.135 C 
HETATM    4  N2  UNL     1       0.012   1.594  -1.247  1.00  0.00    -0.418 N 
ATOM      5  H2  UNL     1      -0.325   0.869  -1.881  1.00  0.00     0.153 HD
HETATM    6  C4  UNL     1      -0.876   2.440  -0.521  1.00  0.00     0.141 C 
HETATM    7  C5  UNL     1      -1.761   1.626   0.392  1.00  0.00     0.251 C 
HETATM    8  N3  UNL     1      -2.190   0.459  -0.339  1.00  0.00    -0.072 N 
ATOM      9  H31 UNL     1      -1.417   0.069  -0.878  1.00  0.00     0.277 HD
ATOM     10  H32 UNL     1      -2.815   0.723  -1.101  1.00  0.00     0.277 HD
HETATM   11  C6  UNL     1      -2.789  -0.544   0.476  1.00  0.00     0.252 C 
HETATM   12  C7  UNL     1      -1.907  -1.742   0.740  1.00  0.00     0.150 C 
HETATM   13  N4  UNL     1      -1.242  -2.165  -0.475  1.00  0.00    -0.358 N 
ATOM     14  H4  UNL     1      -1.776  -2.096  -1.342  1.00  0.00     0.162 HD
HETATM   15  C8  UNL     1       0.071  -2.662  -0.573  1.00  0.00     0.234 C 
HETATM   16  O2  UNL     1       0.300  -3.716  -1.263  1.00  0.00    -0.272 OA
HETATM   17  C9  UNL     1       1.282  -2.086   0.057  1.00  0.00     0.237 C 
HETATM   18  N5  UNL     1       1.100  -0.850   0.729  1.00  0.00    -0.128 NA
ENDROOT
BRANCH   1  19
HETATM   19  C1  UNL     1       3.459  -0.433   0.294  1.00  0.00     0.367 C 
HETATM   20  O1  UNL     1       4.430   0.320   0.053  1.00  0.00    -0.282 OA
ENDBRANCH   1  19
TORSDOF 1
