REMARK  14 active torsions:
REMARK  status: ('A' for Active; 'I' for Inactive)
REMARK       I    between atoms: N1_2  and  C2_4 
REMARK    1  A    between atoms: C2_4  and  C3_6 
REMARK    2  A    between atoms: C3_6  and  O2_7 
REMARK    3  A    between atoms: C3_6  and  C4_9 
REMARK    4  A    between atoms: C4_9  and  O3_10 
REMARK    5  A    between atoms: C4_9  and  C5_12 
REMARK    6  A    between atoms: C5_12  and  O4_13 
REMARK    7  A    between atoms: C5_12  and  C6_15 
REMARK    8  A    between atoms: C7_19  and  O5_20 
REMARK    9  A    between atoms: O5_20  and  C8_21 
REMARK   10  A    between atoms: C10_23  and  O6_24 
REMARK   11  A    between atoms: O6_24  and  C11_25 
REMARK   12  A    between atoms: C13_29  and  O9_31 
REMARK   13  A    between atoms: C15_33  and  N3_34 
REMARK   14  A    between atoms: C19_43  and  C20_44 
ROOT
HETATM    1  C6  UNL     1       1.824  -0.026  -0.255  1.00  0.00     0.417 C 
HETATM    2  N2  UNL     1       0.370   0.190  -0.155  1.00  0.00    -0.017 N 
ATOM      3  H21 UNL     1       0.082   1.151  -0.338  1.00  0.00     0.282 HD
ATOM      4  H22 UNL     1       0.010   0.138   0.798  1.00  0.00     0.282 HD
HETATM    5  C7  UNL     1      -0.218  -0.779  -1.057  1.00  0.00     0.332 C 
HETATM    6  C18 UNL     1      -0.003  -2.135  -0.429  1.00  0.00     0.106 C 
HETATM    7  C19 UNL     1       1.459  -2.410  -0.229  1.00  0.00     0.292 C 
HETATM    8  N7  UNL     1       2.199  -1.300   0.292  1.00  0.00    -0.029 N 
ATOM      9  H71 UNL     1       2.141  -1.281   1.310  1.00  0.00     0.280 HD
ATOM     10  H72 UNL     1       3.201  -1.455   0.177  1.00  0.00     0.280 HD
ENDROOT
BRANCH   5  11
HETATM   11  O5  UNL     1      -1.503  -0.513  -1.468  1.00  0.00    -0.320 OA
BRANCH  11  12
HETATM   12  C8  UNL     1      -2.642  -0.378  -0.671  1.00  0.00     0.080 C 
HETATM   13  C9  UNL     1      -3.143  -1.461  -0.147  1.00  0.00     0.068 C 
HETATM   14  C10 UNL     1      -4.336  -1.457   0.709  1.00  0.00     0.300 C 
HETATM   15  O8  UNL     1      -4.878  -0.233   0.951  1.00  0.00    -0.319 OA
HETATM   16  C13 UNL     1      -4.747   0.667  -0.100  1.00  0.00     0.190 C 
HETATM   17  C14 UNL     1      -5.504   0.203  -1.320  1.00  0.00     0.082 C 
HETATM   18  C15 UNL     1      -3.282   0.922  -0.410  1.00  0.00     0.227 C 
BRANCH  14  19
HETATM   19  O6  UNL     1      -5.312  -2.386   0.216  1.00  0.00    -0.286 OA
BRANCH  19  20
HETATM   20  C11 UNL     1      -5.687  -3.516   0.898  1.00  0.00     0.257 C 
HETATM   21  C12 UNL     1      -6.706  -4.478   0.375  1.00  0.00     0.126 C 
HETATM   22  O7  UNL     1      -5.150  -3.751   2.009  1.00  0.00    -0.266 OA
ENDBRANCH  19  20
ENDBRANCH  14  19
BRANCH  16  23
HETATM   23  O9  UNL     1      -5.304   1.876   0.310  1.00  0.00    -0.363 OA
ATOM     24  H9  UNL     1      -5.214   2.491  -0.408  1.00  0.00     0.213 HD
ENDBRANCH  16  23
BRANCH  18  25
HETATM   25  N3  UNL     1      -2.665   1.693   0.639  1.00  0.00    -0.269 N 
HETATM   26  C16 UNL     1      -2.167   2.933   0.489  1.00  0.00     0.159 A 
HETATM   27  C17 UNL     1      -1.665   3.339   1.706  1.00  0.00     0.149 A 
HETATM   28  N4  UNL     1      -1.034   4.596   2.028  1.00  0.00    -0.080 NA
HETATM   29  N5  UNL     1      -1.878   2.324   2.559  1.00  0.00    -0.272 N 
HETATM   30  N6  UNL     1      -2.480   1.355   1.880  1.00  0.00    -0.239 N 
ATOM     31  H5  UNL     1      -1.624   2.302   3.547  1.00  0.00     0.189 HD
ATOM     32  H6  UNL     1      -2.761   0.460   2.281  1.00  0.00     0.208 HD
ENDBRANCH  18  25
ENDBRANCH  11  12
ENDBRANCH   5  11
BRANCH   1  33
HETATM   33  C5  UNL     1       2.570   1.057   0.473  1.00  0.00     0.208 C 
BRANCH  33  34
HETATM   34  C4  UNL     1       4.059   0.818   0.269  1.00  0.00     0.188 C 
BRANCH  34  35
HETATM   35  C3  UNL     1       4.874   1.934   0.889  1.00  0.00     0.241 C 
BRANCH  35  36
HETATM   36  C2  UNL     1       6.313   1.795   0.590  1.00  0.00     0.248 C 
HETATM   37  N1  UNL     1       6.807   1.787  -0.736  1.00  0.00    -0.363 N 
HETATM   38  C1  UNL     1       8.242   1.647  -1.014  1.00  0.00     0.149 C 
ATOM     39  H1  UNL     1       6.154   1.880  -1.514  1.00  0.00     0.162 HD
HETATM   40  O1  UNL     1       7.135   1.679   1.549  1.00  0.00    -0.271 OA
ENDBRANCH  35  36
BRANCH  35  41
HETATM   41  O2  UNL     1       4.646   1.915   2.247  1.00  0.00    -0.383 OA
ATOM     42  H2  UNL     1       3.720   2.004   2.439  1.00  0.00     0.210 HD
ENDBRANCH  35  41
ENDBRANCH  34  35
BRANCH  34  43
HETATM   43  O3  UNL     1       4.473  -0.365   0.823  1.00  0.00    -0.390 OA
ATOM     44  H3  UNL     1       3.962  -1.065   0.434  1.00  0.00     0.210 HD
ENDBRANCH  34  43
ENDBRANCH  33  34
BRANCH  33  45
HETATM   45  O4  UNL     1       2.218   2.291  -0.121  1.00  0.00    -0.389 OA
ATOM     46  H4  UNL     1       1.288   2.440   0.006  1.00  0.00     0.210 HD
ENDBRANCH  33  45
ENDBRANCH   1  33
BRANCH   7  47
HETATM   47  C20 UNL     1       2.110  -2.863  -1.486  1.00  0.00     0.205 C 
HETATM   48  O10 UNL     1       3.142  -2.293  -1.933  1.00  0.00    -0.646 OA
HETATM   49  O11 UNL     1       1.629  -3.934  -2.242  1.00  0.00    -0.646 OA
ENDBRANCH   7  47
TORSDOF 14
