REMARK  3 active torsions:
REMARK  status: ('A' for Active; 'I' for Inactive)
REMARK    1  A    between atoms: C1_2  and  C2_4 
REMARK    2  A    between atoms: C6_8  and  N1_9 
REMARK       I    between atoms: N1_9  and  C7_11 
REMARK    3  A    between atoms: C7_11  and  C8_13 
ROOT
HETATM    1  C2  UNL     1      -2.675   0.081  -0.328  1.00  0.00     0.089 C 
HETATM    2  C3  UNL     1      -3.020  -1.041   0.582  1.00  0.00     0.015 C 
HETATM    3  C4  UNL     1      -1.964  -2.130   0.395  1.00  0.00     0.003 C 
HETATM    4  C5  UNL     1      -0.686  -1.544   0.979  1.00  0.00     0.025 C 
HETATM    5  C6  UNL     1      -0.243  -0.458   0.020  1.00  0.00     0.085 C 
HETATM    6  C11 UNL     1      -1.273   0.584  -0.195  1.00  0.00     0.040 C 
ENDROOT
BRANCH   5   7
HETATM    7  N1  UNL     1       0.972   0.180   0.491  1.00  0.00    -0.356 N 
HETATM    8  C7  UNL     1       2.177   0.093  -0.255  1.00  0.00     0.222 C 
HETATM    9  O3  UNL     1       2.236  -0.530  -1.333  1.00  0.00    -0.273 OA
ATOM     10  H1  UNL     1       0.960   0.698   1.370  1.00  0.00     0.162 HD
BRANCH   8  11
HETATM   11  C8  UNL     1       3.409   0.752   0.241  1.00  0.00     0.078 A 
HETATM   12  C9  UNL     1       4.362   1.321  -0.745  1.00  0.00     0.015 A 
HETATM   13  C10 UNL     1       4.711   0.063  -0.044  1.00  0.00     0.015 A 
ENDBRANCH   8  11
ENDBRANCH   5   7
BRANCH   1  14
HETATM   14  C1  UNL     1      -3.597   1.206  -0.070  1.00  0.00     0.177 C 
HETATM   15  O1  UNL     1      -4.495   1.136   0.795  1.00  0.00    -0.648 OA
HETATM   16  O2  UNL     1      -3.478   2.372  -0.795  1.00  0.00    -0.648 OA
ENDBRANCH   1  14
TORSDOF 3
