REMARK  7 active torsions:
REMARK  status: ('A' for Active; 'I' for Inactive)
REMARK    1  A    between atoms: C2_2  and  C3_3 
REMARK    2  A    between atoms: C3_3  and  N1_4 
REMARK    3  A    between atoms: N1_4  and  C4_6 
REMARK    4  A    between atoms: C5_9  and  N3_10 
REMARK    5  A    between atoms: C10_21  and  N7_22 
REMARK    6  A    between atoms: N7_22  and  C11_24 
REMARK    7  A    between atoms: C13_28  and  N9_29 
ROOT
HETATM    1  C4  UNL     1      -1.388   0.444  -0.393  1.00  0.00     0.135 A 
HETATM    2  N2  UNL     1      -1.763  -0.715   0.169  1.00  0.00    -0.174 N 
ATOM      3  H2  UNL     1      -2.759  -0.921   0.250  1.00  0.00     0.186 HD
HETATM    4  C5  UNL     1      -0.876  -1.618   0.630  1.00  0.00     0.706 A 
HETATM    5  N5  UNL     1       0.434  -1.332   0.515  1.00  0.00    -0.173 N 
ATOM      6  H5  UNL     1       1.107  -2.015   0.863  1.00  0.00     0.186 HD
HETATM    7  C9  UNL     1       0.902  -0.215  -0.024  1.00  0.00     0.154 A 
HETATM    8  N6  UNL     1       2.220   0.024  -0.116  1.00  0.00    -0.175 N 
ATOM      9  H6  UNL     1       2.880  -0.669   0.237  1.00  0.00     0.186 HD
HETATM   10  C10 UNL     1       2.679   1.143  -0.656  1.00  0.00     0.681 A 
HETATM   11  N8  UNL     1       1.784   2.053  -1.120  1.00  0.00    -0.176 N 
ATOM     12  H8  UNL     1       2.133   2.916  -1.536  1.00  0.00     0.186 HD
HETATM   13  C13 UNL     1       0.460   1.860  -1.052  1.00  0.00     0.132 A 
HETATM   14  C14 UNL     1      -0.041   0.703  -0.494  1.00  0.00     0.097 A 
ENDROOT
BRANCH   4  15
HETATM   15  N3  UNL     1      -1.321  -2.839   1.221  1.00  0.00    -0.098 N 
HETATM   16  C6  UNL     1      -0.959  -4.083   0.803  1.00  0.00     0.136 A 
HETATM   17  C7  UNL     1      -1.574  -5.022   1.600  1.00  0.00     0.038 A 
HETATM   18  C8  UNL     1      -2.322  -4.314   2.514  1.00  0.00     0.110 A 
HETATM   19  N4  UNL     1      -2.131  -3.028   2.239  1.00  0.00    -0.291 N 
ATOM     20  H4  UNL     1      -2.567  -2.268   2.762  1.00  0.00     0.187 HD
ENDBRANCH   4  15
BRANCH   1  21
HETATM   21  N1  UNL     1      -2.209   1.320  -0.839  1.00  0.00    -0.371 N 
ATOM     22  H1  UNL     1      -1.813   2.167  -1.247  1.00  0.00     0.161 HD
BRANCH  21  23
HETATM   23  C3  UNL     1      -3.639   1.210  -0.813  1.00  0.00     0.147 C 
BRANCH  23  24
HETATM   24  C2  UNL     1      -4.198   2.590  -0.775  1.00  0.00    -0.018 C 
HETATM   25  C1  UNL     1      -4.963   3.022   0.215  1.00  0.00     0.008 C 
ENDBRANCH  23  24
ENDBRANCH  21  23
ENDBRANCH   1  21
BRANCH  13  26
HETATM   26  N9  UNL     1      -0.390   2.717  -1.489  1.00  0.00    -0.384 N 
ATOM     27  H92 UNL     1      -0.019   3.573  -1.902  1.00  0.00     0.157 HD
ATOM     28  H91 UNL     1      -1.398   2.570  -1.437  1.00  0.00     0.157 HD
ENDBRANCH  13  26
BRANCH  10  29
HETATM   29  N7  UNL     1       3.944   1.336  -0.726  1.00  0.00    -0.226 N 
ATOM     30  H7  UNL     1       4.298   2.197  -1.142  1.00  0.00     0.177 HD
BRANCH  29  31
HETATM   31  C11 UNL     1       4.878   0.351  -0.224  1.00  0.00     0.133 C 
HETATM   32  C12 UNL     1       6.290   0.910  -0.282  1.00  0.00     0.027 C 
ENDBRANCH  29  31
ENDBRANCH  10  29
TORSDOF 7
