REMARK  7 active torsions:
REMARK  status: ('A' for Active; 'I' for Inactive)
REMARK    1  A    between atoms: C2_2  and  C3_3 
REMARK    2  A    between atoms: C3_3  and  C4_4 
REMARK    3  A    between atoms: N1_7  and  N2_9 
REMARK    4  A    between atoms: N2_9  and  C7_11 
REMARK    5  A    between atoms: C8_14  and  N4_15 
REMARK    6  A    between atoms: C9_20  and  N6_21 
REMARK    7  A    between atoms: N6_21  and  N7_23 
ROOT
HETATM    1  C7  UNL     1       0.121  -0.390  -0.082  1.00  0.00     0.726 A 
HETATM    2  N3  UNL     1      -0.025   0.671   0.730  1.00  0.00    -0.020 N 
ATOM      3  H3  UNL     1       0.816   1.141   1.066  1.00  0.00     0.203 HD
HETATM    4  C8  UNL     1      -1.220   1.146   1.123  1.00  0.00     0.705 A 
HETATM    5  N5  UNL     1      -2.322   0.518   0.675  1.00  0.00    -0.020 N 
ATOM      6  H5  UNL     1      -3.247   0.848   0.951  1.00  0.00     0.203 HD
HETATM    7  C9  UNL     1      -2.201  -0.546  -0.138  1.00  0.00     0.725 A 
HETATM    8  N8  UNL     1      -0.983  -1.007  -0.522  1.00  0.00    -0.018 N 
ATOM      9  H8  UNL     1      -0.910  -1.815  -1.140  1.00  0.00     0.203 HD
ENDROOT
BRANCH   1  10
HETATM   10  N2  UNL     1       1.318  -0.801  -0.428  1.00  0.00    -0.131 N 
ATOM     11  H2  UNL     1       1.414  -1.607  -1.045  1.00  0.00     0.205 HD
BRANCH  10  12
HETATM   12  N1  UNL     1       2.462  -0.149   0.038  1.00  0.00    -0.295 N 
HETATM   13  C2  UNL     1       3.434   0.201  -0.725  1.00  0.00     0.001 C 
HETATM   14  C1  UNL     1       3.346  -0.098  -2.171  1.00  0.00     0.065 C 
ATOM     15  H1  UNL     1       2.529   0.060   1.034  1.00  0.00     0.186 HD
BRANCH  13  16
HETATM   16  C3  UNL     1       4.594   0.887  -0.108  1.00  0.00     0.057 C 
BRANCH  16  17
HETATM   17  C4  UNL     1       5.877   0.106  -0.319  1.00  0.00    -0.017 C 
HETATM   18  C5  UNL     1       6.992   0.891   0.347  1.00  0.00     0.010 C 
HETATM   19  C6  UNL     1       5.837  -1.248   0.333  1.00  0.00     0.010 C 
ENDBRANCH  16  17
ENDBRANCH  13  16
ENDBRANCH  10  12
ENDBRANCH   1  10
BRANCH   4  20
HETATM   20  N4  UNL     1      -1.320   2.177   1.912  1.00  0.00    -0.234 N 
ATOM     21  H42 UNL     1      -0.484   2.653   2.252  1.00  0.00     0.174 HD
ATOM     22  H41 UNL     1      -2.226   2.537   2.210  1.00  0.00     0.174 HD
ENDBRANCH   4  20
BRANCH   7  23
HETATM   23  N6  UNL     1      -3.278  -1.152  -0.571  1.00  0.00    -0.133 N 
ATOM     24  H6  UNL     1      -3.203  -1.960  -1.189  1.00  0.00     0.205 HD
BRANCH  23  25
HETATM   25  N7  UNL     1      -4.528  -0.678  -0.176  1.00  0.00    -0.310 N 
HETATM   26  C10 UNL     1      -5.156  -1.305   0.967  1.00  0.00     0.169 C 
HETATM   27  C11 UNL     1      -6.661  -1.300   0.877  1.00  0.00     0.189 C 
HETATM   28  O1  UNL     1      -7.189  -0.142   0.366  1.00  0.00    -0.388 OA
HETATM   29  C12 UNL     1      -6.289   0.874   0.168  1.00  0.00     0.189 C 
HETATM   30  C13 UNL     1      -5.246   0.395  -0.823  1.00  0.00     0.169 C 
ENDBRANCH  23  25
ENDBRANCH   7  23
TORSDOF 7
