REMARK  7 active torsions:
REMARK  status: ('A' for Active; 'I' for Inactive)
REMARK    1  A    between atoms: N1_1  and  C1_4 
REMARK    2  A    between atoms: C2_7  and  C3_8 
REMARK    3  A    between atoms: C3_8  and  O1_9 
REMARK    4  A    between atoms: C3_8  and  C4_11 
REMARK    5  A    between atoms: C3_8  and  C9_21 
REMARK    6  A    between atoms: N3_18  and  O2_19 
REMARK    7  A    between atoms: C10_27  and  N5_28 
ROOT
HETATM    1  C3  UNL     1      -0.205  -1.047  -0.585  1.00  0.00     0.260 C 
ENDROOT
BRANCH   1   2
HETATM    2  C2  UNL     1       1.026  -0.303  -0.275  1.00  0.00     0.163 A 
HETATM    3  N2  UNL     1       2.181  -0.976  -0.246  1.00  0.00    -0.176 N 
HETATM    4  C1  UNL     1       3.354  -0.368   0.035  1.00  0.00     0.691 A 
ATOM      5  H2  UNL     1       2.176  -1.977  -0.442  1.00  0.00     0.185 HD
HETATM    6  N6  UNL     1       3.360   0.931   0.289  1.00  0.00    -0.023 N 
HETATM    7  C10 UNL     1       2.211   1.634   0.266  1.00  0.00     0.691 A 
ATOM      8  H6  UNL     1       4.239   1.402   0.503  1.00  0.00     0.203 HD
HETATM    9  N4  UNL     1       1.032   1.001  -0.022  1.00  0.00    -0.176 N 
ATOM     10  H4  UNL     1       0.160   1.530  -0.042  1.00  0.00     0.185 HD
BRANCH   4  11
HETATM   11  N1  UNL     1       4.445  -1.033   0.057  1.00  0.00    -0.234 N 
ATOM     12  H12 UNL     1       4.440  -2.034  -0.139  1.00  0.00     0.174 HD
ATOM     13  H11 UNL     1       5.331  -0.574   0.269  1.00  0.00     0.174 HD
ENDBRANCH   4  11
BRANCH   7  14
HETATM   14  N5  UNL     1       2.154   2.897   0.504  1.00  0.00    -0.234 N 
ATOM     15  H52 UNL     1       1.284   3.429   0.487  1.00  0.00     0.174 HD
ATOM     16  H51 UNL     1       3.033   3.369   0.719  1.00  0.00     0.174 HD
ENDBRANCH   7  14
ENDBRANCH   1   2
BRANCH   1  17
HETATM   17  O1  UNL     1      -0.250  -0.961  -2.046  1.00  0.00    -0.369 OA
ATOM     18  H1  UNL     1      -1.045  -1.441  -2.246  1.00  0.00     0.212 HD
ENDBRANCH   1  17
BRANCH   1  19
HETATM   19  C4  UNL     1      -1.452  -0.456  -0.154  1.00  0.00     0.092 A 
HETATM   20  C5  UNL     1      -2.082   0.480  -0.993  1.00  0.00     0.057 A 
HETATM   21  C6  UNL     1      -3.246   1.117  -0.717  1.00  0.00     0.059 A 
HETATM   22 CL1  UNL     1      -3.973   2.284  -1.831  1.00  0.00    -0.082 Cl
HETATM   23  C7  UNL     1      -3.900   0.862   0.462  1.00  0.00     0.073 A 
HETATM   24 CL2  UNL     1      -5.412   1.652   0.883  1.00  0.00    -0.081 Cl
HETATM   25  C8  UNL     1      -3.298  -0.053   1.298  1.00  0.00     0.148 A 
HETATM   26  N3  UNL     1      -2.125  -0.676   0.989  1.00  0.00    -0.235 N 
BRANCH  26  27
HETATM   27  O2  UNL     1      -1.662  -1.540   1.924  1.00  0.00    -0.283 OA
ATOM     28  H2  UNL     1      -2.138  -1.695   2.732  1.00  0.00     0.245 HD
ENDBRANCH  26  27
ENDBRANCH   1  19
BRANCH   1  29
HETATM   29  C9  UNL     1       0.025  -2.509  -0.396  1.00  0.00     0.431 C 
HETATM   30  F1  UNL     1       0.429  -2.905   0.852  1.00  0.00    -0.167 F 
HETATM   31  F2  UNL     1       1.036  -2.960  -1.265  1.00  0.00    -0.167 F 
HETATM   32  F3  UNL     1      -1.093  -3.256  -0.809  1.00  0.00    -0.167 F 
ENDBRANCH   1  29
TORSDOF 7
