REMARK  6 active torsions:
REMARK  status: ('A' for Active; 'I' for Inactive)
REMARK    1  A    between atoms: C3_4  and  C4_5 
REMARK    2  A    between atoms: C5_11  and  N3_12 
REMARK    3  A    between atoms: C6_17  and  N5_18 
REMARK    4  A    between atoms: N5_18  and  N6_20 
REMARK    5  A    between atoms: N6_20  and  S1_22 
REMARK    6  A    between atoms: S1_22  and  C7_25 
ROOT
HETATM    1  N1  UNL     1      -0.109  -3.352  -0.505  1.00  0.00    -0.191 NA
HETATM    2  C1  UNL     1      -0.540  -2.314  -0.192  1.00  0.00     0.105 C 
HETATM    3  C2  UNL     1      -1.068  -1.042   0.209  1.00  0.00     0.122 A 
HETATM    4  C3  UNL     1      -2.434  -0.921   0.437  1.00  0.00     0.157 A 
HETATM    5  N2  UNL     1      -2.893   0.287   0.812  1.00  0.00    -0.185 N 
ATOM      6  H2  UNL     1      -3.893   0.390   0.983  1.00  0.00     0.184 HD
HETATM    7  C5  UNL     1      -2.110   1.364   0.974  1.00  0.00     0.678 A 
HETATM    8  N4  UNL     1      -0.787   1.219   0.746  1.00  0.00    -0.174 N 
ATOM      9  H4  UNL     1      -0.179   2.029   0.865  1.00  0.00     0.186 HD
HETATM   10  C6  UNL     1      -0.234   0.045   0.366  1.00  0.00     0.159 A 
ENDROOT
BRANCH   4  11
HETATM   11  C4  UNL     1      -3.357  -2.073   0.277  1.00  0.00     0.434 C 
HETATM   12  F1  UNL     1      -3.236  -2.476  -1.059  1.00  0.00    -0.165 F 
HETATM   13  F2  UNL     1      -4.641  -1.607   0.448  1.00  0.00    -0.165 F 
HETATM   14  F3  UNL     1      -3.049  -3.114   1.129  1.00  0.00    -0.165 F 
ENDBRANCH   4  11
BRANCH  10  15
HETATM   15  N5  UNL     1       1.022  -0.107   0.146  1.00  0.00    -0.274 N 
ATOM     16  H5  UNL     1       1.344  -1.033  -0.137  1.00  0.00     0.189 HD
BRANCH  15  17
HETATM   17  N6  UNL     1       1.969   0.891   0.264  1.00  0.00    -0.223 N 
ATOM     18  H6  UNL     1       1.859   1.564   1.022  1.00  0.00     0.200 HD
BRANCH  17  19
HETATM   19  S1  UNL     1       3.327   1.075  -0.786  1.00  0.00     0.275 S 
HETATM   20  O1  UNL     1       2.995   0.657  -2.191  1.00  0.00    -0.202 OA
HETATM   21  O2  UNL     1       3.717   2.525  -0.844  1.00  0.00    -0.202 OA
BRANCH  19  22
HETATM   22  C7  UNL     1       4.734   0.162  -0.169  1.00  0.00     0.321 C 
HETATM   23 CL1  UNL     1       5.186   0.859   1.404  1.00  0.00    -0.089 Cl
HETATM   24 CL2  UNL     1       4.328  -1.552   0.058  1.00  0.00    -0.089 Cl
ENDBRANCH  19  22
ENDBRANCH  17  19
ENDBRANCH  15  17
ENDBRANCH  10  15
BRANCH   7  25
HETATM   25  N3  UNL     1      -2.563   2.526   1.336  1.00  0.00    -0.234 N 
ATOM     26  H32 UNL     1      -3.562   2.636   1.508  1.00  0.00     0.174 HD
ATOM     27  H31 UNL     1      -1.968   3.345   1.459  1.00  0.00     0.174 HD
ENDBRANCH   7  25
TORSDOF 6
