REMARK  7 active torsions:
REMARK  status: ('A' for Active; 'I' for Inactive)
REMARK    1  A    between atoms: C1_4  and  C2_6 
REMARK    2  A    between atoms: N3_10  and  C6_11 
REMARK    3  A    between atoms: C6_11  and  C7_12 
REMARK    4  A    between atoms: C7_12  and  C8_13 
REMARK    5  A    between atoms: C8_13  and  N4_14 
REMARK    6  A    between atoms: C11_17  and  C12_18 
REMARK    7  A    between atoms: N5_19  and  O1_21 
ROOT
HETATM    1  C7  UNL     1      -0.110   1.391   0.467  1.00  0.00     0.040 C 
ENDROOT
BRANCH   1   2
HETATM    2  C6  UNL     1      -0.717   1.002  -0.803  1.00  0.00     0.129 C 
BRANCH   2   3
HETATM    3  N3  UNL     1      -1.794   0.057  -0.790  1.00  0.00    -0.365 N 
HETATM    4  C5  UNL     1      -1.642  -1.248  -0.952  1.00  0.00     0.090 A 
HETATM    5  C4  UNL     1      -2.724  -2.133  -0.908  1.00  0.00     0.018 A 
HETATM    6  C3  UNL     1      -3.999  -1.656  -0.690  1.00  0.00     0.017 A 
HETATM    7  C2  UNL     1      -4.178  -0.302  -0.520  1.00  0.00     0.020 A 
HETATM    8  C15 UNL     1      -3.060   0.506  -0.577  1.00  0.00     0.105 A 
BRANCH   7   9
HETATM    9  C1  UNL     1      -5.490   0.295  -0.285  1.00  0.00     0.121 C 
HETATM   10  N1  UNL     1      -6.537  -0.408  -0.225  1.00  0.00    -0.387 N 
ATOM     11  H12 UNL     1      -7.453   0.009  -0.061  1.00  0.00     0.157 HD
ATOM     12  H11 UNL     1      -6.459  -1.418  -0.345  1.00  0.00     0.157 HD
HETATM   13  N2  UNL     1      -5.599   1.705  -0.117  1.00  0.00    -0.082 NA
ENDBRANCH   7   9
ENDBRANCH   2   3
ENDBRANCH   1   2
BRANCH   1  14
HETATM   14  C8  UNL     1       0.639   0.493   1.341  1.00  0.00     0.129 C 
BRANCH  14  15
HETATM   15  N4  UNL     1       1.871   0.016   0.771  1.00  0.00    -0.366 N 
HETATM   16  C9  UNL     1       2.089  -1.113   0.111  1.00  0.00     0.091 A 
HETATM   17  C10 UNL     1       3.305  -1.462  -0.426  1.00  0.00     0.030 A 
HETATM   18  C11 UNL     1       4.427  -0.628  -0.309  1.00  0.00    -0.016 A 
HETATM   19  C13 UNL     1       4.203   0.538   0.374  1.00  0.00     0.030 A 
HETATM   20  C14 UNL     1       2.965   0.835   0.889  1.00  0.00     0.091 A 
BRANCH  18  21
HETATM   21  C12 UNL     1       5.682  -1.045  -0.893  1.00  0.00     0.125 C 
HETATM   22  N5  UNL     1       6.764  -0.441  -0.887  1.00  0.00    -0.280 N 
ATOM     23  H5  UNL     1       7.523  -0.926  -1.365  1.00  0.00     0.193 HD
BRANCH  22  24
HETATM   24  O1  UNL     1       7.100   0.727  -0.365  1.00  0.00    -0.290 OA
ATOM     25  H1  UNL     1       7.929   1.190  -0.360  1.00  0.00     0.244 HD
ENDBRANCH  22  24
ENDBRANCH  18  21
ENDBRANCH  14  15
ENDBRANCH   1  14
TORSDOF 7
