REMARK  6 active torsions:
REMARK  status: ('A' for Active; 'I' for Inactive)
REMARK    1  A    between atoms: N1_2  and  C2_5 
REMARK    2  A    between atoms: C9_12  and  C10_13 
REMARK    3  A    between atoms: C10_13  and  O1_14 
REMARK    4  A    between atoms: O1_14  and  C11_15 
REMARK    5  A    between atoms: C15_19  and  N2_20 
REMARK    6  A    between atoms: N5_33  and  O2_34 
ROOT
HETATM    1  C11 UNL     1      -0.313   1.041  -0.721  1.00  0.00     0.071 A 
HETATM    2  C12 UNL     1       0.864   0.849  -1.493  1.00  0.00     0.038 A 
HETATM    3  C13 UNL     1       2.088   0.618  -0.933  1.00  0.00     0.020 A 
HETATM    4  C14 UNL     1       2.251   0.559   0.421  1.00  0.00     0.040 A 
HETATM    5  C15 UNL     1       3.302   0.353   1.292  1.00  0.00     0.132 A 
HETATM    6  N4  UNL     1       2.781   0.419   2.524  1.00  0.00    -0.258 N 
ATOM      7  H4  UNL     1       3.327   0.304   3.378  1.00  0.00     0.191 HD
HETATM    8  N5  UNL     1       1.483   0.650   2.509  1.00  0.00    -0.161 N 
HETATM    9  C23 UNL     1       1.128   0.741   1.204  1.00  0.00     0.098 A 
HETATM   10  C24 UNL     1      -0.104   0.974   0.639  1.00  0.00     0.071 A 
ENDROOT
BRANCH   1  11
HETATM   11  O1  UNL     1      -1.450   1.261  -1.356  1.00  0.00    -0.350 OA
BRANCH  11  12
HETATM   12  C10 UNL     1      -2.732   1.469  -1.296  1.00  0.00     0.185 C 
BRANCH  12  13
HETATM   13  C9  UNL     1      -3.728   0.467  -0.797  1.00  0.00    -0.017 C 
HETATM   14  C8  UNL     1      -5.096   1.178  -0.935  1.00  0.00     0.018 C 
HETATM   15  C7  UNL     1      -6.224   0.237  -0.681  1.00  0.00     0.018 C 
HETATM   16  C2  UNL     1      -6.137  -0.266   0.752  1.00  0.00     0.193 C 
HETATM   17  C6  UNL     1      -6.216  -0.981  -1.581  1.00  0.00     0.011 C 
HETATM   18  C3  UNL     1      -4.798  -0.885   0.951  1.00  0.00     0.018 C 
HETATM   19  C4  UNL     1      -4.702  -2.109   0.037  1.00  0.00     0.011 C 
HETATM   20  C26 UNL     1      -3.631   0.018   0.598  1.00  0.00     0.018 C 
HETATM   21  C5  UNL     1      -4.878  -1.661  -1.381  1.00  0.00    -0.013 C 
HETATM   22  C25 UNL     1      -3.806  -0.696  -1.770  1.00  0.00     0.016 C 
BRANCH  16  23
HETATM   23  N1  UNL     1      -6.478   0.745   1.705  1.00  0.00    -0.074 N 
HETATM   24  C1  UNL     1      -7.811   1.239   1.371  1.00  0.00     0.267 C 
ATOM     25  H12 UNL     1      -5.782   1.489   1.760  1.00  0.00     0.277 HD
ATOM     26  H11 UNL     1      -6.406   0.421   2.669  1.00  0.00     0.277 HD
ENDBRANCH  16  23
ENDBRANCH  12  13
ENDBRANCH  11  12
ENDBRANCH   1  11
BRANCH   8  27
HETATM   27  O2  UNL     1       0.634   0.777   3.605  1.00  0.00    -0.267 OA
ATOM     28  H2  UNL     1      -0.301   0.943   3.594  1.00  0.00     0.247 HD
ENDBRANCH   8  27
BRANCH   5  29
HETATM   29  N2  UNL     1       4.668   0.113   0.915  1.00  0.00    -0.365 N 
HETATM   30  C16 UNL     1       5.696  -0.057   1.955  1.00  0.00     0.125 C 
HETATM   31  C17 UNL     1       7.003   0.216   1.235  1.00  0.00     0.032 C 
HETATM   32  C18 UNL     1       6.701  -0.302  -0.129  1.00  0.00     0.003 C 
HETATM   33  C19 UNL     1       7.619   0.260  -1.191  1.00  0.00     0.040 C 
HETATM   34  C21 UNL     1       7.010  -1.780  -0.209  1.00  0.00     0.243 C 
HETATM   35  C22 UNL     1       5.266  -0.002  -0.373  1.00  0.00     0.135 C 
HETATM   36  C20 UNL     1       8.841  -0.640  -1.075  1.00  0.00     0.233 C 
HETATM   37  N3  UNL     1       8.451  -1.790  -0.319  1.00  0.00    -0.074 N 
ATOM     38  H32 UNL     1       8.812  -2.661  -0.709  1.00  0.00     0.277 HD
ATOM     39  H31 UNL     1       8.916  -1.844   0.587  1.00  0.00     0.277 HD
ENDBRANCH   5  29
TORSDOF 6
