REMARK  12 active torsions:
REMARK  status: ('A' for Active; 'I' for Inactive)
REMARK    1  A    between atoms: N2_6  and  C3_7 
REMARK    2  A    between atoms: C3_7  and  C4_8 
REMARK    3  A    between atoms: C5_9  and  N3_10 
REMARK    4  A    between atoms: N3_10  and  N4_12 
REMARK    5  A    between atoms: N4_12  and  N5_14 
REMARK    6  A    between atoms: C6_19  and  N7_20 
REMARK    7  A    between atoms: N9_25  and  C7_26 
REMARK    8  A    between atoms: C7_26  and  C8_27 
REMARK    9  A    between atoms: C9_28  and  C10_29 
REMARK   10  A    between atoms: C10_29  and  C11_30 
REMARK   11  A    between atoms: C11_30  and  C12_31 
REMARK   12  A    between atoms: C12_31  and  N10_32 
ROOT
HETATM    1  C4  UNL     1      -2.120  -1.137   1.147  1.00  0.00     0.115 A 
HETATM    2  C5  UNL     1      -2.626  -2.274   0.594  1.00  0.00     0.166 A 
HETATM    3  N6  UNL     1      -2.687  -3.429   1.322  1.00  0.00    -0.172 N 
ATOM      4  H6  UNL     1      -3.076  -4.270   0.895  1.00  0.00     0.186 HD
HETATM    5  C6  UNL     1      -2.246  -3.478   2.583  1.00  0.00     0.692 A 
HETATM    6  N8  UNL     1      -1.740  -2.357   3.107  1.00  0.00    -0.129 N 
ATOM      7  H8  UNL     1      -1.399  -2.394   4.068  1.00  0.00     0.206 HD
HETATM    8  N9  UNL     1      -1.652  -1.216   2.473  1.00  0.00    -0.270 N 
ENDROOT
BRANCH   8   9
HETATM    9  C7  UNL     1      -0.992  -0.082   3.048  1.00  0.00     0.177 C 
BRANCH   9  10
HETATM   10  C8  UNL     1       0.470  -0.155   3.136  1.00  0.00    -0.009 C 
HETATM   11  C9  UNL     1       1.405  -0.303   2.049  1.00  0.00    -0.029 C 
BRANCH  11  12
HETATM   12  C10 UNL     1       1.600   0.713   1.000  1.00  0.00     0.028 C 
BRANCH  12  13
HETATM   13  C11 UNL     1       2.701   0.143   0.074  1.00  0.00     0.024 C 
BRANCH  13  14
HETATM   14  C12 UNL     1       2.983   1.112  -1.048  1.00  0.00     0.130 C 
BRANCH  14  15
HETATM   15  N10 UNL     1       4.014   0.580  -1.916  1.00  0.00    -0.341 N 
HETATM   16  C13 UNL     1       3.897  -0.192  -3.008  1.00  0.00     0.183 A 
HETATM   17  N11 UNL     1       5.130  -0.455  -3.514  1.00  0.00    -0.350 N 
HETATM   18  C14 UNL     1       6.044   0.149  -2.747  1.00  0.00     0.060 A 
ATOM     19  H11 UNL     1       5.326  -1.019  -4.341  1.00  0.00     0.166 HD
HETATM   20  C15 UNL     1       7.433   0.209  -2.807  1.00  0.00     0.032 A 
HETATM   21  C19 UNL     1       5.339   0.792  -1.753  1.00  0.00     0.062 A 
HETATM   22  C16 UNL     1       8.136   0.926  -1.856  1.00  0.00     0.002 A 
HETATM   23  C17 UNL     1       7.423   1.563  -0.869  1.00  0.00     0.002 A 
HETATM   24  C18 UNL     1       6.054   1.501  -0.814  1.00  0.00     0.032 A 
ENDBRANCH  14  15
ENDBRANCH  13  14
ENDBRANCH  12  13
ENDBRANCH  11  12
ENDBRANCH   9  10
ENDBRANCH   8   9
BRANCH   1  25
HETATM   25  C3  UNL     1      -2.366   0.174   0.676  1.00  0.00     0.161 C 
BRANCH  25  26
HETATM   26  N2  UNL     1      -3.140   0.981   0.099  1.00  0.00    -0.204 N 
HETATM   27  O1  UNL     1      -2.741   2.327  -0.131  1.00  0.00    -0.149 OA
HETATM   28  N1  UNL     1      -3.684   3.121  -0.593  1.00  0.00    -0.240 N 
HETATM   29  C2  UNL     1      -4.899   2.340  -0.731  1.00  0.00     0.076 A 
ATOM     30  H1  UNL     1      -3.579   4.111  -0.815  1.00  0.00     0.197 HD
HETATM   31  C1  UNL     1      -6.024   2.862  -1.189  1.00  0.00     0.047 C 
HETATM   32  C20 UNL     1      -4.514   1.012  -0.282  1.00  0.00     0.088 A 
HETATM   33  C21 UNL     1      -5.402   0.044  -0.154  1.00  0.00     0.003 C 
HETATM   34  C22 UNL     1      -6.850   0.097  -0.418  1.00  0.00     0.038 C 
ENDBRANCH  25  26
ENDBRANCH   1  25
BRANCH   2  35
HETATM   35  N3  UNL     1      -2.817  -2.455  -0.688  1.00  0.00    -0.269 N 
ATOM     36  H3  UNL     1      -3.211  -3.360  -0.944  1.00  0.00     0.190 HD
BRANCH  35  37
HETATM   37  N4  UNL     1      -2.573  -1.633  -1.709  1.00  0.00    -0.248 N 
ATOM     38  H4  UNL     1      -3.349  -1.179  -2.190  1.00  0.00     0.207 HD
BRANCH  37  39
HETATM   39  N5  UNL     1      -1.364  -1.408  -2.092  1.00  0.00    -0.331 N 
ATOM     40  H52 UNL     1      -0.599  -1.870  -1.600  1.00  0.00     0.178 HD
ATOM     41  H51 UNL     1      -1.177  -0.779  -2.873  1.00  0.00     0.178 HD
ENDBRANCH  37  39
ENDBRANCH  35  37
ENDBRANCH   2  35
BRANCH   5  42
HETATM   42  N7  UNL     1      -2.288  -4.551   3.307  1.00  0.00    -0.233 N 
ATOM     43  H72 UNL     1      -2.674  -5.406   2.907  1.00  0.00     0.174 HD
ATOM     44  H71 UNL     1      -1.952  -4.588   4.269  1.00  0.00     0.174 HD
ENDBRANCH   5  42
TORSDOF 12
