REMARK  14 active torsions:
REMARK  status: ('A' for Active; 'I' for Inactive)
REMARK    1  A    between atoms: C6_7  and  C7_8 
REMARK    2  A    between atoms: C7_8  and  C8_9 
REMARK    3  A    between atoms: C8_9  and  C9_10 
REMARK    4  A    between atoms: C9_10  and  C10_11 
REMARK    5  A    between atoms: C10_11  and  N2_12 
REMARK    6  A    between atoms: C13_15  and  C14_16 
REMARK    7  A    between atoms: C15_17  and  C16_18 
REMARK    8  A    between atoms: C16_18  and  C17_19 
REMARK    9  A    between atoms: C17_19  and  C18_20 
REMARK   10  A    between atoms: C18_20  and  C19_21 
REMARK   11  A    between atoms: C19_21  and  N3_22 
REMARK   12  A    between atoms: C21_24  and  O1_25 
REMARK   13  A    between atoms: C23_31  and  N6_32 
REMARK   14  A    between atoms: C24_35  and  N7_36 
REMARK       I    between atoms: N7_36  and  C25_38 
ROOT
HETATM    1  N2  UNL     1      -1.968   1.596   0.626  1.00  0.00    -0.302 N 
HETATM    2  C11 UNL     1      -1.701   2.606  -0.180  1.00  0.00     0.111 A 
HETATM    3  C12 UNL     1      -1.004   2.530  -1.361  1.00  0.00     0.034 A 
HETATM    4  C13 UNL     1      -0.533   1.286  -1.752  1.00  0.00     0.010 A 
HETATM    5  C24 UNL     1      -0.820   0.216  -0.895  1.00  0.00     0.132 A 
HETATM    6  N10 UNL     1      -1.511   0.394   0.243  1.00  0.00    -0.283 N 
ATOM      7  H10 UNL     1      -1.695  -0.414   0.838  1.00  0.00     0.189 HD
ENDROOT
BRANCH   4   8
HETATM    8  C14 UNL     1       0.248   1.101  -2.941  1.00  0.00     0.011 C 
HETATM    9  C15 UNL     1       1.677   1.303  -3.054  1.00  0.00    -0.026 C 
BRANCH   9  10
HETATM   10  C16 UNL     1       2.729   0.664  -2.253  1.00  0.00     0.027 C 
BRANCH  10  11
HETATM   11  C17 UNL     1       2.749   1.069  -0.839  1.00  0.00     0.005 C 
BRANCH  11  12
HETATM   12  C18 UNL     1       3.866   0.448  -0.011  1.00  0.00     0.021 C 
BRANCH  12  13
HETATM   13  C19 UNL     1       5.203   0.833  -0.560  1.00  0.00     0.147 C 
BRANCH  13  14
HETATM   14  N3  UNL     1       6.320   0.316   0.186  1.00  0.00    -0.188 N 
HETATM   15  C20 UNL     1       6.902  -0.868  -0.065  1.00  0.00     0.166 A 
HETATM   16  C21 UNL     1       7.990  -1.278   0.721  1.00  0.00     0.173 A 
HETATM   17  N4  UNL     1       8.480  -0.538   1.720  1.00  0.00    -0.260 N 
HETATM   18  C22 UNL     1       9.619  -0.963   2.542  1.00  0.00     0.181 C 
HETATM   19  N5  UNL     1       7.890   0.629   1.951  1.00  0.00    -0.128 N 
HETATM   20  C23 UNL     1       6.842   1.041   1.207  1.00  0.00     0.692 A 
ATOM     21  H5  UNL     1       8.235   1.224   2.704  1.00  0.00     0.206 HD
BRANCH  16  22
HETATM   22  O1  UNL     1       8.581  -2.503   0.448  1.00  0.00    -0.344 OA
ATOM     23  H1  UNL     1       9.317  -2.781   0.980  1.00  0.00     0.219 HD
ENDBRANCH  16  22
BRANCH  20  24
HETATM   24  N6  UNL     1       6.282   2.177   1.444  1.00  0.00    -0.233 N 
ATOM     25  H62 UNL     1       5.490   2.488   0.882  1.00  0.00     0.174 HD
ATOM     26  H61 UNL     1       6.674   2.722   2.212  1.00  0.00     0.174 HD
ENDBRANCH  20  24
ENDBRANCH  13  14
ENDBRANCH  12  13
ENDBRANCH  11  12
ENDBRANCH  10  11
ENDBRANCH   9  10
ENDBRANCH   4   8
BRANCH   5  27
HETATM   27  N7  UNL     1      -0.399  -0.965  -1.254  1.00  0.00    -0.315 N 
HETATM   28  C25 UNL     1      -0.682  -2.057  -0.400  1.00  0.00     0.187 C 
HETATM   29  N8  UNL     1      -1.854  -2.648  -0.392  1.00  0.00    -0.373 N 
HETATM   30  N9  UNL     1       0.312  -2.551   0.472  1.00  0.00    -0.064 NA
ATOM     31  H82 UNL     1      -2.572  -2.291  -1.022  1.00  0.00     0.158 HD
ATOM     32  H81 UNL     1      -2.058  -3.435   0.224  1.00  0.00     0.158 HD
ATOM     33  H7  UNL     1       0.118  -1.097  -2.123  1.00  0.00     0.170 HD
ENDBRANCH   5  27
BRANCH   1  34
HETATM   34  C10 UNL     1      -2.673   1.666   1.870  1.00  0.00     0.148 C 
BRANCH  34  35
HETATM   35  C9  UNL     1      -4.148   1.517   1.794  1.00  0.00     0.022 C 
BRANCH  35  36
HETATM   36  C8  UNL     1      -4.635   0.222   1.198  1.00  0.00     0.008 C 
BRANCH  36  37
HETATM   37  C7  UNL     1      -6.147   0.168   1.171  1.00  0.00     0.057 C 
BRANCH  37  38
HETATM   38  C6  UNL     1      -6.709  -1.037   0.586  1.00  0.00     0.010 A 
HETATM   39  N1  UNL     1      -6.991  -1.045  -0.749  1.00  0.00    -0.364 N 
HETATM   40  C1  UNL     1      -6.737   0.126  -1.532  1.00  0.00     0.155 C 
HETATM   41  C2  UNL     1      -7.520  -2.128  -1.365  1.00  0.00     0.090 A 
HETATM   42  C3  UNL     1      -7.798  -3.275  -0.658  1.00  0.00     0.017 A 
HETATM   43  C4  UNL     1      -7.532  -3.308   0.682  1.00  0.00     0.003 A 
HETATM   44  C5  UNL     1      -6.988  -2.184   1.292  1.00  0.00     0.025 A 
ENDBRANCH  37  38
ENDBRANCH  36  37
ENDBRANCH  35  36
ENDBRANCH  34  35
ENDBRANCH   1  34
TORSDOF 14
