REMARK  11 active torsions:
REMARK  status: ('A' for Active; 'I' for Inactive)
REMARK    1  A    between atoms: C3_3  and  C4_4 
REMARK    2  A    between atoms: C4_4  and  N9_38 
REMARK    3  A    between atoms: N1_5  and  C5_7 
REMARK    4  A    between atoms: C5_7  and  C6_8 
REMARK    5  A    between atoms: C6_8  and  N2_9 
REMARK    6  A    between atoms: N3_12  and  N4_14 
REMARK    7  A    between atoms: C9_21  and  C10_22 
REMARK    8  A    between atoms: C10_22  and  N7_23 
REMARK       I    between atoms: N7_23  and  C11_25 
REMARK    9  A    between atoms: C11_25  and  C12_27 
REMARK   10  A    between atoms: C13_28  and  C14_29 
REMARK   11  A    between atoms: N8_33  and  C18_34 
ROOT
HETATM    1  C1  UNL     1      -2.910   1.700   3.532  1.00  0.00     0.012 C 
HETATM    2  C2  UNL     1      -3.859   1.748   2.777  1.00  0.00    -0.110 C 
HETATM    3  C3  UNL     1      -4.980   1.797   1.857  1.00  0.00     0.168 C 
ENDROOT
BRANCH   3   4
HETATM    4  C4  UNL     1      -4.596   1.448   0.467  1.00  0.00     0.083 C 
HETATM    5  N1  UNL     1      -3.397   1.142   0.216  1.00  0.00    -0.378 N 
ATOM      6  H1  UNL     1      -2.759   1.156   1.011  1.00  0.00     0.160 HD
BRANCH   5   7
HETATM    7  C5  UNL     1      -2.821   0.779  -1.036  1.00  0.00     0.149 C 
BRANCH   7   8
HETATM    8  C6  UNL     1      -1.665  -0.172  -0.916  1.00  0.00     0.269 C 
BRANCH   8   9
HETATM    9  N2  UNL     1      -1.962  -1.416  -0.287  1.00  0.00     0.015 N 
HETATM   10  C7  UNL     1      -1.792  -1.386   1.175  1.00  0.00     0.286 C 
HETATM   11  C8  UNL     1      -3.095  -2.136  -0.701  1.00  0.00     0.299 C 
HETATM   12  N3  UNL     1      -4.249  -1.957  -1.154  1.00  0.00    -0.251 N 
HETATM   13  N6  UNL     1      -2.378  -3.303  -0.377  1.00  0.00    -0.325 N 
ATOM     14  H3  UNL     1      -4.541  -0.991  -1.301  1.00  0.00     0.191 HD
HETATM   15  C9  UNL     1      -1.199  -2.548  -0.777  1.00  0.00     0.318 C 
ATOM     16  H6  UNL     1      -2.586  -4.238  -0.027  1.00  0.00     0.164 HD
BRANCH  12  17
HETATM   17  N4  UNL     1      -5.169  -2.944  -1.475  1.00  0.00    -0.247 N 
HETATM   18  N5  UNL     1      -5.641  -2.997  -2.630  1.00  0.00    -0.331 N 
ATOM     19  H52 UNL     1      -5.341  -2.310  -3.322  1.00  0.00     0.178 HD
ATOM     20  H51 UNL     1      -6.318  -3.723  -2.866  1.00  0.00     0.178 HD
ATOM     21  H4  UNL     1      -5.459  -3.623  -0.771  1.00  0.00     0.207 HD
ENDBRANCH  12  17
BRANCH  15  22
HETATM   22  C10 UNL     1       0.071  -2.925  -0.177  1.00  0.00     0.178 C 
BRANCH  22  23
HETATM   23  N7  UNL     1       1.065  -1.883  -0.278  1.00  0.00    -0.354 N 
HETATM   24  C11 UNL     1       2.376  -2.047   0.269  1.00  0.00     0.241 C 
HETATM   25  O1  UNL     1       2.645  -3.129   0.843  1.00  0.00    -0.269 OA
ATOM     26  H7  UNL     1       0.827  -1.011  -0.750  1.00  0.00     0.162 HD
BRANCH  24  27
HETATM   27  C12 UNL     1       3.416  -1.034   0.198  1.00  0.00     0.075 C 
HETATM   28  C13 UNL     1       3.281   0.134  -0.365  1.00  0.00     0.018 C 
BRANCH  28  29
HETATM   29  C14 UNL     1       4.320   1.127  -0.427  1.00  0.00    -0.020 A 
HETATM   30  C15 UNL     1       4.001   2.327  -1.070  1.00  0.00     0.014 A 
HETATM   31  C16 UNL     1       4.969   3.294  -1.146  1.00  0.00     0.018 A 
HETATM   32  C17 UNL     1       6.223   3.115  -0.614  1.00  0.00     0.091 A 
HETATM   33  N8  UNL     1       6.521   1.963  -0.000  1.00  0.00    -0.355 N 
HETATM   34  C21 UNL     1       5.578   0.992   0.086  1.00  0.00     0.102 A 
BRANCH  33  35
HETATM   35  C18 UNL     1       7.822   1.705   0.583  1.00  0.00     0.220 C 
HETATM   36  C19 UNL     1       8.705   1.096  -0.394  1.00  0.00    -0.097 C 
HETATM   37  C20 UNL     1       9.447   0.576  -1.197  1.00  0.00     0.014 C 
ENDBRANCH  33  35
ENDBRANCH  28  29
ENDBRANCH  24  27
ENDBRANCH  22  23
ENDBRANCH  15  22
ENDBRANCH   8   9
ENDBRANCH   7   8
ENDBRANCH   5   7
BRANCH   4  38
HETATM   38  N9  UNL     1      -5.598   1.470  -0.537  1.00  0.00    -0.384 N 
HETATM   39  C22 UNL     1      -6.886   0.827  -0.373  1.00  0.00     0.147 C 
ATOM     40  H9  UNL     1      -5.404   1.959  -1.411  1.00  0.00     0.160 HD
ENDBRANCH   4  38
ENDBRANCH   3   4
TORSDOF 11
