REMARK  11 active torsions:
REMARK  status: ('A' for Active; 'I' for Inactive)
REMARK    1  A    between atoms: N1_2  and  C3_4 
REMARK    2  A    between atoms: N1_2  and  C20_24 
REMARK    3  A    between atoms: C3_4  and  C4_5 
REMARK    4  A    between atoms: C4_5  and  C5_6 
REMARK    5  A    between atoms: N2_9  and  C8_10 
REMARK    6  A    between atoms: C8_10  and  C9_11 
REMARK    7  A    between atoms: C9_11  and  O1_12 
REMARK    8  A    between atoms: C10_14  and  C11_15 
REMARK    9  A    between atoms: C11_15  and  C12_16 
REMARK   10  A    between atoms: C12_16  and  C13_17 
REMARK   11  A    between atoms: C20_24  and  C21_25 
REMARK       I    between atoms: C21_25  and  N3_27 
ROOT
HETATM    1  C3  UNL     1      -1.574  -0.760   0.104  1.00  0.00     0.241 C 
ENDROOT
BRANCH   1   2
HETATM    2  N1  UNL     1      -2.879  -0.329  -0.452  1.00  0.00    -0.066 N 
HETATM    3  C1  UNL     1      -3.443   0.654   0.462  1.00  0.00     0.272 C 
HETATM    4  C2  UNL     1      -2.693   0.273  -1.744  1.00  0.00     0.272 C 
BRANCH   2   5
HETATM    5  C20 UNL     1      -3.697  -1.494  -0.443  1.00  0.00     0.339 C 
BRANCH   5   6
HETATM    6  C21 UNL     1      -5.108  -1.353  -0.773  1.00  0.00     0.249 C 
HETATM    7  O2  UNL     1      -5.771  -2.470  -0.747  1.00  0.00    -0.271 OA
HETATM    8  N3  UNL     1      -5.850  -0.235  -1.107  1.00  0.00    -0.306 N 
HETATM    9  C22 UNL     1      -6.787   0.369  -0.514  1.00  0.00     0.192 A 
ATOM     10  H3  UNL     1      -5.591   0.181  -2.002  1.00  0.00     0.170 HD
HETATM   11  N4  UNL     1      -7.289   1.464  -1.167  1.00  0.00    -0.277 N 
HETATM   12  C24 UNL     1      -7.342   0.064   0.688  1.00  0.00     0.295 A 
HETATM   13  N5  UNL     1      -8.258   2.212  -0.697  1.00  0.00    -0.250 N 
ATOM     14  H4  UNL     1      -6.886   1.711  -2.071  1.00  0.00     0.189 HD
HETATM   15  C23 UNL     1      -8.791   1.889   0.494  1.00  0.00     0.341 A 
ATOM     16  H5  UNL     1      -8.598   3.018  -1.221  1.00  0.00     0.192 HD
HETATM   17  O3  UNL     1      -9.716   2.599   0.948  1.00  0.00    -0.245 OA
HETATM   18  N6  UNL     1      -8.348   0.829   1.190  1.00  0.00    -0.271 N 
ATOM     19  H6  UNL     1      -8.765   0.599   2.092  1.00  0.00     0.174 HD
HETATM   20  O4  UNL     1      -6.922  -0.926   1.331  1.00  0.00    -0.264 OA
ENDBRANCH   5   6
ENDBRANCH   2   5
ENDBRANCH   1   2
BRANCH   1  21
HETATM   21  C4  UNL     1      -0.564   0.280  -0.277  1.00  0.00     0.066 C 
BRANCH  21  22
HETATM   22  C5  UNL     1       0.791  -0.038   0.235  1.00  0.00    -0.053 A 
HETATM   23  C6  UNL     1       1.136   0.441   1.491  1.00  0.00     0.024 A 
HETATM   24  C7  UNL     1       2.385   0.156   1.981  1.00  0.00     0.091 A 
HETATM   25  N2  UNL     1       3.294  -0.569   1.296  1.00  0.00    -0.358 N 
HETATM   26  C10 UNL     1       3.011  -1.045   0.091  1.00  0.00     0.012 A 
HETATM   27  C19 UNL     1       1.737  -0.768  -0.433  1.00  0.00     0.032 A 
BRANCH  25  28
HETATM   28  C8  UNL     1       4.559  -0.887   1.932  1.00  0.00     0.154 C 
BRANCH  28  29
HETATM   29  C9  UNL     1       4.417  -2.146   2.791  1.00  0.00     0.184 C 
BRANCH  29  30
HETATM   30  O1  UNL     1       5.665  -2.383   3.365  1.00  0.00    -0.399 OA
ATOM     31  H1  UNL     1       5.577  -3.164   3.898  1.00  0.00     0.209 HD
ENDBRANCH  29  30
ENDBRANCH  28  29
ENDBRANCH  25  28
BRANCH  26  32
HETATM   32  C11 UNL     1       3.938  -1.782  -0.804  1.00  0.00     0.062 C 
BRANCH  32  33
HETATM   33  C12 UNL     1       4.532  -0.946  -1.900  1.00  0.00     0.044 C 
BRANCH  33  34
HETATM   34  C13 UNL     1       5.320   0.214  -1.467  1.00  0.00    -0.058 A 
HETATM   35  C14 UNL     1       4.736   1.440  -1.229  1.00  0.00     0.007 A 
HETATM   36  C15 UNL     1       5.488   2.542  -0.833  1.00  0.00     0.001 A 
HETATM   37  C16 UNL     1       6.855   2.445  -0.663  1.00  0.00     0.000 A 
HETATM   38  C17 UNL     1       7.442   1.226  -0.899  1.00  0.00     0.001 A 
HETATM   39  C18 UNL     1       6.703   0.136  -1.290  1.00  0.00     0.007 A 
ENDBRANCH  33  34
ENDBRANCH  32  33
ENDBRANCH  26  32
ENDBRANCH  21  22
ENDBRANCH   1  21
TORSDOF 11
