REMARK  6 active torsions:
REMARK  status: ('A' for Active; 'I' for Inactive)
REMARK    1  A    between atoms: C2_2  and  O2_4 
REMARK    2  A    between atoms: O2_4  and  C3_5 
REMARK    3  A    between atoms: C8_12  and  C9_13 
REMARK    4  A    between atoms: C12_16  and  O5_17 
REMARK    5  A    between atoms: O5_17  and  C13_18 
REMARK    6  A    between atoms: C15_21  and  O7_22 
ROOT
HETATM    1  C3  UNL     1       2.163   0.463  -0.221  1.00  0.00     0.134 C 
HETATM    2  C4  UNL     1       2.520   0.441  -1.690  1.00  0.00     0.033 C 
HETATM    3  C5  UNL     1       1.403   0.072  -2.599  1.00  0.00     0.012 C 
HETATM    4  C6  UNL     1       0.983  -1.376  -2.423  1.00  0.00     0.111 C 
HETATM    5  C7  UNL     1      -0.511  -1.387  -2.503  1.00  0.00     0.259 C 
HETATM    6  O3  UNL     1      -0.943  -2.186  -3.411  1.00  0.00    -0.265 OA
HETATM    7  O4  UNL     1      -1.205  -0.625  -1.688  1.00  0.00    -0.313 OA
HETATM    8  C8  UNL     1      -1.931  -0.536  -0.556  1.00  0.00     0.167 C 
HETATM    9  C12 UNL     1      -1.460   0.412   0.498  1.00  0.00     0.190 C 
HETATM   10  C15 UNL     1      -0.032   0.441   0.893  1.00  0.00     0.152 C 
HETATM   11  C16 UNL     1       0.916   1.208   0.084  1.00  0.00     0.067 C 
ENDROOT
BRANCH   1  12
HETATM   12  O2  UNL     1       3.294   0.952   0.477  1.00  0.00    -0.316 OA
BRANCH  12  13
HETATM   13  C2  UNL     1       4.060   0.199   1.306  1.00  0.00     0.255 C 
HETATM   14  C1  UNL     1       5.254   0.738   2.040  1.00  0.00     0.126 C 
HETATM   15  O1  UNL     1       3.791  -0.991   1.490  1.00  0.00    -0.266 OA
ENDBRANCH  12  13
ENDBRANCH   1  12
BRANCH  10  16
HETATM   16  O7  UNL     1       0.451  -0.836   1.137  1.00  0.00    -0.393 OA
ATOM     17  H7  UNL     1       1.366  -0.817   1.390  1.00  0.00     0.210 HD
ENDBRANCH  10  16
BRANCH   9  18
HETATM   18  O5  UNL     1      -1.822   1.745   0.171  1.00  0.00    -0.311 OA
BRANCH  18  19
HETATM   19  C13 UNL     1      -2.708   2.469   0.927  1.00  0.00     0.255 C 
HETATM   20  C14 UNL     1      -3.057   3.852   0.547  1.00  0.00     0.126 C 
HETATM   21  O6  UNL     1      -3.223   1.966   1.938  1.00  0.00    -0.266 OA
ENDBRANCH  18  19
ENDBRANCH   9  18
BRANCH   8  22
HETATM   22  C9  UNL     1      -2.521  -1.821  -0.054  1.00  0.00     0.010 C 
HETATM   23  C10 UNL     1      -3.340  -1.599   1.225  1.00  0.00     0.012 C 
HETATM   24  C11 UNL     1      -1.609  -2.942   0.233  1.00  0.00     0.012 C 
ENDBRANCH   8  22
TORSDOF 6
