REMARK  4 active torsions:
REMARK  status: ('A' for Active; 'I' for Inactive)
REMARK    1  A    between atoms: N2_5  and  C4_6 
REMARK    2  A    between atoms: C8_17  and  C9_18 
REMARK    3  A    between atoms: C9_18  and  C10_19 
REMARK    4  A    between atoms: C10_19  and  C11_20 
ROOT
HETATM    1  C4  UNL     1       1.978  -0.278  -0.134  1.00  0.00     0.682 A 
HETATM    2  N3  UNL     1       1.306  -0.534   1.036  1.00  0.00    -0.195 N 
ATOM      3  H3  UNL     1       1.836  -0.680   1.895  1.00  0.00     0.184 HD
HETATM    4  C5  UNL     1       0.001  -0.594   1.070  1.00  0.00     0.040 A 
HETATM    5  C6  UNL     1      -0.749  -0.395  -0.110  1.00  0.00     0.042 A 
HETATM    6  C7  UNL     1      -0.113  -0.140  -1.282  1.00  0.00     0.125 A 
HETATM    7  N4  UNL     1      -0.680   0.067  -2.414  1.00  0.00    -0.385 N 
ATOM      8  H41 UNL     1      -0.202   0.259  -3.295  1.00  0.00     0.157 HD
ATOM      9  H42 UNL     1      -1.699   0.031  -2.445  1.00  0.00     0.157 HD
HETATM   10  N5  UNL     1       1.259  -0.091  -1.240  1.00  0.00    -0.176 N 
ATOM     11  H5  UNL     1       1.758   0.100  -2.109  1.00  0.00     0.186 HD
HETATM   12  C8  UNL     1      -2.203  -0.502   0.108  1.00  0.00     0.261 C 
HETATM   13  N6  UNL     1      -2.320  -1.833   0.568  1.00  0.00     0.093 N 
HETATM   14  C14 UNL     1      -3.526  -2.542   0.515  1.00  0.00     0.310 C 
HETATM   15  C15 UNL     1      -1.800  -1.930   1.914  1.00  0.00     0.279 C 
HETATM   16  C16 UNL     1      -0.822  -0.852   2.284  1.00  0.00     0.088 C 
ENDROOT
BRANCH   1  17
HETATM   17  N2  UNL     1       3.392  -0.220  -0.131  1.00  0.00    -0.214 N 
HETATM   18  C3  UNL     1       4.214   0.032  -1.269  1.00  0.00     0.171 C 
HETATM   19  C2  UNL     1       4.908   1.363  -1.024  1.00  0.00     0.292 C 
HETATM   20  N1  UNL     1       5.538   1.335   0.265  1.00  0.00     0.087 N 
HETATM   21  C1  UNL     1       6.880   1.850   0.124  1.00  0.00     0.310 C 
HETATM   22  C18 UNL     1       5.541   0.027   0.881  1.00  0.00     0.292 C 
HETATM   23  C17 UNL     1       4.124  -0.431   1.130  1.00  0.00     0.171 C 
ENDBRANCH   1  17
BRANCH  12  24
HETATM   24  C9  UNL     1      -2.975   0.053  -0.945  1.00  0.00     0.041 C 
BRANCH  24  25
HETATM   25  C10 UNL     1      -4.490   0.083  -0.846  1.00  0.00     0.007 C 
BRANCH  25  26
HETATM   26  C11 UNL     1      -4.963   0.892   0.346  1.00  0.00    -0.014 A 
HETATM   27  C12 UNL     1      -6.428   1.015   0.574  1.00  0.00     0.005 A 
HETATM   28  C13 UNL     1      -5.653   2.193   0.180  1.00  0.00     0.005 A 
ENDBRANCH  25  26
ENDBRANCH  24  25
ENDBRANCH  12  24
TORSDOF 4
