REMARK  5 active torsions:
REMARK  status: ('A' for Active; 'I' for Inactive)
REMARK    1  A    between atoms: C1_2  and  C2_4 
REMARK    2  A    between atoms: C4_8  and  N3_9 
REMARK    3  A    between atoms: N3_9  and  N4_11 
REMARK    4  A    between atoms: C5_13  and  C6_14 
REMARK    5  A    between atoms: N5_18  and  O2_19 
ROOT
HETATM    1  N3  UNL     1       0.230   0.064   2.204  1.00  0.00    -0.132 N 
ATOM      2  H3  UNL     1       0.233  -0.136   3.204  1.00  0.00     0.205 HD
ENDROOT
BRANCH   1   3
HETATM    3  C4  UNL     1       1.357   0.199   1.566  1.00  0.00     0.696 A 
HETATM    4  N2  UNL     1       2.540   0.079   2.208  1.00  0.00    -0.199 N 
HETATM    5  C3  UNL     1       3.709   0.215   1.566  1.00  0.00     0.124 A 
ATOM      6  H2  UNL     1       2.544  -0.120   3.208  1.00  0.00     0.183 HD
HETATM    7  C2  UNL     1       3.706   0.485   0.220  1.00  0.00     0.061 A 
HETATM    8  C11 UNL     1       2.527   0.613  -0.459  1.00  0.00     0.124 A 
HETATM    9  N6  UNL     1       1.368   0.464   0.249  1.00  0.00    -0.199 N 
ATOM     10  H6  UNL     1       0.478   0.557  -0.241  1.00  0.00     0.183 HD
BRANCH   7  11
HETATM   11  C1  UNL     1       4.966   0.634  -0.479  1.00  0.00     0.267 C 
HETATM   12  N1  UNL     1       4.963   0.911  -1.864  1.00  0.00    -0.057 NA
HETATM   13  O1  UNL     1       6.058   0.520   0.125  1.00  0.00    -0.271 OA
ENDBRANCH   7  11
ENDBRANCH   1   3
BRANCH   1  14
HETATM   14  N4  UNL     1      -0.978   0.192   1.526  1.00  0.00    -0.297 N 
HETATM   15  C5  UNL     1      -1.490  -0.840   0.957  1.00  0.00     0.120 C 
ATOM     16  H4  UNL     1      -1.452   1.094   1.481  1.00  0.00     0.186 HD
BRANCH  15  17
HETATM   17  C6  UNL     1      -2.756  -0.686   0.251  1.00  0.00    -0.001 A 
HETATM   18  C7  UNL     1      -3.335  -1.789  -0.376  1.00  0.00     0.016 A 
HETATM   19  C8  UNL     1      -4.525  -1.603  -1.029  1.00  0.00     0.021 A 
HETATM   20  C9  UNL     1      -5.093  -0.352  -1.039  1.00  0.00     0.122 A 
HETATM   21  N5  UNL     1      -4.518   0.694  -0.430  1.00  0.00    -0.246 N 
HETATM   22  C10 UNL     1      -3.360   0.552   0.216  1.00  0.00     0.135 A 
BRANCH  21  23
HETATM   23  O2  UNL     1      -5.099   1.956  -0.445  1.00  0.00    -0.284 OA
ATOM     24  H2  UNL     1      -4.691   2.698  -0.013  1.00  0.00     0.245 HD
ENDBRANCH  21  23
ENDBRANCH  15  17
ENDBRANCH   1  14
TORSDOF 5
