REMARK  3 active torsions:
REMARK  status: ('A' for Active; 'I' for Inactive)
REMARK    1  A    between atoms: N3_12  and  C6_13 
REMARK    2  A    between atoms: C6_13  and  C7_14 
REMARK    3  A    between atoms: C7_14  and  N4_15 
ROOT
HETATM    1  O1  UNL     1       3.786  -0.787   2.138  1.00  0.00    -0.271 OA
HETATM    2  C1  UNL     1       4.068  -0.262   1.029  1.00  0.00     0.255 C 
HETATM    3  N1  UNL     1       5.208   0.515   0.679  1.00  0.00    -0.336 N 
ATOM      4  H1  UNL     1       5.905   0.859   1.340  1.00  0.00     0.164 HD
HETATM    5  C2  UNL     1       5.236   0.746  -0.748  1.00  0.00     0.358 C 
HETATM    6  N2  UNL     1       4.319  -0.265  -1.233  1.00  0.00    -0.042 N 
ATOM      7  H21 UNL     1       4.760  -1.166  -1.419  1.00  0.00     0.280 HD
ATOM      8  H22 UNL     1       3.987  -0.098  -2.183  1.00  0.00     0.280 HD
HETATM    9  C3  UNL     1       3.250  -0.325  -0.235  1.00  0.00     0.210 C 
HETATM   10  C4  UNL     1       2.582  -1.637  -0.346  1.00  0.00     0.079 C 
HETATM   11  C5  UNL     1       1.154  -1.676   0.068  1.00  0.00     0.275 C 
HETATM   12  N3  UNL     1       0.381  -0.531  -0.255  1.00  0.00     0.090 N 
HETATM   13  C12 UNL     1       0.970   0.731  -0.048  1.00  0.00     0.275 C 
HETATM   14  C13 UNL     1       2.402   0.874  -0.357  1.00  0.00     0.079 C 
ENDROOT
BRANCH  12  15
HETATM   15  C6  UNL     1      -0.915  -0.658   0.364  1.00  0.00     0.302 C 
BRANCH  15  16
HETATM   16  C7  UNL     1      -1.846   0.458   0.125  1.00  0.00     0.302 C 
BRANCH  16  17
HETATM   17  N4  UNL     1      -3.133   0.313   0.768  1.00  0.00     0.094 N 
HETATM   18  C8  UNL     1      -3.988   1.445   0.493  1.00  0.00     0.298 C 
HETATM   19  C9  UNL     1      -4.847   1.258  -0.722  1.00  0.00     0.198 C 
HETATM   20  O2  UNL     1      -5.391   0.016  -0.886  1.00  0.00    -0.388 OA
HETATM   21  C10 UNL     1      -4.390  -0.968  -0.874  1.00  0.00     0.198 C 
HETATM   22  C11 UNL     1      -3.799  -0.937   0.511  1.00  0.00     0.298 C 
ENDBRANCH  16  17
ENDBRANCH  15  16
ENDBRANCH  12  15
TORSDOF 3
