REMARK  6 active torsions:
REMARK  status: ('A' for Active; 'I' for Inactive)
REMARK    1  A    between atoms: O1_2  and  C2_3 
REMARK    2  A    between atoms: C2_3  and  C3_5 
REMARK    3  A    between atoms: C9_11  and  C10_12 
REMARK    4  A    between atoms: C12_15  and  C13_16 
REMARK    5  A    between atoms: C13_16  and  O3_17 
REMARK    6  A    between atoms: C22_28  and  O4_29 
ROOT
HETATM    1  C10 UNL     1      -3.813   2.014  -0.545  1.00  0.00     0.129 C 
HETATM    2  C11 UNL     1      -3.180   3.143  -1.164  1.00  0.00     0.059 C 
HETATM    3  N1  UNL     1      -2.690   4.080  -1.650  1.00  0.00    -0.197 NA
ENDROOT
BRANCH   1   4
HETATM    4  C9  UNL     1      -2.950   0.939  -0.000  1.00  0.00     0.015 C 
HETATM    5  C8  UNL     1      -2.046   0.135  -0.782  1.00  0.00    -0.019 A 
HETATM    6  C6  UNL     1      -0.605   0.020  -0.879  1.00  0.00    -0.024 A 
HETATM    7  C7  UNL     1      -1.423   0.537  -1.929  1.00  0.00     0.022 A 
HETATM    8  C14 UNL     1      -2.486  -1.046  -0.036  1.00  0.00    -0.029 C 
HETATM    9  C5  UNL     1       0.227  -1.161  -1.223  1.00  0.00     0.012 C 
HETATM   10  C18 UNL     1      -0.083   0.564   0.385  1.00  0.00     0.036 C 
HETATM   11  C4  UNL     1       1.532  -0.503  -1.754  1.00  0.00     0.024 C 
HETATM   12  C3  UNL     1       2.256   0.012  -0.506  1.00  0.00     0.086 C 
HETATM   13  C19 UNL     1       1.368   0.846   0.304  1.00  0.00     0.125 C 
HETATM   14  C23 UNL     1       3.378   0.950  -0.979  1.00  0.00     0.055 C 
HETATM   15  F1  UNL     1       1.420   2.136  -0.311  1.00  0.00    -0.241 F 
HETATM   16  C20 UNL     1       2.000   1.156   1.659  1.00  0.00     0.048 C 
HETATM   17  C21 UNL     1       3.403   1.607   1.473  1.00  0.00     0.035 C 
HETATM   18  C22 UNL     1       3.921   1.798   0.112  1.00  0.00     0.119 C 
HETATM   19  C17 UNL     1      -0.565  -0.309   1.488  1.00  0.00     0.009 C 
HETATM   20  C16 UNL     1      -1.648  -1.278   1.141  1.00  0.00     0.011 C 
HETATM   21  C12 UNL     1      -3.797  -0.363   0.053  1.00  0.00     0.024 C 
HETATM   22  C15 UNL     1      -2.671  -2.303  -0.923  1.00  0.00     0.016 C 
BRANCH  12  23
HETATM   23  C2  UNL     1       2.941  -1.128   0.081  1.00  0.00     0.270 C 
HETATM   24  O2  UNL     1       2.874  -1.599   1.229  1.00  0.00    -0.264 OA
BRANCH  23  25
HETATM   25  O1  UNL     1       3.826  -1.822  -0.769  1.00  0.00    -0.326 OA
HETATM   26  C1  UNL     1       4.554  -2.944  -0.323  1.00  0.00     0.213 C 
ENDBRANCH  23  25
ENDBRANCH  12  23
BRANCH  18  27
HETATM   27  O4  UNL     1       5.317   1.585   0.157  1.00  0.00    -0.396 OA
ATOM     28  H4  UNL     1       5.652   1.709  -0.723  1.00  0.00     0.210 HD
ENDBRANCH  18  27
BRANCH  21  29
HETATM   29  C13 UNL     1      -4.745  -0.444   1.149  1.00  0.00     0.170 C 
BRANCH  29  30
HETATM   30  O3  UNL     1      -4.229  -0.361   2.427  1.00  0.00    -0.400 OA
ATOM     31  H3  UNL     1      -4.850  -0.414   3.144  1.00  0.00     0.209 HD
ENDBRANCH  29  30
ENDBRANCH  21  29
ENDBRANCH   1   4
TORSDOF 6
