REMARK  2 active torsions:
REMARK  status: ('A' for Active; 'I' for Inactive)
REMARK    1  A    between atoms: C2_2  and  C3_3 
REMARK    2  A    between atoms: C3_3  and  O1_4 
ROOT
HETATM    1  C1  UNL     1      -1.724   1.911  -0.202  1.00  0.00     0.054 C 
HETATM    2  C2  UNL     1      -1.174   0.526  -0.241  1.00  0.00     0.135 C 
HETATM    3  C4  UNL     1      -0.391   0.303   1.052  1.00  0.00     0.214 C 
HETATM    4  O2  UNL     1       0.925   0.733   0.763  1.00  0.00    -0.350 OA
HETATM    5  C5  UNL     1       1.473  -0.244  -0.067  1.00  0.00     0.189 C 
HETATM    6  C6  UNL     1       2.041  -1.318   0.820  1.00  0.00     0.081 C 
HETATM    7  C7  UNL     1       2.563   0.314  -0.963  1.00  0.00     0.081 C 
HETATM    8  O3  UNL     1       0.471  -0.726  -0.912  1.00  0.00    -0.201 OA
HETATM    9  O4  UNL     1      -0.261   0.331  -1.278  1.00  0.00    -0.223 OA
ENDROOT
BRANCH   2  10
HETATM   10  C3  UNL     1      -2.299  -0.477  -0.366  1.00  0.00     0.207 C 
BRANCH  10  11
HETATM   11  O1  UNL     1      -1.838  -1.785  -0.300  1.00  0.00    -0.398 OA
ATOM     12  H1  UNL     1      -2.545  -2.415  -0.379  1.00  0.00     0.209 HD
ENDBRANCH  10  11
ENDBRANCH   2  10
TORSDOF 2
