REMARK  9 active torsions:
REMARK  status: ('A' for Active; 'I' for Inactive)
REMARK    1  A    between atoms: N1_2  and  C3_4 
REMARK    2  A    between atoms: C3_4  and  C4_5 
REMARK    3  A    between atoms: C4_5  and  S1_8 
REMARK    4  A    between atoms: S1_8  and  N2_11 
REMARK    5  A    between atoms: N2_11  and  C7_13 
REMARK    6  A    between atoms: C9_15  and  C10_16 
REMARK       I    between atoms: C10_16  and  N3_18 
REMARK    7  A    between atoms: N3_18  and  C11_20 
REMARK    8  A    between atoms: C15_24  and  C16_25 
REMARK    9  A    between atoms: C26_38  and  O4_39 
ROOT
HETATM    1  C7  UNL     1       0.256  -0.057  -0.067  1.00  0.00     0.126 C 
HETATM    2  C8  UNL     1       1.339   0.487   0.775  1.00  0.00    -0.051 C 
HETATM    3  C9  UNL     1       2.516  -0.023   1.358  1.00  0.00     0.079 C 
HETATM    4  C18 UNL     1       0.664   1.549   1.714  1.00  0.00     0.037 C 
HETATM    5  C19 UNL     1       0.791   2.758   0.787  1.00  0.00     0.010 C 
HETATM    6  C20 UNL     1      -0.001   2.500  -0.472  1.00  0.00     0.001 C 
HETATM    7  C21 UNL     1      -0.237   1.128  -0.912  1.00  0.00     0.018 C 
HETATM    8  C22 UNL     1      -1.655   0.899  -1.373  1.00  0.00     0.008 C 
HETATM    9  C23 UNL     1      -2.080   2.043  -2.246  1.00  0.00     0.006 C 
HETATM   10  C24 UNL     1      -2.220   3.280  -1.428  1.00  0.00    -0.004 C 
HETATM   11  C25 UNL     1      -3.672   3.342  -0.937  1.00  0.00     0.037 C 
HETATM   12  C26 UNL     1      -3.915   4.476   0.010  1.00  0.00     0.118 C 
HETATM   13  C27 UNL     1      -2.830   4.566   1.046  1.00  0.00     0.032 C 
HETATM   14  C28 UNL     1      -1.901   3.372   0.988  1.00  0.00     0.012 C 
HETATM   15  C29 UNL     1      -1.217   3.423  -0.347  1.00  0.00    -0.036 C 
HETATM   16  C30 UNL     1      -0.649   4.843  -0.440  1.00  0.00     0.016 C 
ENDROOT
BRANCH   1  17
HETATM   17  N2  UNL     1      -0.791  -0.724   0.630  1.00  0.00    -0.309 N 
ATOM     18  H2  UNL     1      -1.376  -0.154   1.241  1.00  0.00     0.172 HD
BRANCH  17  19
HETATM   19  S1  UNL     1      -1.144  -2.319   0.542  1.00  0.00     0.236 S 
HETATM   20  O1  UNL     1      -1.079  -2.958   1.924  1.00  0.00    -0.205 OA
HETATM   21  O2  UNL     1      -0.205  -3.036  -0.414  1.00  0.00    -0.205 OA
BRANCH  19  22
HETATM   22  C4  UNL     1      -2.775  -2.817  -0.048  1.00  0.00     0.102 C 
HETATM   23  C5  UNL     1      -2.952  -2.590  -1.536  1.00  0.00     0.035 C 
HETATM   24  C6  UNL     1      -3.839  -2.137   0.743  1.00  0.00     0.035 C 
BRANCH  22  25
HETATM   25  C3  UNL     1      -2.799  -4.318   0.142  1.00  0.00     0.297 C 
BRANCH  25  26
HETATM   26  N1  UNL     1      -3.946  -5.019  -0.262  1.00  0.00     0.081 N 
HETATM   27  C1  UNL     1      -5.098  -4.865   0.520  1.00  0.00     0.309 C 
HETATM   28  C2  UNL     1      -3.734  -6.442  -0.504  1.00  0.00     0.309 C 
ENDBRANCH  25  26
ENDBRANCH  22  25
ENDBRANCH  19  22
ENDBRANCH  17  19
ENDBRANCH   1  17
BRANCH   3  29
HETATM   29  C10 UNL     1       3.638  -0.531   0.483  1.00  0.00     0.246 C 
HETATM   30  O3  UNL     1       3.338  -1.105  -0.610  1.00  0.00    -0.268 OA
HETATM   31  N3  UNL     1       4.923  -0.306   0.958  1.00  0.00    -0.324 N 
ATOM     32  H3  UNL     1       4.898   0.189   1.849  1.00  0.00     0.169 HD
BRANCH  31  33
HETATM   33  C11 UNL     1       6.237  -0.560   0.571  1.00  0.00     0.035 A 
HETATM   34  C12 UNL     1       7.280   0.189   1.152  1.00  0.00     0.029 A 
HETATM   35  C13 UNL     1       8.584  -0.026   0.815  1.00  0.00     0.003 A 
HETATM   36  C14 UNL     1       8.911  -0.998  -0.111  1.00  0.00     0.016 A 
HETATM   37  C15 UNL     1       7.894  -1.723  -0.674  1.00  0.00     0.050 A 
HETATM   38  C17 UNL     1       6.572  -1.515  -0.345  1.00  0.00     0.045 A 
BRANCH  37  39
HETATM   39  C16 UNL     1       8.248  -2.771  -1.638  1.00  0.00     0.417 C 
HETATM   40  F1  UNL     1       9.602  -3.090  -1.505  1.00  0.00    -0.166 F 
HETATM   41  F2  UNL     1       7.991  -2.332  -2.938  1.00  0.00    -0.166 F 
HETATM   42  F3  UNL     1       7.529  -3.901  -1.357  1.00  0.00    -0.166 F 
ENDBRANCH  37  39
ENDBRANCH  31  33
ENDBRANCH   3  29
BRANCH  12  43
HETATM   43  O4  UNL     1      -4.165   5.699  -0.617  1.00  0.00    -0.396 OA
ATOM     44  H4  UNL     1      -4.319   6.419  -0.016  1.00  0.00     0.210 HD
ENDBRANCH  12  43
TORSDOF 9
