REMARK  9 active torsions:
REMARK  status: ('A' for Active; 'I' for Inactive)
REMARK    1  A    between atoms: N1_2  and  S1_4 
REMARK    2  A    between atoms: S1_4  and  C2_7 
REMARK    3  A    between atoms: N4_15  and  N5_16 
REMARK    4  A    between atoms: C6_19  and  N6_20 
REMARK    5  A    between atoms: N7_23  and  C7_24 
REMARK    6  A    between atoms: N9_26  and  C8_27 
REMARK    7  A    between atoms: C8_27  and  C9_28 
REMARK    8  A    between atoms: C11_32  and  O5_33 
REMARK    9  A    between atoms: C12_35  and  O6_36 
ROOT
HETATM    1  C2  UNL     1      -2.800   1.715   0.357  1.00  0.00     0.183 A 
HETATM    2  N2  UNL     1      -2.424   2.934  -0.179  1.00  0.00    -0.340 N 
ATOM      3  H2  UNL     1      -3.104   3.694  -0.202  1.00  0.00     0.167 HD
HETATM    4  C3  UNL     1      -1.213   3.144  -0.661  1.00  0.00     0.183 A 
HETATM    5  N3  UNL     1      -0.318   2.152  -0.635  1.00  0.00    -0.336 N 
ATOM      6  H3  UNL     1       0.616   2.315  -1.010  1.00  0.00     0.168 HD
HETATM    7  C4  UNL     1      -0.619   0.941  -0.126  1.00  0.00     0.159 A 
HETATM    8  C5  UNL     1      -1.891   0.704   0.386  1.00  0.00     0.159 A 
HETATM    9  N4  UNL     1      -1.905  -0.555   0.824  1.00  0.00    -0.086 N 
HETATM   10  C6  UNL     1      -0.659  -1.077   0.579  1.00  0.00     0.702 A 
HETATM   11  N7  UNL     1       0.120  -0.176   0.005  1.00  0.00    -0.141 N 
ENDROOT
BRANCH  11  12
HETATM   12  C7  UNL     1       1.505  -0.318  -0.418  1.00  0.00     0.249 C 
HETATM   13  N8  UNL     1       2.329  -0.534   0.753  1.00  0.00    -0.135 NA
HETATM   14  N9  UNL     1       3.668  -0.502   0.429  1.00  0.00    -0.220 NA
HETATM   15  C10 UNL     1       4.075  -1.458  -0.541  1.00  0.00     0.144 C 
HETATM   16  C11 UNL     1       2.959  -2.223  -1.175  1.00  0.00     0.164 C 
HETATM   17  C12 UNL     1       1.714  -1.418  -1.400  1.00  0.00     0.189 C 
BRANCH  14  18
HETATM   18  C8  UNL     1       4.182   0.828   0.181  1.00  0.00     0.222 C 
BRANCH  18  19
HETATM   19  C9  UNL     1       3.746   1.798   1.198  1.00  0.00     0.187 C 
HETATM   20  O3  UNL     1       4.138   2.987   1.077  1.00  0.00    -0.647 OA
HETATM   21  O4  UNL     1       2.934   1.451   2.265  1.00  0.00    -0.647 OA
ENDBRANCH  18  19
ENDBRANCH  14  18
BRANCH  16  22
HETATM   22  O5  UNL     1       2.715  -3.407  -0.480  1.00  0.00    -0.392 OA
ATOM     23  H5  UNL     1       2.005  -3.893  -0.883  1.00  0.00     0.210 HD
ENDBRANCH  16  22
BRANCH  17  24
HETATM   24  O6  UNL     1       1.743  -0.870  -2.703  1.00  0.00    -0.389 OA
ATOM     25  H6  UNL     1       1.876  -1.572  -3.329  1.00  0.00     0.210 HD
ENDBRANCH  17  24
ENDBRANCH  11  12
BRANCH  10  26
HETATM   26  N6  UNL     1      -0.364  -2.299   0.897  1.00  0.00    -0.233 N 
ATOM     27  H62 UNL     1      -0.965  -2.994   1.340  1.00  0.00     0.174 HD
ATOM     28  H61 UNL     1       0.562  -2.687   0.715  1.00  0.00     0.174 HD
ENDBRANCH  10  26
BRANCH   9  29
HETATM   29  N5  UNL     1      -2.926  -1.278   1.434  1.00  0.00    -0.324 N 
ATOM     30  H52 UNL     1      -3.852  -0.890   1.616  1.00  0.00     0.178 HD
ATOM     31  H51 UNL     1      -2.937  -2.241   1.769  1.00  0.00     0.178 HD
ENDBRANCH   9  29
BRANCH   1  32
HETATM   32  S1  UNL     1      -4.423   1.592   0.956  1.00  0.00     0.276 S 
HETATM   33  O1  UNL     1      -4.700   0.665   2.061  1.00  0.00    -0.199 OA
HETATM   34  O2  UNL     1      -4.821   3.028   1.460  1.00  0.00    -0.199 OA
BRANCH  32  35
HETATM   35  N1  UNL     1      -5.477   1.246  -0.360  1.00  0.00    -0.319 N 
HETATM   36  C1  UNL     1      -5.259   0.048  -1.060  1.00  0.00     0.159 C 
ATOM     37  H1  UNL     1      -6.229   1.884  -0.621  1.00  0.00     0.171 HD
ENDBRANCH  32  35
ENDBRANCH   1  32
TORSDOF 9
