REMARK  15 active torsions:
REMARK  status: ('A' for Active; 'I' for Inactive)
REMARK    1  A    between atoms: C2_2  and  C4_4 
REMARK    2  A    between atoms: C4_4  and  C5_5 
REMARK    3  A    between atoms: C5_5  and  C6_6 
REMARK    4  A    between atoms: C5_5  and  N1_13 
REMARK    5  A    between atoms: C6_6  and  C7_7 
REMARK    6  A    between atoms: C7_7  and  C8_8 
REMARK       I    between atoms: N1_13  and  C12_15 
REMARK    7  A    between atoms: C12_15  and  C13_17 
REMARK    8  A    between atoms: C13_17  and  C14_18 
REMARK    9  A    between atoms: C14_18  and  N2_19 
REMARK   10  A    between atoms: C14_18  and  C20_28 
REMARK       I    between atoms: N2_19  and  C15_21 
REMARK   11  A    between atoms: C15_21  and  O3_23 
REMARK   12  A    between atoms: O3_23  and  C16_24 
REMARK       I    between atoms: C20_28  and  N3_30 
REMARK   13  A    between atoms: N3_30  and  C21_32 
REMARK   14  A    between atoms: C21_32  and  C22_33 
REMARK   15  A    between atoms: C21_32  and  C23_35 
ROOT
HETATM    1  C14 UNL     1      -2.074  -0.313   0.564  1.00  0.00     0.187 C 
ENDROOT
BRANCH   1   2
HETATM    2  C13 UNL     1      -0.896  -1.187   0.224  1.00  0.00     0.137 C 
BRANCH   2   3
HETATM    3  C12 UNL     1       0.356  -0.502  -0.077  1.00  0.00     0.220 C 
HETATM    4  N1  UNL     1       1.495  -1.253  -0.427  1.00  0.00    -0.356 N 
ATOM      5  H1  UNL     1       1.403  -2.268  -0.460  1.00  0.00     0.162 HD
HETATM    6  O1  UNL     1       0.436   0.737  -0.030  1.00  0.00    -0.274 OA
BRANCH   4   7
HETATM    7  C5  UNL     1       2.806  -0.674  -0.748  1.00  0.00     0.084 C 
BRANCH   7   8
HETATM    8  C4  UNL     1       3.178  -1.035  -2.140  1.00  0.00     0.029 C 
BRANCH   8   9
HETATM    9  C2  UNL     1       2.229  -0.527  -3.203  1.00  0.00    -0.021 C 
HETATM   10  C1  UNL     1       2.711  -0.973  -4.590  1.00  0.00     0.009 C 
HETATM   11  C3  UNL     1       2.106   0.962  -3.243  1.00  0.00     0.009 C 
ENDBRANCH   8   9
ENDBRANCH   7   8
BRANCH   7  12
HETATM   12  C6  UNL     1       3.741  -1.162   0.282  1.00  0.00     0.026 C 
BRANCH  12  13
HETATM   13  C7  UNL     1       5.143  -0.711   0.326  1.00  0.00     0.009 C 
BRANCH  13  14
HETATM   14  C8  UNL     1       5.422   0.710   0.590  1.00  0.00     0.020 C 
HETATM   15  C9  UNL     1       6.965   0.945   0.646  1.00  0.00     0.010 C 
HETATM   16  C10 UNL     1       6.584   2.387   0.223  1.00  0.00     0.038 C 
HETATM   17  C11 UNL     1       5.439   1.658  -0.556  1.00  0.00     0.174 C 
HETATM   18  F1  UNL     1       6.081   1.144  -1.684  1.00  0.00    -0.249 F 
ENDBRANCH  13  14
ENDBRANCH  12  13
ENDBRANCH   7  12
ENDBRANCH   4   7
ENDBRANCH   2   3
ENDBRANCH   1   2
BRANCH   1  19
HETATM   19  N2  UNL     1      -3.162  -1.298   0.808  1.00  0.00    -0.323 N 
HETATM   20  C15 UNL     1      -4.289  -1.378  -0.038  1.00  0.00     0.362 C 
HETATM   21  O2  UNL     1      -4.369  -0.601  -1.015  1.00  0.00    -0.238 OA
ATOM     22  H2  UNL     1      -3.092  -1.930   1.605  1.00  0.00     0.165 HD
BRANCH  20  23
HETATM   23  O3  UNL     1      -5.313  -2.282   0.168  1.00  0.00    -0.294 OA
BRANCH  23  24
HETATM   24  C16 UNL     1      -6.461  -2.403  -0.653  1.00  0.00     0.061 C 
HETATM   25  C17 UNL     1      -7.323  -3.497  -0.079  1.00  0.00     0.046 C 
HETATM   26  C18 UNL     1      -7.250  -1.126  -0.741  1.00  0.00     0.046 C 
HETATM   27  C19 UNL     1      -6.088  -2.812  -2.066  1.00  0.00     0.046 C 
ENDBRANCH  23  24
ENDBRANCH  20  23
ENDBRANCH   1  19
BRANCH   1  28
HETATM   28  C20 UNL     1      -1.933   0.405   1.855  1.00  0.00     0.241 C 
HETATM   29  O4  UNL     1      -2.069  -0.318   2.903  1.00  0.00    -0.271 OA
HETATM   30  N3  UNL     1      -1.669   1.793   1.973  1.00  0.00    -0.346 N 
ATOM     31  H3  UNL     1      -1.572   2.343   1.120  1.00  0.00     0.163 HD
BRANCH  30  32
HETATM   32  C21 UNL     1      -1.531   2.464   3.242  1.00  0.00     0.183 C 
BRANCH  32  33
HETATM   33  C22 UNL     1      -0.163   3.040   3.475  1.00  0.00     0.120 C 
HETATM   34  S1  UNL     1       1.122   1.771   3.447  1.00  0.00    -0.095 SA
ENDBRANCH  32  33
BRANCH  32  35
HETATM   35  C23 UNL     1      -2.574   3.461   3.505  1.00  0.00     0.254 C 
HETATM   36  N4  UNL     1      -2.549   4.182   4.721  1.00  0.00    -0.060 NA
HETATM   37  O5  UNL     1      -3.484   3.692   2.686  1.00  0.00    -0.275 OA
ENDBRANCH  32  35
ENDBRANCH  30  32
ENDBRANCH   1  28
TORSDOF 15
