REMARK  9 active torsions:
REMARK  status: ('A' for Active; 'I' for Inactive)
REMARK    1  A    between atoms: C1_2  and  C2_3 
REMARK    2  A    between atoms: C2_3  and  C3_4 
REMARK    3  A    between atoms: C3_4  and  N1_5 
REMARK    4  A    between atoms: C8_15  and  C9_16 
REMARK    5  A    between atoms: C13_24  and  C14_25 
REMARK    6  A    between atoms: C14_25  and  C15_26 
REMARK    7  A    between atoms: C14_25  and  C16_28 
REMARK    8  A    between atoms: C16_28  and  C17_29 
REMARK    9  A    between atoms: C17_29  and  N6_30 
ROOT
HETATM    1  C9  UNL     1      -1.802   0.230  -0.035  1.00  0.00     0.089 A 
HETATM    2  N4  UNL     1      -2.320   0.186   1.227  1.00  0.00    -0.297 N 
ATOM      3  H4  UNL     1      -3.252  -0.161   1.453  1.00  0.00     0.187 HD
HETATM    4  N5  UNL     1      -1.470   0.645   2.110  1.00  0.00    -0.299 N 
ATOM      5  H5  UNL     1      -1.639   0.708   3.114  1.00  0.00     0.187 HD
HETATM    6  C10 UNL     1      -0.358   1.015   1.497  1.00  0.00     0.060 A 
HETATM    7  C11 UNL     1       0.818   1.545   1.927  1.00  0.00     0.032 A 
HETATM    8  C12 UNL     1       1.830   1.838   1.041  1.00  0.00     0.010 A 
HETATM    9  C13 UNL     1       1.679   1.599  -0.317  1.00  0.00    -0.052 A 
HETATM   10  C22 UNL     1       0.461   1.057  -0.707  1.00  0.00     0.023 A 
HETATM   11  C23 UNL     1      -0.557   0.756   0.134  1.00  0.00     0.023 A 
ENDROOT
BRANCH   1  12
HETATM   12  C8  UNL     1      -2.473  -0.200  -1.245  1.00  0.00     0.091 A 
HETATM   13  N3  UNL     1      -2.073  -0.204  -2.513  1.00  0.00    -0.297 N 
HETATM   14  N2  UNL     1      -3.041  -0.702  -3.295  1.00  0.00    -0.299 N 
ATOM     15  H3  UNL     1      -1.165   0.123  -2.842  1.00  0.00     0.187 HD
HETATM   16  C7  UNL     1      -4.093  -1.033  -2.545  1.00  0.00     0.063 A 
ATOM     17  H2  UNL     1      -2.982  -0.811  -4.307  1.00  0.00     0.187 HD
HETATM   18  C6  UNL     1      -5.441  -1.584  -2.553  1.00  0.00     0.034 A 
HETATM   19  C24 UNL     1      -3.776  -0.730  -1.235  1.00  0.00     0.049 A 
HETATM   20  C5  UNL     1      -5.936  -1.629  -1.356  1.00  0.00     0.032 A 
HETATM   21  C4  UNL     1      -4.917  -1.091  -0.434  1.00  0.00     0.043 A 
HETATM   22  N1  UNL     1      -5.057  -0.980   0.843  1.00  0.00    -0.389 N 
ATOM     23  H1  UNL     1      -4.285  -0.592   1.386  1.00  0.00     0.159 HD
BRANCH  22  24
HETATM   24  C3  UNL     1      -6.252  -1.378   1.536  1.00  0.00     0.122 C 
BRANCH  24  25
HETATM   25  C2  UNL     1      -7.176  -0.211   1.661  1.00  0.00     0.051 C 
BRANCH  25  26
HETATM   26  C1  UNL     1      -8.464  -0.589   2.387  1.00  0.00     0.224 C 
HETATM   27  F1  UNL     1      -9.133  -1.575   1.721  1.00  0.00    -0.255 F 
ENDBRANCH  25  26
ENDBRANCH  24  25
ENDBRANCH  22  24
ENDBRANCH   1  12
BRANCH   9  28
HETATM   28  C14 UNL     1       2.741   1.894  -1.296  1.00  0.00     0.030 C 
BRANCH  28  29
HETATM   29  C15 UNL     1       3.142   3.333  -1.160  1.00  0.00     0.094 C 
HETATM   30 BR1  UNL     1       4.541   3.806  -2.417  1.00  0.00    -0.096 Br
ENDBRANCH  28  29
BRANCH  28  31
HETATM   31  C16 UNL     1       3.871   0.932  -1.309  1.00  0.00     0.040 C 
BRANCH  31  32
HETATM   32  C17 UNL     1       4.645   0.773  -0.056  1.00  0.00     0.273 C 
BRANCH  32  33
HETATM   33  N6  UNL     1       5.733  -0.189  -0.191  1.00  0.00     0.088 N 
HETATM   34  C18 UNL     1       5.296  -1.522  -0.356  1.00  0.00     0.272 C 
HETATM   35  C19 UNL     1       6.177  -2.423   0.419  1.00  0.00     0.032 C 
HETATM   36  C20 UNL     1       7.161  -1.522   1.109  1.00  0.00     0.032 C 
HETATM   37  C21 UNL     1       6.506  -0.151   1.016  1.00  0.00     0.272 C 
ENDBRANCH  32  33
ENDBRANCH  31  32
ENDBRANCH  28  31
ENDBRANCH   9  28
TORSDOF 9
