REMARK  11 active torsions:
REMARK  status: ('A' for Active; 'I' for Inactive)
REMARK    1  A    between atoms: C3_4  and  N1_5 
REMARK    2  A    between atoms: N1_5  and  C4_6 
REMARK    3  A    between atoms: C5_9  and  N3_10 
REMARK    4  A    between atoms: N3_10  and  C6_12 
REMARK    5  A    between atoms: C6_12  and  C7_13 
REMARK    6  A    between atoms: C7_13  and  C8_14 
REMARK    7  A    between atoms: C8_14  and  C9_15 
REMARK    8  A    between atoms: C9_15  and  N4_16 
REMARK    9  A    between atoms: C19_29  and  C20_30 
REMARK   10  A    between atoms: C20_30  and  C21_31 
REMARK   11  A    between atoms: C21_31  and  N6_32 
ROOT
HETATM    1  C4  UNL     1      -0.049  -0.217   0.497  1.00  0.00     0.217 A 
HETATM    2  N2  UNL     1       0.830  -1.269   0.414  1.00  0.00    -0.163 N 
ATOM      3  H2  UNL     1       0.469  -2.200   0.208  1.00  0.00     0.187 HD
HETATM    4  C5  UNL     1       2.144  -1.109   0.595  1.00  0.00     0.680 A 
HETATM    5  N5  UNL     1       2.617   0.103   0.868  1.00  0.00    -0.200 N 
ATOM      6  H5  UNL     1       3.622   0.209   1.006  1.00  0.00     0.183 HD
HETATM    7  C15 UNL     1       1.839   1.200   0.972  1.00  0.00     0.135 A 
HETATM    8  C16 UNL     1       0.503   1.045   0.788  1.00  0.00     0.108 A 
HETATM    9 CL2  UNL     1      -0.585   2.431   0.920  1.00  0.00    -0.078 Cl
ENDROOT
BRANCH   1  10
HETATM   10  N1  UNL     1      -1.194  -0.338   0.290  1.00  0.00    -0.385 NA
BRANCH  10  11
HETATM   11  C3  UNL     1      -2.478  -0.492   0.054  1.00  0.00     0.111 A 
HETATM   12  C2  UNL     1      -2.952  -0.247  -1.263  1.00  0.00     0.069 A 
HETATM   13  C1  UNL     1      -4.277  -0.390  -1.564  1.00  0.00     0.043 A 
HETATM   14 CL1  UNL     1      -4.852  -0.088  -3.209  1.00  0.00    -0.084 Cl
HETATM   15  C19 UNL     1      -5.205  -0.774  -0.623  1.00  0.00    -0.035 A 
HETATM   16  C18 UNL     1      -4.778  -1.021   0.660  1.00  0.00     0.012 A 
HETATM   17  C17 UNL     1      -3.451  -0.882   0.979  1.00  0.00     0.045 A 
BRANCH  15  18
HETATM   18  C20 UNL     1      -6.628  -0.899  -1.035  1.00  0.00     0.070 C 
BRANCH  18  19
HETATM   19  C21 UNL     1      -7.290   0.450  -1.113  1.00  0.00     0.277 C 
BRANCH  19  20
HETATM   20  N6  UNL     1      -8.649   0.276  -1.587  1.00  0.00     0.088 N 
HETATM   21  C22 UNL     1      -9.499  -0.432  -0.644  1.00  0.00     0.272 C 
HETATM   22  C23 UNL     1      -9.489   0.198   0.712  1.00  0.00     0.030 C 
HETATM   23  C24 UNL     1      -9.701   1.672   0.717  1.00  0.00     0.003 C 
HETATM   24  C25 UNL     1      -9.213   2.402  -0.502  1.00  0.00     0.030 C 
HETATM   25  C26 UNL     1      -9.285   1.585  -1.772  1.00  0.00     0.272 C 
ENDBRANCH  19  20
ENDBRANCH  18  19
ENDBRANCH  15  18
ENDBRANCH  10  11
ENDBRANCH   1  10
BRANCH   4  26
HETATM   26  N3  UNL     1       2.893  -2.174   0.500  1.00  0.00    -0.226 N 
ATOM     27  H3  UNL     1       2.479  -3.085   0.301  1.00  0.00     0.177 HD
BRANCH  26  28
HETATM   28  C6  UNL     1       4.346  -2.035   0.685  1.00  0.00     0.138 C 
BRANCH  28  29
HETATM   29  C7  UNL     1       4.990  -2.166  -0.667  1.00  0.00     0.022 C 
BRANCH  29  30
HETATM   30  C8  UNL     1       6.472  -1.839  -0.671  1.00  0.00     0.032 C 
BRANCH  30  31
HETATM   31  C9  UNL     1       6.642  -0.373  -0.287  1.00  0.00     0.272 C 
BRANCH  31  32
HETATM   32  N4  UNL     1       8.042  -0.045  -0.305  1.00  0.00     0.088 N 
HETATM   33  C10 UNL     1       8.205   1.396  -0.099  1.00  0.00     0.272 C 
HETATM   34  C11 UNL     1       9.648   1.733  -0.318  1.00  0.00     0.030 C 
HETATM   35  C12 UNL     1      10.561   0.889   0.548  1.00  0.00     0.003 C 
HETATM   36  C13 UNL     1       9.684   0.127   1.510  1.00  0.00     0.030 C 
HETATM   37  C14 UNL     1       8.782  -0.788   0.704  1.00  0.00     0.272 C 
ENDBRANCH  31  32
ENDBRANCH  30  31
ENDBRANCH  29  30
ENDBRANCH  28  29
ENDBRANCH  26  28
ENDBRANCH   4  26
TORSDOF 11
