REMARK  6 active torsions:
REMARK  status: ('A' for Active; 'I' for Inactive)
REMARK    1  A    between atoms: C2_2  and  C3_3 
REMARK    2  A    between atoms: C3_3  and  C4_4 
REMARK    3  A    between atoms: C4_4  and  O1_5 
REMARK    4  A    between atoms: N1_7  and  O2_9 
REMARK    5  A    between atoms: C7_13  and  C8_14 
REMARK       I    between atoms: C8_14  and  N2_16 
REMARK       I    between atoms: N2_16  and  C9_18 
REMARK    6  A    between atoms: C9_18  and  C10_20 
ROOT
HETATM    1  C1  UNL     1      -1.913   1.099   1.271  1.00  0.00     0.027 C 
HETATM    2  C2  UNL     1      -1.730   0.575  -0.127  1.00  0.00     0.011 C 
HETATM    3  C5  UNL     1      -1.035  -0.748  -0.192  1.00  0.00     0.021 C 
HETATM    4  C6  UNL     1       0.244  -0.781   0.572  1.00  0.00     0.016 C 
HETATM    5  C7  UNL     1       1.234   0.265   0.239  1.00  0.00     0.087 C 
HETATM    6  C11 UNL     1       0.997   0.922  -1.101  1.00  0.00     0.088 C 
HETATM    7  S1  UNL     1      -0.622   1.774  -0.976  1.00  0.00    -0.158 SA
ENDROOT
BRANCH   5   8
HETATM    8  C8  UNL     1       2.639  -0.302   0.181  1.00  0.00     0.229 C 
HETATM    9  O3  UNL     1       2.707  -1.524   0.368  1.00  0.00    -0.273 OA
HETATM   10  N2  UNL     1       3.721   0.553  -0.071  1.00  0.00    -0.290 N 
HETATM   11  C9  UNL     1       5.071   0.220  -0.165  1.00  0.00     0.332 C 
ATOM     12  H2  UNL     1       3.492   1.538  -0.201  1.00  0.00     0.172 HD
HETATM   13  O4  UNL     1       5.892   1.186  -0.414  1.00  0.00    -0.263 OA
BRANCH  11  14
HETATM   14  C10 UNL     1       5.594  -1.133   0.001  1.00  0.00     0.472 C 
HETATM   15  F1  UNL     1       5.363  -1.648   1.266  1.00  0.00    -0.162 F 
HETATM   16  F2  UNL     1       5.158  -2.042  -0.932  1.00  0.00    -0.162 F 
HETATM   17  F3  UNL     1       6.990  -1.067  -0.204  1.00  0.00    -0.162 F 
ENDBRANCH  11  14
ENDBRANCH   5   8
BRANCH   2  18
HETATM   18  C3  UNL     1      -3.024   0.626  -0.856  1.00  0.00     0.106 C 
BRANCH  18  19
HETATM   19  C4  UNL     1      -4.118  -0.146  -0.281  1.00  0.00     0.136 C 
HETATM   20  N1  UNL     1      -5.177   0.473   0.085  1.00  0.00    -0.251 N 
ATOM     21  H1  UNL     1      -5.242   1.485  -0.029  1.00  0.00     0.196 HD
BRANCH  19  22
HETATM   22  O1  UNL     1      -4.100  -1.522  -0.094  1.00  0.00    -0.348 OA
ATOM     23  H1  UNL     1      -4.813  -2.025   0.281  1.00  0.00     0.219 HD
ENDBRANCH  19  22
BRANCH  20  24
HETATM   24  O2  UNL     1      -6.220  -0.221   0.628  1.00  0.00    -0.288 OA
ATOM     25  H2  UNL     1      -7.006   0.238   0.900  1.00  0.00     0.244 HD
ENDBRANCH  20  24
ENDBRANCH  18  19
ENDBRANCH   2  18
TORSDOF 6
