REMARK  16 active torsions:
REMARK  status: ('A' for Active; 'I' for Inactive)
REMARK    1  A    between atoms: C2_2  and  N1_3 
REMARK       I    between atoms: N1_3  and  C3_5 
REMARK    2  A    between atoms: C3_5  and  C4_7 
REMARK    3  A    between atoms: C4_7  and  O2_8 
REMARK    4  A    between atoms: C5_10  and  N2_11 
REMARK    5  A    between atoms: C5_10  and  C28_43 
REMARK       I    between atoms: N2_11  and  C6_12 
REMARK    6  A    between atoms: C6_12  and  C7_14 
REMARK       I    between atoms: C7_14  and  N3_16 
REMARK    7  A    between atoms: N3_16  and  C8_18 
REMARK    8  A    between atoms: C8_18  and  C9_19 
REMARK    9  A    between atoms: C8_18  and  C12_22 
REMARK   10  A    between atoms: N4_27  and  C17_28 
REMARK   11  A    between atoms: C17_28  and  C19_30 
REMARK   12  A    between atoms: C19_30  and  O5_31 
REMARK   13  A    between atoms: C19_30  and  N5_33 
REMARK   14  A    between atoms: N5_33  and  C20_35 
REMARK   15  A    between atoms: C20_35  and  C21_36 
REMARK   16  A    between atoms: C28_43  and  C30_45 
ROOT
HETATM    1  C8  UNL     1       0.056  -1.046  -0.621  1.00  0.00     0.134 C 
ENDROOT
BRANCH   1   2
HETATM    2  N3  UNL     1       1.160  -0.175  -0.172  1.00  0.00    -0.342 N 
HETATM    3  C7  UNL     1       2.105  -0.503   0.691  1.00  0.00     0.324 C 
HETATM    4  O4  UNL     1       2.531  -1.404   1.381  1.00  0.00    -0.261 OA
ATOM      5  H3  UNL     1       1.197   0.766  -0.564  1.00  0.00     0.163 HD
BRANCH   3   6
HETATM    6  C6  UNL     1       3.239   0.660   0.942  1.00  0.00     0.384 C 
HETATM    7  N2  UNL     1       4.374   0.051   0.419  1.00  0.00    -0.359 NA
HETATM    8  O3  UNL     1       2.848   1.572   1.403  1.00  0.00    -0.246 OA
BRANCH   7   9
HETATM    9  C5  UNL     1       5.521  -0.530  -0.098  1.00  0.00     0.152 C 
HETATM   10  C4  UNL     1       6.061   0.014  -1.275  1.00  0.00     0.175 C 
BRANCH  10  11
HETATM   11  C3  UNL     1       7.090   0.086  -2.335  1.00  0.00     0.278 C 
HETATM   12  N1  UNL     1       7.724   1.307  -2.124  1.00  0.00    -0.355 N 
ATOM     13  H1  UNL     1       7.345   1.609  -1.227  1.00  0.00     0.162 HD
HETATM   14  O1  UNL     1       7.184  -0.812  -3.073  1.00  0.00    -0.265 OA
BRANCH  12  15
HETATM   15  C2  UNL     1       8.591   2.345  -2.462  1.00  0.00     0.118 C 
HETATM   16  C1  UNL     1       8.864   3.247  -1.232  1.00  0.00     0.026 C 
ENDBRANCH  12  15
ENDBRANCH  10  11
BRANCH  10  17
HETATM   17  O2  UNL     1       5.250   1.113  -1.645  1.00  0.00    -0.353 OA
ATOM     18  H2  UNL     1       4.589   1.067  -0.964  1.00  0.00     0.218 HD
ENDBRANCH  10  17
BRANCH   9  19
HETATM   19  C28 UNL     1       6.336  -1.321   0.859  1.00  0.00    -0.040 C 
HETATM   20  C29 UNL     1       6.629  -2.674   0.334  1.00  0.00     0.047 C 
BRANCH  19  21
HETATM   21  C30 UNL     1       6.186  -1.001   2.282  1.00  0.00     0.033 C 
HETATM   22  C31 UNL     1       6.660   0.447   2.499  1.00  0.00     0.010 C 
ENDBRANCH  19  21
ENDBRANCH   9  19
ENDBRANCH   7   9
ENDBRANCH   3   6
ENDBRANCH   1   2
BRANCH   1  23
HETATM   23  C9  UNL     1       0.845  -2.385  -0.822  1.00  0.00     0.006 C 
HETATM   24  C10 UNL     1      -0.022  -3.505  -1.407  1.00  0.00     0.012 C 
HETATM   25  C11 UNL     1       1.900  -2.165  -1.889  1.00  0.00     0.012 C 
ENDBRANCH   1  23
BRANCH   1  26
HETATM   26  C12 UNL     1      -0.930  -1.106   0.415  1.00  0.00     0.012 C 
HETATM   27  C13 UNL     1      -0.842  -1.835   1.670  1.00  0.00     0.055 C 
HETATM   28  C14 UNL     1      -2.086  -2.691   1.941  1.00  0.00     0.011 C 
HETATM   29  C15 UNL     1      -3.026  -2.858   0.802  1.00  0.00     0.045 C 
HETATM   30  C16 UNL     1      -3.124  -1.760  -0.221  1.00  0.00     0.065 C 
HETATM   31  N4  UNL     1      -2.265  -0.718   0.114  1.00  0.00    -0.353 N 
BRANCH  31  32
HETATM   32  C17 UNL     1      -2.622   0.580   0.369  1.00  0.00     0.159 C 
HETATM   33  C18 UNL     1      -2.181   1.532  -0.718  1.00  0.00     0.041 C 
BRANCH  32  34
HETATM   34  C19 UNL     1      -4.068   0.724   0.588  1.00  0.00     0.135 C 
BRANCH  34  35
HETATM   35  O5  UNL     1      -4.569  -0.293   1.248  1.00  0.00    -0.348 OA
ATOM     36  H5  UNL     1      -5.504  -0.200   1.390  1.00  0.00     0.219 HD
ENDBRANCH  34  35
BRANCH  34  37
HETATM   37  N5  UNL     1      -4.974   1.696   0.158  1.00  0.00    -0.363 N 
ATOM     38  H5  UNL     1      -4.624   2.554  -0.269  1.00  0.00     0.162 HD
BRANCH  37  39
HETATM   39  C20 UNL     1      -6.437   1.502   0.311  1.00  0.00     0.035 C 
HETATM   40  C24 UNL     1      -7.018   0.830   1.427  1.00  0.00     0.031 C 
HETATM   41  C25 UNL     1      -8.228   0.000   0.932  1.00  0.00     0.002 C 
HETATM   42  C26 UNL     1      -8.106  -0.005  -0.627  1.00  0.00     0.002 C 
HETATM   43  C27 UNL     1      -6.730   0.492  -0.933  1.00  0.00     0.031 C 
BRANCH  39  44
HETATM   44  C21 UNL     1      -7.104   2.777  -0.072  1.00  0.00     0.005 C 
HETATM   45  C22 UNL     1      -6.689   3.221  -1.472  1.00  0.00     0.012 C 
HETATM   46  C23 UNL     1      -6.903   3.866   0.933  1.00  0.00     0.012 C 
ENDBRANCH  39  44
ENDBRANCH  37  39
ENDBRANCH  34  37
ENDBRANCH  32  34
ENDBRANCH  31  32
ENDBRANCH   1  26
TORSDOF 16
