REMARK  4 active torsions:
REMARK  status: ('A' for Active; 'I' for Inactive)
REMARK    1  A    between atoms: C7_8  and  O1_9 
REMARK    2  A    between atoms: C8_11  and  O2_12 
REMARK    3  A    between atoms: O2_12  and  C9_13 
REMARK    4  A    between atoms: C9_13  and  C10_15 
ROOT
HETATM    1  C1  UNL     1      -4.462   0.594  -1.358  1.00  0.00     0.272 C 
HETATM    2  N1  UNL     1      -3.655   0.145  -0.211  1.00  0.00    -0.068 N 
HETATM    3  C2  UNL     1      -4.111   0.933   0.918  1.00  0.00     0.237 C 
HETATM    4  C3  UNL     1      -3.345   0.627   2.159  1.00  0.00     0.035 C 
HETATM    5  C4  UNL     1      -2.811  -0.779   2.055  1.00  0.00     0.020 C 
HETATM    6  C5  UNL     1      -3.785  -1.703   1.366  1.00  0.00     0.035 C 
HETATM    7  C6  UNL     1      -3.931  -1.258  -0.051  1.00  0.00     0.237 C 
HETATM    8  C7  UNL     1      -1.425  -0.848   1.497  1.00  0.00     0.153 C 
HETATM    9  C8  UNL     1      -1.294  -0.501   0.068  1.00  0.00     0.187 C 
HETATM   10  C18 UNL     1      -2.296   0.463  -0.465  1.00  0.00     0.272 C 
ENDROOT
BRANCH   9  11
HETATM   11  O2  UNL     1      -0.007   0.080  -0.133  1.00  0.00    -0.308 OA
BRANCH  11  12
HETATM   12  C9  UNL     1       0.950  -0.436  -0.957  1.00  0.00     0.289 C 
HETATM   13  O3  UNL     1       0.705  -1.488  -1.590  1.00  0.00    -0.260 OA
BRANCH  12  14
HETATM   14  C10 UNL     1       2.273   0.201  -1.136  1.00  0.00     0.013 C 
HETATM   15  C11 UNL     1       3.065  -0.444  -1.974  1.00  0.00    -0.013 C 
HETATM   16  C12 UNL     1       4.431  -0.214  -2.463  1.00  0.00     0.028 C 
HETATM   17  C13 UNL     1       5.238   0.649  -1.523  1.00  0.00     0.004 C 
HETATM   18  C14 UNL     1       5.442   0.022  -0.175  1.00  0.00     0.000 C 
HETATM   19  C15 UNL     1       4.251   0.054   0.722  1.00  0.00     0.000 C 
HETATM   20  C16 UNL     1       3.508   1.375   0.689  1.00  0.00     0.005 C 
HETATM   21  C17 UNL     1       2.429   1.437  -0.331  1.00  0.00     0.044 C 
ENDBRANCH  12  14
ENDBRANCH  11  12
ENDBRANCH   9  11
BRANCH   8  22
HETATM   22  O1  UNL     1      -0.977  -2.172   1.668  1.00  0.00    -0.393 OA
ATOM     23  H1  UNL     1      -0.097  -2.216   1.314  1.00  0.00     0.210 HD
ENDBRANCH   8  22
TORSDOF 4
