REMARK  3 active torsions:
REMARK  status: ('A' for Active; 'I' for Inactive)
REMARK       I    between atoms: C2_2  and  N1_4 
REMARK       I    between atoms: N2_6  and  C4_7 
REMARK    1  A    between atoms: C4_7  and  C5_9 
REMARK    2  A    between atoms: C5_9  and  C6_10 
REMARK    3  A    between atoms: C10_14  and  C11_15 
ROOT
HETATM    1  C1  UNL     1      -2.405  -0.173  -3.139  1.00  0.00     0.117 C 
HETATM    2  C2  UNL     1      -3.039   0.040  -1.805  1.00  0.00     0.217 C 
HETATM    3  O1  UNL     1      -4.309  -0.111  -1.770  1.00  0.00    -0.274 OA
HETATM    4  N1  UNL     1      -2.298   0.388  -0.642  1.00  0.00    -0.330 N 
HETATM    5  C3  UNL     1      -0.870   0.530  -0.803  1.00  0.00     0.256 C 
HETATM    6  N2  UNL     1      -0.153   0.338   0.437  1.00  0.00    -0.320 N 
HETATM    7  C4  UNL     1       1.254   0.215   0.358  1.00  0.00     0.222 C 
HETATM    8  O2  UNL     1       1.922   0.048   1.404  1.00  0.00    -0.273 OA
HETATM    9  C10 UNL     1      -0.780   0.266   1.735  1.00  0.00     0.199 C 
HETATM   10  C12 UNL     1      -2.160   0.754   1.791  1.00  0.00     0.065 C 
HETATM   11  C13 UNL     1      -2.909   0.077   2.882  1.00  0.00    -0.021 C 
HETATM   12  C14 UNL     1      -3.884  -0.683   2.429  1.00  0.00    -0.028 C 
HETATM   13  C15 UNL     1      -3.889  -0.592   0.961  1.00  0.00     0.053 C 
HETATM   14  C16 UNL     1      -2.999   0.571   0.579  1.00  0.00     0.102 C 
ENDROOT
BRANCH   7  15
HETATM   15  C5  UNL     1       1.992   0.277  -0.929  1.00  0.00     0.111 C 
BRANCH  15  16
HETATM   16  C6  UNL     1       3.461   0.120  -0.733  1.00  0.00    -0.043 C 
HETATM   17  C7  UNL     1       4.170   0.188  -2.058  1.00  0.00     0.015 C 
HETATM   18  C8  UNL     1       3.983   1.247   0.140  1.00  0.00     0.015 C 
HETATM   19  C9  UNL     1       3.836  -1.186  -0.079  1.00  0.00     0.015 C 
ENDBRANCH  15  16
ENDBRANCH   7  15
BRANCH   9  20
HETATM   20  C11 UNL     1      -0.620  -1.130   2.215  1.00  0.00     0.197 C 
HETATM   21  O3  UNL     1      -1.026  -1.543   3.342  1.00  0.00    -0.646 OA
HETATM   22  O4  UNL     1       0.010  -2.119   1.434  1.00  0.00    -0.646 OA
ENDBRANCH   9  20
TORSDOF 3
