REMARK  6 active torsions:
REMARK  status: ('A' for Active; 'I' for Inactive)
REMARK    1  A    between atoms: N1_1  and  N2_4 
REMARK       I    between atoms: N2_4  and  C1_6 
REMARK       I    between atoms: C1_6  and  N4_11 
REMARK    2  A    between atoms: N3_7  and  O1_9 
REMARK    3  A    between atoms: N4_11  and  N5_13 
REMARK    4  A    between atoms: C2_15  and  O2_16 
REMARK    5  A    between atoms: C2_15  and  N6_18 
REMARK       I    between atoms: N6_18  and  C3_20 
REMARK    6  A    between atoms: C3_20  and  C4_22 
ROOT
HETATM    1  N5  UNL     1      -1.207   0.049  -0.137  1.00  0.00    -0.251 N 
ATOM      2  H5  UNL     1      -1.174   1.064  -0.046  1.00  0.00     0.191 HD
HETATM    3  C2  UNL     1      -0.109  -0.618  -0.118  1.00  0.00     0.239 C 
ENDROOT
BRANCH   1   4
HETATM    4  N4  UNL     1      -2.428  -0.575  -0.277  1.00  0.00    -0.126 N 
HETATM    5  C1  UNL     1      -3.641   0.095   0.032  1.00  0.00     0.730 C 
HETATM    6  N2  UNL     1      -4.840  -0.608   0.312  1.00  0.00    -0.136 N 
HETATM    7  N3  UNL     1      -3.643   1.382   0.055  1.00  0.00    -0.096 N 
ATOM      8  H2  UNL     1      -4.767  -1.470   0.852  1.00  0.00     0.205 HD
ATOM      9  H3  UNL     1      -4.519   1.855   0.276  1.00  0.00     0.213 HD
ATOM     10  H4  UNL     1      -2.461  -1.539  -0.610  1.00  0.00     0.206 HD
BRANCH   6  11
HETATM   11  N1  UNL     1      -6.102  -0.210  -0.093  1.00  0.00    -0.331 N 
ATOM     12  H12 UNL     1      -6.156   0.655  -0.631  1.00  0.00     0.177 HD
ATOM     13  H11 UNL     1      -6.965  -0.716   0.108  1.00  0.00     0.177 HD
ENDBRANCH   6  11
BRANCH   7  14
HETATM   14  O1  UNL     1      -2.552   2.148  -0.197  1.00  0.00    -0.276 OA
ATOM     15  H1  UNL     1      -2.553   3.098  -0.180  1.00  0.00     0.245 HD
ENDBRANCH   7  14
ENDBRANCH   1   4
BRANCH   3  16
HETATM   16  O2  UNL     1      -0.203  -2.011  -0.244  1.00  0.00    -0.331 OA
ATOM     17  H2  UNL     1       0.609  -2.504  -0.230  1.00  0.00     0.221 HD
ENDBRANCH   3  16
BRANCH   3  18
HETATM   18  N6  UNL     1       1.135   0.027   0.025  1.00  0.00    -0.286 N 
HETATM   19  C3  UNL     1       2.365  -0.682   0.050  1.00  0.00     0.282 C 
HETATM   20  O3  UNL     1       2.326  -1.930  -0.060  1.00  0.00    -0.265 OA
ATOM     21  H6  UNL     1       1.153   1.043   0.114  1.00  0.00     0.172 HD
BRANCH  19  22
HETATM   22  C4  UNL     1       3.649  -0.008   0.199  1.00  0.00     0.142 A 
HETATM   23  C5  UNL     1       4.885  -0.614   0.233  1.00  0.00     0.045 A 
HETATM   24  C6  UNL     1       5.823   0.387   0.385  1.00  0.00     0.027 A 
HETATM   25  C7  UNL     1       5.115   1.562   0.437  1.00  0.00     0.143 A 
HETATM   26  O4  UNL     1       3.823   1.274   0.321  1.00  0.00    -0.317 OA
ENDBRANCH  19  22
ENDBRANCH   3  18
TORSDOF 6
