REMARK  10 active torsions:
REMARK  status: ('A' for Active; 'I' for Inactive)
REMARK    1  A    between atoms: C2_2  and  C4_4 
REMARK    2  A    between atoms: C4_4  and  N1_5 
REMARK       I    between atoms: N1_5  and  C5_7 
REMARK    3  A    between atoms: C5_7  and  C6_9 
REMARK       I    between atoms: N2_13  and  C10_14 
REMARK    4  A    between atoms: C10_14  and  C11_16 
REMARK    5  A    between atoms: C11_16  and  C12_17 
REMARK    6  A    between atoms: C11_16  and  N3_21 
REMARK    7  A    between atoms: C12_17  and  C13_18 
REMARK       I    between atoms: N3_21  and  C16_23 
REMARK    8  A    between atoms: C16_23  and  C17_25 
REMARK    9  A    between atoms: C20_28  and  C21_29 
REMARK   10  A    between atoms: C21_29  and  N4_30 
ROOT
HETATM    1  C11 UNL     1      -0.869  -2.212  -0.844  1.00  0.00     0.177 C 
ENDROOT
BRANCH   1   2
HETATM    2  C10 UNL     1       0.398  -1.503  -1.116  1.00  0.00     0.243 C 
HETATM    3  N2  UNL     1       1.652  -1.675  -0.522  1.00  0.00    -0.337 N 
HETATM    4  C6  UNL     1       2.878  -0.909  -0.867  1.00  0.00     0.179 C 
HETATM    5  C9  UNL     1       1.983  -2.595   0.542  1.00  0.00     0.127 C 
HETATM    6  C7  UNL     1       3.973  -1.812  -0.372  1.00  0.00     0.037 C 
HETATM    7  C8  UNL     1       3.398  -2.193   1.003  1.00  0.00     0.022 C 
HETATM    8  O2  UNL     1       0.357  -0.580  -2.030  1.00  0.00    -0.271 OA
BRANCH   4   9
HETATM    9  C5  UNL     1       2.873   0.384  -0.151  1.00  0.00     0.240 C 
HETATM   10  N1  UNL     1       3.895   1.349  -0.239  1.00  0.00    -0.359 N 
ATOM     11  H1  UNL     1       4.697   1.150  -0.837  1.00  0.00     0.162 HD
HETATM   12  O1  UNL     1       1.894   0.651   0.594  1.00  0.00    -0.271 OA
BRANCH  10  13
HETATM   13  C4  UNL     1       3.868   2.605   0.472  1.00  0.00     0.126 C 
BRANCH  13  14
HETATM   14  C2  UNL     1       5.086   3.422   0.184  1.00  0.00    -0.005 C 
HETATM   15  C1  UNL     1       6.368   2.743   0.573  1.00  0.00     0.011 C 
HETATM   16  C3  UNL     1       4.956   4.789   0.825  1.00  0.00     0.011 C 
ENDBRANCH  13  14
ENDBRANCH  10  13
ENDBRANCH   4   9
ENDBRANCH   1   2
BRANCH   1  17
HETATM   17  C12 UNL     1      -1.300  -3.164  -1.910  1.00  0.00     0.038 C 
BRANCH  17  18
HETATM   18  C13 UNL     1      -0.408  -4.305  -2.217  1.00  0.00    -0.020 C 
HETATM   19  C14 UNL     1      -0.215  -5.238  -1.045  1.00  0.00     0.009 C 
HETATM   20  C15 UNL     1      -0.939  -5.120  -3.372  1.00  0.00     0.009 C 
ENDBRANCH  17  18
ENDBRANCH   1  17
BRANCH   1  21
HETATM   21  N3  UNL     1      -1.930  -1.166  -0.839  1.00  0.00    -0.347 N 
HETATM   22  C16 UNL     1      -2.587  -0.917   0.382  1.00  0.00     0.222 C 
HETATM   23  O3  UNL     1      -2.290  -1.553   1.411  1.00  0.00    -0.273 OA
ATOM     24  H3  UNL     1      -2.171  -0.651  -1.686  1.00  0.00     0.163 HD
BRANCH  22  25
HETATM   25  C17 UNL     1      -3.649   0.144   0.371  1.00  0.00     0.078 C 
HETATM   26  C18 UNL     1      -3.027   1.428  -0.139  1.00  0.00     0.014 C 
HETATM   27  C19 UNL     1      -3.941   2.614   0.081  1.00  0.00     0.007 C 
HETATM   28  C20 UNL     1      -4.235   2.835   1.539  1.00  0.00     0.011 C 
HETATM   29  C22 UNL     1      -4.064   1.614   2.377  1.00  0.00     0.007 C 
HETATM   30  C23 UNL     1      -4.313   0.314   1.692  1.00  0.00     0.014 C 
BRANCH  28  31
HETATM   31  C21 UNL     1      -5.695   3.271   1.638  1.00  0.00     0.234 C 
BRANCH  31  32
HETATM   32  N4  UNL     1      -5.923   4.479   0.904  1.00  0.00    -0.079 N 
ATOM     33  H43 UNL     1      -5.288   5.222   1.197  1.00  0.00     0.274 HD
ATOM     34  H42 UNL     1      -5.622   4.391  -0.067  1.00  0.00     0.274 HD
ATOM     35  H41 UNL     1      -6.898   4.770   0.970  1.00  0.00     0.274 HD
ENDBRANCH  31  32
ENDBRANCH  28  31
ENDBRANCH  22  25
ENDBRANCH   1  21
TORSDOF 10
