REMARK  4 active torsions:
REMARK  status: ('A' for Active; 'I' for Inactive)
REMARK    1  A    between atoms: C3_5  and  N2_6 
REMARK    2  A    between atoms: C4_11  and  N4_12 
REMARK    3  A    between atoms: C5_15  and  C6_16 
REMARK    4  A    between atoms: C6_16  and  N5_17 
ROOT
HETATM    1  C1  UNL     1       1.745   1.879   1.475  1.00  0.00     0.070 C 
HETATM    2  C2  UNL     1       1.923   0.759   0.523  1.00  0.00     0.038 A 
HETATM    3  N1  UNL     1       3.152   0.394   0.178  1.00  0.00    -0.195 N 
ATOM      4  H1  UNL     1       3.962   0.879   0.564  1.00  0.00     0.184 HD
HETATM    5  C3  UNL     1       3.316  -0.629  -0.692  1.00  0.00     0.677 A 
HETATM    6  N3  UNL     1       2.233  -1.250  -1.184  1.00  0.00    -0.176 N 
ATOM      7  H3  UNL     1       2.359  -2.021  -1.839  1.00  0.00     0.186 HD
HETATM    8  C4  UNL     1       0.960  -0.877  -0.831  1.00  0.00     0.128 A 
HETATM    9  C5  UNL     1       0.753   0.144   0.037  1.00  0.00     0.046 A 
ENDROOT
BRANCH   9  10
HETATM   10  C6  UNL     1      -0.540   0.610   0.515  1.00  0.00     0.111 C 
BRANCH  10  11
HETATM   11  N5  UNL     1      -1.747   0.103   0.047  1.00  0.00    -0.329 N 
HETATM   12  C7  UNL     1      -2.413   0.439  -1.221  1.00  0.00     0.150 C 
HETATM   13  C8  UNL     1      -3.826   0.648  -0.608  1.00  0.00     0.142 C 
HETATM   14  N6  UNL     1      -3.874  -0.510   0.250  1.00  0.00    -0.363 N 
HETATM   15  C9  UNL     1      -2.691  -0.828   0.630  1.00  0.00     0.190 C 
ATOM     16  H6  UNL     1      -4.725  -1.005   0.516  1.00  0.00     0.162 HD
HETATM   17  N7  UNL     1      -2.255  -1.886   1.490  1.00  0.00    -0.063 NA
ENDBRANCH  10  11
ENDBRANCH   9  10
BRANCH   8  18
HETATM   18  N4  UNL     1       0.026  -1.566  -1.350  1.00  0.00    -0.384 N 
ATOM     19  H42 UNL     1       0.182  -2.334  -2.003  1.00  0.00     0.157 HD
ATOM     20  H41 UNL     1      -0.920  -1.289  -1.088  1.00  0.00     0.157 HD
ENDBRANCH   8  18
BRANCH   5  21
HETATM   21  N2  UNL     1       4.514  -0.992  -1.034  1.00  0.00    -0.234 N 
ATOM     22  H22 UNL     1       5.337  -0.520  -0.660  1.00  0.00     0.174 HD
ATOM     23  H21 UNL     1       4.638  -1.763  -1.690  1.00  0.00     0.174 HD
ENDBRANCH   5  21
TORSDOF 4
