REMARK  11 active torsions:
REMARK  status: ('A' for Active; 'I' for Inactive)
REMARK    1  A    between atoms: C2_2  and  C3_3 
REMARK    2  A    between atoms: C3_3  and  O1_4 
REMARK    3  A    between atoms: O1_4  and  C4_5 
REMARK    4  A    between atoms: C12_13  and  C13_14 
REMARK    5  A    between atoms: C13_14  and  C14_15 
REMARK    6  A    between atoms: C19_20  and  C20_21 
REMARK    7  A    between atoms: C20_21  and  O2_22 
REMARK    8  A    between atoms: C20_21  and  C21_24 
REMARK    9  A    between atoms: C21_24  and  N1_25 
REMARK   10  A    between atoms: N1_25  and  C22_27 
REMARK   11  A    between atoms: C25_30  and  O3_31 
ROOT
HETATM    1  C14 UNL     1       0.895   0.269  -1.066  1.00  0.00    -0.057 A 
HETATM    2  C15 UNL     1       1.139   1.342  -1.932  1.00  0.00     0.007 A 
HETATM    3  C16 UNL     1       0.234   2.350  -2.157  1.00  0.00     0.008 A 
HETATM    4  C17 UNL     1      -0.989   2.319  -1.500  1.00  0.00    -0.053 A 
HETATM    5  C18 UNL     1      -1.994   3.420  -1.738  1.00  0.00     0.049 C 
HETATM    6  C19 UNL     1      -1.263   1.281  -0.644  1.00  0.00    -0.018 A 
HETATM    7  C28 UNL     1      -0.329   0.289  -0.446  1.00  0.00     0.017 A 
ENDROOT
BRANCH   1   8
HETATM    8  C13 UNL     1       1.915  -0.797  -0.908  1.00  0.00     0.044 C 
BRANCH   8   9
HETATM    9  C12 UNL     1       2.941  -0.397   0.054  1.00  0.00     0.004 C 
HETATM   10  C7  UNL     1       4.044  -1.356   0.317  1.00  0.00    -0.010 C 
HETATM   11  C4  UNL     1       5.164  -1.360  -0.728  1.00  0.00     0.130 C 
HETATM   12  C6  UNL     1       3.890  -2.795   0.056  1.00  0.00     0.015 C 
HETATM   13  C8  UNL     1       4.595  -1.055   1.678  1.00  0.00     0.013 C 
HETATM   14  C5  UNL     1       5.376  -2.807  -0.350  1.00  0.00     0.034 C 
HETATM   15  C9  UNL     1       3.798   0.134   2.152  1.00  0.00     0.005 C 
HETATM   16  C10 UNL     1       2.445  -0.102   1.442  1.00  0.00    -0.013 C 
HETATM   17  C11 UNL     1       1.784  -1.234   2.144  1.00  0.00     0.010 C 
BRANCH  11  18
HETATM   18  O1  UNL     1       6.212  -0.493  -0.486  1.00  0.00    -0.381 OA
BRANCH  18  19
HETATM   19  C3  UNL     1       6.449   0.268  -1.655  1.00  0.00     0.194 C 
BRANCH  19  20
HETATM   20  C2  UNL     1       7.572   1.215  -1.474  1.00  0.00    -0.011 C 
HETATM   21  C1  UNL     1       8.239   1.305  -0.347  1.00  0.00     0.009 C 
ENDBRANCH  19  20
ENDBRANCH  18  19
ENDBRANCH  11  18
ENDBRANCH   8   9
ENDBRANCH   1   8
BRANCH   6  22
HETATM   22  C20 UNL     1      -2.598   1.282   0.034  1.00  0.00     0.189 C 
BRANCH  22  23
HETATM   23  O2  UNL     1      -2.686   2.394   0.891  1.00  0.00    -0.386 OA
ATOM     24  H2  UNL     1      -3.533   2.395   1.321  1.00  0.00     0.210 HD
ENDBRANCH  22  23
BRANCH  22  25
HETATM   25  C21 UNL     1      -2.840   0.034   0.800  1.00  0.00     0.092 C 
BRANCH  25  26
HETATM   26  N1  UNL     1      -4.077  -0.020   1.425  1.00  0.00    -0.395 N 
ATOM     27  H1  UNL     1      -4.072   0.052   2.442  1.00  0.00     0.159 HD
BRANCH  26  28
HETATM   28  C22 UNL     1      -5.307  -0.159   0.831  1.00  0.00     0.081 C 
HETATM   29  C23 UNL     1      -5.818   0.882  -0.098  1.00  0.00     0.027 C 
HETATM   30  C24 UNL     1      -7.335   0.825  -0.155  1.00  0.00     0.034 C 
HETATM   31  C25 UNL     1      -7.914  -0.492   0.214  1.00  0.00     0.118 C 
HETATM   32  C26 UNL     1      -7.058  -1.687   0.019  1.00  0.00     0.034 C 
HETATM   33  C27 UNL     1      -5.586  -1.508   0.165  1.00  0.00     0.027 C 
BRANCH  31  34
HETATM   34  O3  UNL     1      -8.498  -0.469   1.511  1.00  0.00    -0.396 OA
ATOM     35  H3  UNL     1      -8.868  -1.311   1.747  1.00  0.00     0.210 HD
ENDBRANCH  31  34
ENDBRANCH  26  28
ENDBRANCH  25  26
ENDBRANCH  22  25
ENDBRANCH   6  22
TORSDOF 11
