REMARK  10 active torsions:
REMARK  status: ('A' for Active; 'I' for Inactive)
REMARK    1  A    between atoms: C4_5  and  N2_6 
REMARK    2  A    between atoms: N2_6  and  S1_8 
REMARK    3  A    between atoms: S1_8  and  N3_11 
REMARK    4  A    between atoms: N3_11  and  C5_13 
REMARK    5  A    between atoms: C5_13  and  C6_14 
REMARK    6  A    between atoms: C6_14  and  C7_15 
REMARK    7  A    between atoms: C7_15  and  C8_16 
REMARK    8  A    between atoms: C8_16  and  C9_17 
REMARK    9  A    between atoms: C9_17  and  C10_18 
REMARK   10  A    between atoms: C10_18  and  C11_19 
ROOT
HETATM    1  N3  UNL     1       0.891  -0.044  -1.060  1.00  0.00    -0.303 N 
ATOM      2  H3  UNL     1       0.099   0.466  -1.451  1.00  0.00     0.173 HD
ENDROOT
BRANCH   1   3
HETATM    3  S1  UNL     1       2.034  -0.929  -2.002  1.00  0.00     0.315 S 
HETATM    4  O1  UNL     1       2.486  -2.094  -1.147  1.00  0.00    -0.183 OA
HETATM    5  O2  UNL     1       1.287  -1.518  -3.160  1.00  0.00    -0.183 OA
BRANCH   3   6
HETATM    6  N2  UNL     1       3.309   0.083  -2.456  1.00  0.00    -0.298 N 
ATOM      7  H2  UNL     1       3.295   0.622  -3.322  1.00  0.00     0.174 HD
BRANCH   6   8
HETATM    8  C4  UNL     1       4.413   0.131  -1.539  1.00  0.00     0.097 C 
HETATM    9  C3  UNL     1       5.690  -0.430  -2.132  1.00  0.00     0.045 C 
HETATM   10  C2  UNL     1       6.579  -0.775  -0.934  1.00  0.00     0.118 C 
HETATM   11  N1  UNL     1       6.619   0.276   0.030  1.00  0.00    -0.416 N 
HETATM   12  C1  UNL     1       6.387  -0.114   1.376  1.00  0.00     0.143 C 
HETATM   13  C17 UNL     1       6.067   1.516  -0.372  1.00  0.00     0.118 C 
HETATM   14  C16 UNL     1       4.708   1.475  -0.982  1.00  0.00     0.045 C 
ENDBRANCH   6   8
ENDBRANCH   3   6
ENDBRANCH   1   3
BRANCH   1  15
HETATM   15  C5  UNL     1       1.195  -0.114   0.355  1.00  0.00     0.133 C 
BRANCH  15  16
HETATM   16  C6  UNL     1       0.193   0.662   1.180  1.00  0.00     0.020 C 
BRANCH  16  17
HETATM   17  C7  UNL     1      -1.219   0.125   0.994  1.00  0.00     0.002 C 
BRANCH  17  18
HETATM   18  C8  UNL     1      -2.101   0.984   1.867  1.00  0.00     0.000 C 
BRANCH  18  19
HETATM   19  C9  UNL     1      -3.531   0.540   1.786  1.00  0.00     0.004 C 
BRANCH  19  20
HETATM   20  C10 UNL     1      -4.029   0.650   0.382  1.00  0.00     0.035 C 
BRANCH  20  21
HETATM   21  C11 UNL     1      -5.461   0.213   0.372  1.00  0.00    -0.058 C 
HETATM   22  C12 UNL     1      -6.379   1.082  -0.030  1.00  0.00    -0.021 C 
HETATM   23  C13 UNL     1      -7.802   0.646  -0.039  1.00  0.00     0.055 C 
HETATM   24  C14 UNL     1      -7.811  -0.833  -0.374  1.00  0.00     0.236 C 
HETATM   25  N4  UNL     1      -7.134  -1.515   0.694  1.00  0.00    -0.071 N 
HETATM   26  C15 UNL     1      -5.756  -1.158   0.811  1.00  0.00     0.266 C 
ATOM     27  H42 UNL     1      -7.621  -1.374   1.579  1.00  0.00     0.277 HD
ATOM     28  H41 UNL     1      -7.239  -2.525   0.602  1.00  0.00     0.277 HD
ENDBRANCH  20  21
ENDBRANCH  19  20
ENDBRANCH  18  19
ENDBRANCH  17  18
ENDBRANCH  16  17
ENDBRANCH  15  16
ENDBRANCH   1  15
TORSDOF 10
