REMARK  4 active torsions:
REMARK  status: ('A' for Active; 'I' for Inactive)
REMARK    1  A    between atoms: N1_2  and  O1_3 
REMARK    2  A    between atoms: N2_5  and  C2_7 
REMARK    3  A    between atoms: C3_8  and  C4_9 
REMARK    4  A    between atoms: C5_13  and  C6_14 
ROOT
HETATM    1  C2  UNL     1       0.217   0.089   0.227  1.00  0.00     0.097 A 
HETATM    2  C3  UNL     1       0.503   1.432   0.235  1.00  0.00     0.112 A 
HETATM    3  S1  UNL     1       2.095   1.496  -0.357  1.00  0.00    -0.072 SA
HETATM    4  C5  UNL     1       2.375  -0.170  -0.606  1.00  0.00     0.106 A 
HETATM    5  C7  UNL     1       1.198  -0.734  -0.213  1.00  0.00     0.087 A 
HETATM    6 CL1  UNL     1       0.982  -2.504  -0.285  1.00  0.00    -0.080 Cl
ENDROOT
BRANCH   1   7
HETATM    7  N2  UNL     1      -1.112  -0.337   0.690  1.00  0.00    -0.277 N 
HETATM    8  N1  UNL     1      -2.048  -0.493  -0.145  1.00  0.00    -0.206 N 
HETATM    9  C1  UNL     1      -3.327  -0.915   0.394  1.00  0.00     0.207 C 
ATOM     10  H2  UNL     1      -1.278  -0.506   1.682  1.00  0.00     0.189 HD
BRANCH   8  11
HETATM   11  O1  UNL     1      -1.939  -0.296  -1.487  1.00  0.00    -0.273 OA
ATOM     12  H1  UNL     1      -1.101  -0.020  -1.840  1.00  0.00     0.246 HD
ENDBRANCH   8  11
ENDBRANCH   1   7
BRANCH   2  13
HETATM   13  C4  UNL     1      -0.338   2.546   0.648  1.00  0.00     0.219 C 
HETATM   14  O2  UNL     1       0.124   3.699   0.574  1.00  0.00    -0.643 OA
HETATM   15  O3  UNL     1      -1.617   2.343   1.111  1.00  0.00    -0.643 OA
ENDBRANCH   2  13
BRANCH   4  16
HETATM   16  C6  UNL     1       3.583  -0.844  -1.119  1.00  0.00     0.218 C 
HETATM   17  O4  UNL     1       4.557  -0.141  -1.424  1.00  0.00    -0.643 OA
HETATM   18  O5  UNL     1       3.633  -2.205  -1.255  1.00  0.00    -0.643 OA
ENDBRANCH   4  16
TORSDOF 4
