REMARK  2 active torsions:
REMARK  status: ('A' for Active; 'I' for Inactive)
REMARK    1  A    between atoms: C3_7  and  N2_8 
REMARK    2  A    between atoms: N2_8  and  C4_10 
ROOT
HETATM    1  N2  UNL     1       0.544   0.618   0.815  1.00  0.00    -0.343 N 
ATOM      2  H2  UNL     1       0.334   1.051   1.714  1.00  0.00     0.163 HD
ENDROOT
BRANCH   1   3
HETATM    3  C3  UNL     1      -0.496   0.464  -0.168  1.00  0.00     0.287 C 
HETATM    4  N1  UNL     1      -1.488   1.500  -0.126  1.00  0.00    -0.053 N 
HETATM    5  C2  UNL     1      -2.426   1.030  -1.131  1.00  0.00     0.251 C 
ATOM      6  H12 UNL     1      -1.137   2.448  -0.264  1.00  0.00     0.279 HD
ATOM      7  H11 UNL     1      -1.888   1.686   0.794  1.00  0.00     0.279 HD
HETATM    8  C1  UNL     1      -2.563  -0.433  -0.787  1.00  0.00     0.088 C 
HETATM    9  S1  UNL     1      -4.063  -0.652   0.210  1.00  0.00    -0.090 SA
HETATM   10  C7  UNL     1      -1.312  -0.782   0.009  1.00  0.00     0.072 C 
ENDBRANCH   1   3
BRANCH   1  11
HETATM   11  C4  UNL     1       1.757   0.204   0.559  1.00  0.00     0.147 A 
HETATM   12  N3  UNL     1       2.829   0.269   1.350  1.00  0.00    -0.344 N 
HETATM   13  C5  UNL     1       3.958  -0.200   0.915  1.00  0.00     0.121 A 
ATOM     14  H3  UNL     1       2.762   0.680   2.281  1.00  0.00     0.167 HD
HETATM   15  C6  UNL     1       3.999  -0.742  -0.343  1.00  0.00     0.093 A 
HETATM   16 CL1  UNL     1       5.370  -1.452  -1.205  1.00  0.00    -0.075 Cl
HETATM   17  S2  UNL     1       2.363  -0.545  -0.851  1.00  0.00    -0.041 SA
ENDBRANCH   1  11
TORSDOF 2
