REMARK  15 active torsions:
REMARK  status: ('A' for Active; 'I' for Inactive)
REMARK    1  A    between atoms: C2_4  and  O1_5 
REMARK    2  A    between atoms: C2_4  and  C4_7 
REMARK    3  A    between atoms: C4_7  and  N2_8 
REMARK    4  A    between atoms: C4_7  and  C12_34 
REMARK       I    between atoms: N2_8  and  C5_10 
REMARK    5  A    between atoms: C5_10  and  C6_12 
REMARK    6  A    between atoms: C6_12  and  N3_13 
REMARK    7  A    between atoms: C6_12  and  C7_17 
REMARK    8  A    between atoms: C7_17  and  O3_18 
REMARK    9  A    between atoms: C7_17  and  N4_20 
REMARK   10  A    between atoms: N4_20  and  C8_22 
REMARK   11  A    between atoms: C9_26  and  C10_27 
REMARK   12  A    between atoms: C10_27  and  O5_28 
REMARK   13  A    between atoms: C10_27  and  O6_30 
REMARK   14  A    between atoms: C14_36  and  C15_37 
REMARK   15  A    between atoms: C20_42  and  N7_43 
ROOT
HETATM    1  N2  UNL     1      -0.319   0.031   0.587  1.00  0.00    -0.342 N 
ATOM      2  H2  UNL     1      -0.116  -0.691  -0.105  1.00  0.00     0.163 HD
HETATM    3  C5  UNL     1       0.726   0.887   0.982  1.00  0.00     0.253 C 
HETATM    4  O2  UNL     1       0.414   1.773   1.847  1.00  0.00    -0.271 OA
ENDROOT
BRANCH   1   5
HETATM    5  C4  UNL     1      -1.667   0.119   1.109  1.00  0.00     0.211 C 
BRANCH   5   6
HETATM    6  C2  UNL     1      -2.168  -1.197   1.561  1.00  0.00     0.142 C 
HETATM    7  N1  UNL     1      -2.482  -1.451   2.771  1.00  0.00    -0.377 N 
HETATM    8  C1  UNL     1      -2.408  -0.532   3.873  1.00  0.00     0.148 C 
ATOM      9  H1  UNL     1      -2.816  -2.393   2.975  1.00  0.00     0.160 HD
BRANCH   6  10
HETATM   10  O1  UNL     1      -2.309  -2.218   0.635  1.00  0.00    -0.342 OA
HETATM   11  C3  UNL     1      -2.982  -3.420   0.964  1.00  0.00     0.211 C 
ENDBRANCH   6  10
ENDBRANCH   5   6
BRANCH   5  12
HETATM   12  C12 UNL     1      -2.519   0.650  -0.009  1.00  0.00     0.066 A 
HETATM   13  C13 UNL     1      -3.751   0.159  -0.407  1.00  0.00     0.070 A 
HETATM   14  C14 UNL     1      -4.219   0.931  -1.480  1.00  0.00     0.113 A 
HETATM   15  O9  UNL     1      -3.274   1.800  -1.650  1.00  0.00    -0.237 OA
HETATM   16  N8  UNL     1      -2.287   1.677  -0.834  1.00  0.00    -0.262 N 
ATOM     17  H8  UNL     1      -1.457   2.270  -0.819  1.00  0.00     0.194 HD
BRANCH  14  18
HETATM   18  C15 UNL     1      -5.490   0.687  -2.145  1.00  0.00     0.033 A 
HETATM   19  C16 UNL     1      -6.362  -0.288  -1.618  1.00  0.00     0.017 A 
HETATM   20  C17 UNL     1      -7.597  -0.559  -2.153  1.00  0.00     0.001 A 
HETATM   21  C18 UNL     1      -8.046   0.128  -3.256  1.00  0.00     0.002 A 
HETATM   22  C19 UNL     1      -7.230   1.071  -3.786  1.00  0.00     0.037 A 
HETATM   23  C20 UNL     1      -5.949   1.357  -3.238  1.00  0.00     0.116 A 
BRANCH  23  24
HETATM   24  N7  UNL     1      -5.212   2.370  -3.902  1.00  0.00    -0.115 N 
HETATM   25  O7  UNL     1      -5.877   3.329  -4.447  1.00  0.00    -0.532 OA
HETATM   26  O8  UNL     1      -3.868   2.385  -3.988  1.00  0.00    -0.532 OA
ENDBRANCH  23  24
ENDBRANCH  14  18
ENDBRANCH   5  12
ENDBRANCH   1   5
BRANCH   3  27
HETATM   27  C6  UNL     1       2.114   0.834   0.479  1.00  0.00     0.322 C 
BRANCH  27  28
HETATM   28  N3  UNL     1       2.829   2.009   0.953  1.00  0.00    -0.062 N 
ATOM     29  H33 UNL     1       2.357   2.879   0.705  1.00  0.00     0.275 HD
ATOM     30  H32 UNL     1       2.785   2.109   1.967  1.00  0.00     0.275 HD
ATOM     31  H31 UNL     1       3.787   1.972   0.606  1.00  0.00     0.275 HD
ENDBRANCH  27  28
BRANCH  27  32
HETATM   32  C7  UNL     1       2.778  -0.432   1.044  1.00  0.00     0.259 C 
BRANCH  32  33
HETATM   33  O3  UNL     1       2.043  -1.511   0.548  1.00  0.00    -0.374 OA
ATOM     34  H3  UNL     1       2.453  -2.293   0.897  1.00  0.00     0.212 HD
ENDBRANCH  32  33
BRANCH  32  35
HETATM   35  N4  UNL     1       4.115  -0.595   0.581  1.00  0.00    -0.345 N 
ATOM     36  H4  UNL     1       4.213  -1.093  -0.304  1.00  0.00     0.163 HD
BRANCH  35  37
HETATM   37  C8  UNL     1       5.198  -0.211   1.109  1.00  0.00     0.150 A 
HETATM   38  N5  UNL     1       5.445   0.458   2.248  1.00  0.00    -0.243 N 
HETATM   39  O4  UNL     1       6.722   0.646   2.390  1.00  0.00    -0.233 OA
ATOM     40  H5  UNL     1       4.732   0.773   2.906  1.00  0.00     0.196 HD
HETATM   41  C9  UNL     1       7.400   0.138   1.400  1.00  0.00     0.158 A 
HETATM   42  C11 UNL     1       6.456  -0.426   0.548  1.00  0.00     0.128 A 
HETATM   43  N6  UNL     1       6.675  -1.105  -0.675  1.00  0.00    -0.095 NA
BRANCH  41  44
HETATM   44  C10 UNL     1       8.870   0.128   1.170  1.00  0.00     0.317 C 
BRANCH  44  45
HETATM   45  O5  UNL     1       9.584  -0.190   2.322  1.00  0.00    -0.365 OA
ATOM     46  H5  UNL     1      10.523  -0.196   2.175  1.00  0.00     0.213 HD
ENDBRANCH  44  45
BRANCH  44  47
HETATM   47  O6  UNL     1       9.327   1.277   0.540  1.00  0.00    -0.365 OA
ATOM     48  H6  UNL     1      10.266   1.271   0.393  1.00  0.00     0.213 HD
ENDBRANCH  44  47
ENDBRANCH  41  44
ENDBRANCH  35  37
ENDBRANCH  32  35
ENDBRANCH  27  32
ENDBRANCH   3  27
TORSDOF 15
