REMARK  7 active torsions:
REMARK  status: ('A' for Active; 'I' for Inactive)
REMARK    1  A    between atoms: C2_2  and  C3_3 
REMARK    2  A    between atoms: C3_3  and  N1_4 
REMARK    3  A    between atoms: C9_10  and  N2_11 
REMARK    4  A    between atoms: N2_11  and  C10_13 
REMARK    5  A    between atoms: C10_13  and  C11_14 
REMARK    6  A    between atoms: C11_14  and  C12_15 
REMARK    7  A    between atoms: C12_15  and  N3_16 
ROOT
HETATM    1  N1  UNL     1      -3.753   0.264   1.036  1.00  0.00     0.097 N 
HETATM    2  C4  UNL     1      -3.798  -1.114   1.352  1.00  0.00     0.278 C 
HETATM    3  C5  UNL     1      -3.120  -2.009   0.342  1.00  0.00     0.070 C 
HETATM    4  C6  UNL     1      -1.881  -1.350  -0.142  1.00  0.00    -0.032 A 
HETATM    5  C7  UNL     1      -0.672  -1.955  -0.281  1.00  0.00     0.013 A 
HETATM    6  C8  UNL     1       0.424  -1.220  -0.749  1.00  0.00     0.049 A 
HETATM    7  C9  UNL     1       0.277   0.108  -1.066  1.00  0.00     0.101 A 
HETATM    8  N6  UNL     1      -0.929   0.675  -0.917  1.00  0.00    -0.344 N 
ATOM      9  H6  UNL     1      -1.043   1.661  -1.151  1.00  0.00     0.167 HD
HETATM   10  C14 UNL     1      -1.989  -0.012  -0.471  1.00  0.00     0.045 A 
HETATM   11  C15 UNL     1      -3.343   0.599  -0.287  1.00  0.00     0.330 C 
ENDROOT
BRANCH   7  12
HETATM   12  N2  UNL     1       1.252   0.807  -1.493  1.00  0.00    -0.376 N 
ATOM     13  H2  UNL     1       1.061   1.786  -1.706  1.00  0.00     0.161 HD
BRANCH  12  14
HETATM   14  C10 UNL     1       2.594   0.345  -1.702  1.00  0.00     0.123 C 
BRANCH  14  15
HETATM   15  C11 UNL     1       3.422   0.377  -0.434  1.00  0.00     0.039 C 
BRANCH  15  16
HETATM   16  C12 UNL     1       4.805  -0.131  -0.780  1.00  0.00     0.123 C 
BRANCH  16  17
HETATM   17  N3  UNL     1       5.680  -0.143   0.363  1.00  0.00    -0.367 N 
HETATM   18  C13 UNL     1       6.690   0.644   0.395  1.00  0.00     0.196 C 
HETATM   19  N4  UNL     1       7.547   0.622   1.531  1.00  0.00    -0.067 NA
HETATM   20  N5  UNL     1       6.978   1.530  -0.658  1.00  0.00    -0.067 NA
ATOM     21  H3  UNL     1       5.497  -0.774   1.143  1.00  0.00     0.161 HD
ENDBRANCH  16  17
ENDBRANCH  15  16
ENDBRANCH  14  15
ENDBRANCH  12  14
ENDBRANCH   7  12
BRANCH   1  22
HETATM   22  C3  UNL     1      -4.935   1.009   1.378  1.00  0.00     0.299 C 
BRANCH  22  23
HETATM   23  C2  UNL     1      -6.107   0.630   0.559  1.00  0.00    -0.007 C 
HETATM   24  C1  UNL     1      -7.221   0.147   1.124  1.00  0.00     0.008 C 
ENDBRANCH  22  23
ENDBRANCH   1  22
TORSDOF 7
