REMARK  6 active torsions:
REMARK  status: ('A' for Active; 'I' for Inactive)
REMARK       I    between atoms: N5_14  and  C4_16 
REMARK    1  A    between atoms: C4_16  and  C5_18 
REMARK    2  A    between atoms: C5_18  and  N6_19 
REMARK       I    between atoms: N6_19  and  C6_21 
REMARK    3  A    between atoms: C6_21  and  C7_23 
REMARK    4  A    between atoms: C7_23  and  N7_24 
REMARK       I    between atoms: N7_24  and  C8_26 
REMARK    5  A    between atoms: C8_26  and  C9_28 
REMARK    6  A    between atoms: C9_28  and  N8_29 
REMARK       I    between atoms: N8_29  and  C10_31 
ROOT
HETATM    1  N1  UNL     1      -3.904   0.919  -1.541  1.00  0.00    -0.382 N 
ATOM      2  H11 UNL     1      -2.970   0.645  -1.236  1.00  0.00     0.157 HD
ATOM      3  H12 UNL     1      -4.015   1.720  -2.162  1.00  0.00     0.157 HD
HETATM    4  C1  UNL     1      -4.872   0.231  -1.120  1.00  0.00     0.149 A 
HETATM    5  N2  UNL     1      -6.130   0.600  -1.531  1.00  0.00    -0.291 N 
ATOM      6  H2  UNL     1      -6.247   1.401  -2.151  1.00  0.00     0.172 HD
HETATM    7  C2  UNL     1      -7.196  -0.082  -1.124  1.00  0.00     0.340 A 
HETATM    8  O1  UNL     1      -8.348   0.269  -1.510  1.00  0.00    -0.245 OA
HETATM    9  N3  UNL     1      -7.056  -1.142  -0.304  1.00  0.00    -0.250 N 
ATOM     10  H3  UNL     1      -7.880  -1.659   0.003  1.00  0.00     0.192 HD
HETATM   11  N4  UNL     1      -5.877  -1.508   0.097  1.00  0.00    -0.278 N 
ATOM     12  H4  UNL     1      -5.797  -2.314   0.717  1.00  0.00     0.189 HD
HETATM   13  C3  UNL     1      -4.723  -0.844  -0.287  1.00  0.00     0.167 A 
HETATM   14  N5  UNL     1      -3.674  -1.328   0.190  1.00  0.00    -0.308 N 
ATOM     15  H5  UNL     1      -3.890  -2.132   0.779  1.00  0.00     0.170 HD
HETATM   16  C4  UNL     1      -2.344  -1.111   0.163  1.00  0.00     0.241 C 
HETATM   17  O2  UNL     1      -1.611  -1.602  -0.764  1.00  0.00    -0.271 OA
ENDROOT
BRANCH  16  18
HETATM   18  C5  UNL     1      -1.671  -0.289   1.215  1.00  0.00     0.225 C 
BRANCH  18  19
HETATM   19  N6  UNL     1      -0.227  -0.202   0.966  1.00  0.00    -0.351 N 
HETATM   20  C6  UNL     1       0.546   0.530   1.857  1.00  0.00     0.235 C 
HETATM   21  O3  UNL     1      -0.036   1.092   2.849  1.00  0.00    -0.272 OA
ATOM     22  H6  UNL     1       0.196  -0.666   0.162  1.00  0.00     0.163 HD
BRANCH  20  23
HETATM   23  C7  UNL     1       1.983   0.723   1.769  1.00  0.00     0.225 C 
BRANCH  23  24
HETATM   24  N7  UNL     1       2.591   0.079   0.648  1.00  0.00    -0.351 N 
HETATM   25  C8  UNL     1       4.004   0.215   0.480  1.00  0.00     0.235 C 
HETATM   26  O4  UNL     1       4.656   0.879   1.300  1.00  0.00    -0.272 OA
ATOM     27  H7  UNL     1       2.033  -0.462  -0.013  1.00  0.00     0.163 HD
BRANCH  25  28
HETATM   28  C9  UNL     1       4.637  -0.450  -0.679  1.00  0.00     0.226 C 
BRANCH  28  29
HETATM   29  N8  UNL     1       6.058  -0.245  -0.765  1.00  0.00    -0.337 N 
HETATM   30  C10 UNL     1       6.652   1.029  -0.910  1.00  0.00     0.329 C 
HETATM   31  N9  UNL     1       8.069   1.162  -0.985  1.00  0.00    -0.040 NA
HETATM   32  O5  UNL     1       5.919   2.040  -0.972  1.00  0.00    -0.251 OA
ATOM     33  H8  UNL     1       6.668  -1.061  -0.719  1.00  0.00     0.164 HD
ENDBRANCH  28  29
ENDBRANCH  25  28
ENDBRANCH  23  24
ENDBRANCH  20  23
ENDBRANCH  18  19
ENDBRANCH  16  18
TORSDOF 6
