REMARK  2 active torsions:
REMARK  status: ('A' for Active; 'I' for Inactive)
REMARK    1  A    between atoms: N1_2  and  O1_3 
REMARK    2  A    between atoms: N1_2  and  N2_5 
ROOT
HETATM    1  N2  UNL     1      -2.165  -1.118   0.132  1.00  0.00    -0.268 N 
ATOM      2  H2  UNL     1      -2.672  -1.945   0.448  1.00  0.00     0.190 HD
HETATM    3  C2  UNL     1      -0.896  -1.196   0.036  1.00  0.00     0.098 C 
HETATM    4  N3  UNL     1      -0.150  -2.369   0.343  1.00  0.00    -0.378 N 
ATOM      5  H3  UNL     1      -0.514  -3.312   0.477  1.00  0.00     0.160 HD
HETATM    6  C3  UNL     1       1.240  -1.944   0.426  1.00  0.00     0.126 C 
HETATM    7  C4  UNL     1       1.301  -0.880  -0.647  1.00  0.00     0.015 C 
HETATM    8  C5  UNL     1       2.540  -0.107  -0.694  1.00  0.00     0.007 C 
HETATM    9  C6  UNL     1       2.572   1.214  -0.032  1.00  0.00     0.000 C 
HETATM   10  C7  UNL     1       1.236   1.903   0.074  1.00  0.00     0.001 C 
HETATM   11  C8  UNL     1       0.284   0.883   0.700  1.00  0.00     0.013 C 
HETATM   12  C9  UNL     1       0.038  -0.109  -0.404  1.00  0.00     0.060 C 
ENDROOT
BRANCH   1  13
HETATM   13  N1  UNL     1      -2.903   0.024  -0.167  1.00  0.00    -0.205 N 
HETATM   14  C1  UNL     1      -3.802   0.540   0.843  1.00  0.00     0.207 C 
BRANCH  13  15
HETATM   15  O1  UNL     1      -2.812   0.670  -1.361  1.00  0.00    -0.273 OA
ATOM     16  H1  UNL     1      -2.222   0.331  -2.024  1.00  0.00     0.246 HD
ENDBRANCH  13  15
ENDBRANCH   1  13
TORSDOF 2
