REMARK  13 active torsions:
REMARK  status: ('A' for Active; 'I' for Inactive)
REMARK    1  A    between atoms: C2_2  and  C3_4 
REMARK       I    between atoms: C3_4  and  N1_6 
REMARK    2  A    between atoms: N1_6  and  C4_8 
REMARK    3  A    between atoms: C4_8  and  C5_9 
REMARK    4  A    between atoms: C5_9  and  O2_10 
REMARK    5  A    between atoms: C5_9  and  C6_12 
REMARK    6  A    between atoms: C7_13  and  O3_14 
REMARK    7  A    between atoms: C8_18  and  O4_19 
REMARK    8  A    between atoms: C9_21  and  N3_22 
REMARK    9  A    between atoms: N3_22  and  C10_24 
REMARK   10  A    between atoms: C10_24  and  C11_25 
REMARK   11  A    between atoms: C11_25  and  C12_26 
REMARK   12  A    between atoms: C18_33  and  C19_34 
REMARK   13  A    between atoms: C19_34  and  S1_35 
ROOT
HETATM    1  C5  UNL     1       0.684   1.890   0.122  1.00  0.00     0.225 C 
ENDROOT
BRANCH   1   2
HETATM    2  C4  UNL     1      -0.774   1.739   0.124  1.00  0.00     0.119 C 
HETATM    3  N4  UNL     1      -1.526   0.690   0.565  1.00  0.00    -0.348 N 
HETATM    4  C16 UNL     1      -2.913   1.055   0.848  1.00  0.00     0.130 C 
HETATM    5  C22 UNL     1      -1.458  -0.655   0.296  1.00  0.00     0.066 C 
HETATM    6  C17 UNL     1      -3.392   0.089   1.892  1.00  0.00     0.026 C 
HETATM    7  C18 UNL     1      -3.764  -1.213   1.213  1.00  0.00     0.006 C 
HETATM    8  C21 UNL     1      -2.743  -1.446   0.152  1.00  0.00     0.050 C 
BRANCH   2   9
HETATM    9  N1  UNL     1      -1.421   2.624  -0.829  1.00  0.00    -0.313 N 
HETATM   10  C3  UNL     1      -0.934   3.200  -1.976  1.00  0.00     0.237 C 
HETATM   11  O1  UNL     1       0.221   3.022  -2.434  1.00  0.00    -0.272 OA
ATOM     12  H1  UNL     1      -2.391   2.854  -0.612  1.00  0.00     0.170 HD
BRANCH  10  13
HETATM   13  C2  UNL     1      -1.771   4.134  -2.802  1.00  0.00     0.146 C 
HETATM   14  C1  UNL     1      -1.205   4.404  -4.155  1.00  0.00     0.032 C 
HETATM   15 BR1  UNL     1      -3.612   3.718  -2.874  1.00  0.00    -0.082 Br
ENDBRANCH  10  13
ENDBRANCH   2   9
BRANCH   7  16
HETATM   16  C19 UNL     1      -5.103  -1.102   0.472  1.00  0.00     0.145 C 
BRANCH  16  17
HETATM   17  S1  UNL     1      -5.578  -2.630  -0.274  1.00  0.00     0.141 S 
HETATM   18  C20 UNL     1      -5.786  -3.913   0.955  1.00  0.00     0.161 C 
HETATM   19  O5  UNL     1      -4.624  -3.141  -1.303  1.00  0.00    -0.228 OA
HETATM   20  O6  UNL     1      -6.912  -2.382  -0.958  1.00  0.00    -0.228 OA
ENDBRANCH  16  17
ENDBRANCH   7  16
ENDBRANCH   1   2
BRANCH   1  21
HETATM   21  O2  UNL     1       0.991   3.241   0.373  1.00  0.00    -0.383 OA
ATOM     22  H2  UNL     1       1.936   3.339   0.372  1.00  0.00     0.211 HD
ENDBRANCH   1  21
BRANCH   1  23
HETATM   23  C6  UNL     1       1.485   1.076   1.074  1.00  0.00     0.060 A 
HETATM   24  C7  UNL     1       1.912   1.660   2.276  1.00  0.00     0.153 A 
HETATM   25  N2  UNL     1       2.682   0.776   2.898  1.00  0.00    -0.315 N 
HETATM   26  C8  UNL     1       2.781  -0.336   2.184  1.00  0.00     0.170 A 
ATOM     27  H2  UNL     1       3.134   0.931   3.799  1.00  0.00     0.170 HD
HETATM   28  C9  UNL     1       2.028  -0.161   1.016  1.00  0.00     0.104 A 
BRANCH  24  29
HETATM   29  O3  UNL     1       1.589   2.958   2.750  1.00  0.00    -0.345 OA
ATOM     30  H3  UNL     1       1.878   3.353   3.564  1.00  0.00     0.219 HD
ENDBRANCH  24  29
BRANCH  26  31
HETATM   31  O4  UNL     1       3.473  -1.481   2.481  1.00  0.00    -0.344 OA
ATOM     32  H4  UNL     1       3.544  -2.278   1.969  1.00  0.00     0.219 HD
ENDBRANCH  26  31
BRANCH  28  33
HETATM   33  N3  UNL     1       1.975  -1.085  -0.062  1.00  0.00    -0.321 N 
ATOM     34  H3  UNL     1       1.087  -1.381  -0.466  1.00  0.00     0.175 HD
BRANCH  33  35
HETATM   35  C10 UNL     1       3.111  -1.537  -0.512  1.00  0.00    -0.070 C 
BRANCH  35  36
HETATM   36  C11 UNL     1       4.286  -1.673  -1.054  1.00  0.00     0.109 C 
BRANCH  36  37
HETATM   37  C12 UNL     1       5.339  -2.366  -0.325  1.00  0.00    -0.003 C 
HETATM   38  C13 UNL     1       6.263  -3.143  -1.229  1.00  0.00     0.005 C 
HETATM   39  C14 UNL     1       7.223  -1.976  -1.186  1.00  0.00     0.001 C 
HETATM   40  C15 UNL     1       6.533  -1.525   0.072  1.00  0.00     0.005 C 
ENDBRANCH  36  37
ENDBRANCH  35  36
ENDBRANCH  33  35
ENDBRANCH  28  33
ENDBRANCH   1  23
TORSDOF 13
