REMARK  4 active torsions:
REMARK  status: ('A' for Active; 'I' for Inactive)
REMARK    1  A    between atoms: C4_6  and  C5_7 
REMARK    2  A    between atoms: C10_14  and  C11_15 
REMARK    3  A    between atoms: C12_18  and  C13_19 
REMARK    4  A    between atoms: C13_19  and  O4_21 
ROOT
HETATM    1  C1  UNL     1       3.718   2.928   0.453  1.00  0.00     0.039 C 
HETATM    2  C2  UNL     1       2.533   2.215   0.993  1.00  0.00     0.006 C 
HETATM    3  C3  UNL     1       1.795   1.395   0.322  1.00  0.00     0.068 C 
HETATM    4  N1  UNL     1       0.668   0.677   0.725  1.00  0.00    -0.368 N 
ATOM      5  H1  UNL     1       0.185   0.861   1.604  1.00  0.00     0.161 HD
HETATM    6  C4  UNL     1       0.237  -0.350  -0.203  1.00  0.00     0.101 C 
HETATM    7  C9  UNL     1       0.429   0.161  -1.562  1.00  0.00     0.080 C 
HETATM    8  N2  UNL     1      -0.547  -0.053  -2.306  1.00  0.00    -0.370 N 
ATOM      9  H2  UNL     1      -0.593   0.226  -3.286  1.00  0.00     0.161 HD
HETATM   10  C10 UNL     1      -1.605  -0.745  -1.609  1.00  0.00     0.200 C 
HETATM   11  C12 UNL     1      -1.270  -0.452  -0.149  1.00  0.00     0.154 C 
HETATM   12  S1  UNL     1       2.063   0.952  -1.416  1.00  0.00    -0.057 SA
ENDROOT
BRANCH   6  13
HETATM   13  C5  UNL     1       0.918  -1.645   0.037  1.00  0.00    -0.019 C 
HETATM   14  C6  UNL     1       0.511  -2.745  -0.917  1.00  0.00     0.017 C 
HETATM   15  C7  UNL     1       2.426  -1.594  -0.021  1.00  0.00     0.017 C 
HETATM   16  C8  UNL     1       0.606  -2.191   1.438  1.00  0.00     0.017 C 
ENDBRANCH   6  13
BRANCH  11  17
HETATM   17  C13 UNL     1      -1.846   0.886   0.102  1.00  0.00     0.268 C 
HETATM   18  O3  UNL     1      -1.163   1.902  -0.167  1.00  0.00    -0.265 OA
BRANCH  17  19
HETATM   19  O4  UNL     1      -3.129   1.065   0.628  1.00  0.00    -0.326 OA
HETATM   20  C14 UNL     1      -3.605   2.393   0.834  1.00  0.00     0.213 C 
ENDBRANCH  17  19
ENDBRANCH  11  17
BRANCH  10  21
HETATM   21  C11 UNL     1      -2.903  -0.049  -1.924  1.00  0.00     0.197 C 
HETATM   22  O1  UNL     1      -2.911   1.006  -2.588  1.00  0.00    -0.646 OA
HETATM   23  O2  UNL     1      -4.092  -0.583  -1.478  1.00  0.00    -0.646 OA
ENDBRANCH  10  21
TORSDOF 4
