REMARK  5 active torsions:
REMARK  status: ('A' for Active; 'I' for Inactive)
REMARK    1  A    between atoms: O1_1  and  C1_3 
REMARK    2  A    between atoms: C1_3  and  C2_4 
REMARK    3  A    between atoms: C4_7  and  N1_8 
REMARK    4  A    between atoms: C9_16  and  O4_17 
REMARK    5  A    between atoms: C9_16  and  C10_19 
ROOT
HETATM    1  C2  UNL     1      -1.263  -0.919   0.719  1.00  0.00     0.183 C 
HETATM    2  O2  UNL     1      -0.363  -0.351   1.662  1.00  0.00    -0.368 OA
HETATM    3  C3  UNL     1       0.490   0.441   0.935  1.00  0.00     0.203 C 
HETATM    4  C4  UNL     1       1.370  -0.319  -0.009  1.00  0.00     0.260 C 
HETATM    5  O3  UNL     1       0.528   0.092  -1.052  1.00  0.00    -0.352 OA
HETATM    6  C8  UNL     1      -0.260   0.927  -0.274  1.00  0.00     0.195 C 
HETATM    7  C9  UNL     1      -1.646   0.332  -0.031  1.00  0.00     0.123 C 
ENDROOT
BRANCH   4   8
HETATM    8  N1  UNL     1       2.714   0.160  -0.149  1.00  0.00    -0.322 N 
HETATM    9  C5  UNL     1       3.763  -0.605  -0.524  1.00  0.00     0.111 A 
HETATM   10  C6  UNL     1       4.861   0.221  -0.537  1.00  0.00     0.106 A 
HETATM   11  N2  UNL     1       4.465   1.442  -0.178  1.00  0.00    -0.361 N 
HETATM   12  C7  UNL     1       3.136   1.395   0.060  1.00  0.00     0.184 A 
ATOM     13  H2  UNL     1       5.060   2.266  -0.097  1.00  0.00     0.166 HD
ENDBRANCH   4   8
BRANCH   1  14
HETATM   14  C1  UNL     1      -2.401  -1.590   1.433  1.00  0.00     0.199 C 
BRANCH  14  15
HETATM   15  O1  UNL     1      -3.284  -2.174   0.539  1.00  0.00    -0.398 OA
ATOM     16  H1  UNL     1      -4.004  -2.598   0.991  1.00  0.00     0.209 HD
ENDBRANCH  14  15
ENDBRANCH   1  14
BRANCH   7  17
HETATM   17  O4  UNL     1      -2.346   1.218   0.785  1.00  0.00    -0.384 OA
ATOM     18  H4  UNL     1      -2.587   2.006   0.313  1.00  0.00     0.210 HD
ENDBRANCH   7  17
BRANCH   7  19
HETATM   19  C10 UNL     1      -2.388   0.116  -1.301  1.00  0.00     0.129 C 
HETATM   20  S1  UNL     1      -2.720   1.767  -2.008  1.00  0.00    -0.094 SA
ENDBRANCH   7  19
TORSDOF 5
