REMARK  4 active torsions:
REMARK  status: ('A' for Active; 'I' for Inactive)
REMARK    1  A    between atoms: C6_6  and  N1_7 
REMARK       I    between atoms: N1_7  and  C7_9 
REMARK       I    between atoms: C7_9  and  N2_11 
REMARK    2  A    between atoms: N2_11  and  C8_13 
REMARK    3  A    between atoms: N3_17  and  C12_18 
REMARK    4  A    between atoms: C12_18  and  C13_19 
ROOT
HETATM    1  C8  UNL     1       0.047   1.915   0.080  1.00  0.00     0.114 A 
HETATM    2  C9  UNL     1       0.209   0.569   0.290  1.00  0.00     0.073 A 
HETATM    3  C10 UNL     1       1.428   0.064   0.785  1.00  0.00     0.016 A 
HETATM    4  C11 UNL     1       1.517  -1.387   0.993  1.00  0.00     0.068 C 
HETATM    5  N3  UNL     1       2.469   0.852   1.072  1.00  0.00    -0.299 N 
HETATM    6  C19 UNL     1       2.273   2.182   0.853  1.00  0.00     0.328 A 
HETATM    7  O2  UNL     1       3.211   2.974   1.108  1.00  0.00    -0.246 OA
HETATM    8  N4  UNL     1       1.103   2.683   0.375  1.00  0.00    -0.294 N 
ATOM      9  H4  UNL     1       1.026   3.690   0.235  1.00  0.00     0.172 HD
ENDROOT
BRANCH   1  10
HETATM   10  N2  UNL     1      -1.040   2.443  -0.371  1.00  0.00    -0.294 N 
HETATM   11  C7  UNL     1      -2.144   1.537  -0.668  1.00  0.00     0.326 C 
HETATM   12  N1  UNL     1      -3.115   1.335   0.302  1.00  0.00    -0.309 N 
HETATM   13  O1  UNL     1      -2.172   0.977  -1.785  1.00  0.00    -0.247 OA
ATOM     14  H1  UNL     1      -3.005   1.829   1.187  1.00  0.00     0.170 HD
ATOM     15  H2  UNL     1      -1.124   3.449  -0.514  1.00  0.00     0.172 HD
BRANCH  12  16
HETATM   16  C6  UNL     1      -4.245   0.497   0.159  1.00  0.00     0.036 A 
HETATM   17  C5  UNL     1      -4.905   0.048   1.320  1.00  0.00     0.029 A 
HETATM   18  C4  UNL     1      -6.011  -0.738   1.238  1.00  0.00     0.003 A 
HETATM   19  C3  UNL     1      -6.512  -1.115   0.013  1.00  0.00     0.007 A 
HETATM   20  C2  UNL     1      -5.902  -0.700  -1.142  1.00  0.00    -0.060 A 
HETATM   21  C1  UNL     1      -6.411  -1.084  -2.478  1.00  0.00     0.048 C 
HETATM   22  C20 UNL     1      -4.764   0.110  -1.031  1.00  0.00     0.036 A 
ENDBRANCH  12  16
ENDBRANCH   1  10
BRANCH   5  23
HETATM   23  C12 UNL     1       3.692   0.356   1.595  1.00  0.00     0.172 C 
BRANCH  23  24
HETATM   24  C13 UNL     1       4.709  -0.135   0.676  1.00  0.00    -0.034 A 
HETATM   25  C14 UNL     1       4.950  -1.502   0.640  1.00  0.00     0.051 A 
HETATM   26  C15 UNL     1       5.880  -2.077  -0.203  1.00  0.00     0.119 A 
HETATM   27  F1  UNL     1       6.069  -3.419  -0.192  1.00  0.00    -0.206 F 
HETATM   28  C16 UNL     1       6.590  -1.238  -1.036  1.00  0.00     0.084 A 
HETATM   29  C17 UNL     1       6.356   0.128  -1.005  1.00  0.00     0.119 A 
HETATM   30  F2  UNL     1       7.083   0.913  -1.848  1.00  0.00    -0.206 F 
HETATM   31  C18 UNL     1       5.420   0.664  -0.152  1.00  0.00     0.051 A 
ENDBRANCH  23  24
ENDBRANCH   5  23
TORSDOF 4
