REMARK  3 active torsions:
REMARK  status: ('A' for Active; 'I' for Inactive)
REMARK    1  A    between atoms: C3_5  and  N2_6 
REMARK    2  A    between atoms: N2_6  and  N3_8 
REMARK    3  A    between atoms: C4_10  and  C5_11 
ROOT
HETATM    1  C1  UNL     1      -2.303   2.599   0.746  1.00  0.00     0.040 C 
HETATM    2  C2  UNL     1      -1.741   1.465   0.360  1.00  0.00     0.030 C 
HETATM    3  N1  UNL     1      -0.466   1.004   0.767  1.00  0.00    -0.368 N 
ATOM      4  H1  UNL     1       0.117   1.463   1.466  1.00  0.00     0.161 HD
HETATM    5  C3  UNL     1      -0.101  -0.198   0.064  1.00  0.00     0.230 C 
HETATM    6  C8  UNL     1      -1.420  -0.708  -0.477  1.00  0.00     0.267 C 
HETATM    7  N5  UNL     1      -2.027  -1.509   0.555  1.00  0.00    -0.041 N 
ATOM      8  H51 UNL     1      -1.725  -1.272   1.500  1.00  0.00     0.279 HD
ATOM      9  H52 UNL     1      -1.707  -2.477   0.575  1.00  0.00     0.279 HD
HETATM   10  C9  UNL     1      -3.438  -1.359   0.332  1.00  0.00     0.464 C 
HETATM   11  N6  UNL     1      -3.615  -0.007  -0.126  1.00  0.00    -0.040 N 
ATOM     12  H61 UNL     1      -4.055   0.590   0.574  1.00  0.00     0.280 HD
ATOM     13  H62 UNL     1      -4.332   0.072  -0.847  1.00  0.00     0.280 HD
HETATM   14  C10 UNL     1      -2.345   0.493  -0.556  1.00  0.00     0.270 C 
ENDROOT
BRANCH   5  15
HETATM   15  N2  UNL     1       0.836   0.093  -0.989  1.00  0.00    -0.311 N 
ATOM     16  H2  UNL     1       1.148   1.050  -1.151  1.00  0.00     0.182 HD
BRANCH  15  17
HETATM   17  N3  UNL     1       1.309  -0.940  -1.780  1.00  0.00    -0.312 N 
HETATM   18  C4  UNL     1       2.481  -1.451  -1.699  1.00  0.00     0.143 C 
ATOM     19  H3  UNL     1       0.676  -1.324  -2.481  1.00  0.00     0.185 HD
BRANCH  18  20
HETATM   20  C5  UNL     1       3.380  -0.878  -0.675  1.00  0.00     0.090 A 
HETATM   21  N4  UNL     1       3.148   0.101   0.183  1.00  0.00    -0.359 N 
HETATM   22  C6  UNL     1       4.067   0.467   1.012  1.00  0.00     0.096 A 
ATOM     23  H4  UNL     1       2.241   0.568   0.190  1.00  0.00     0.166 HD
HETATM   24  C7  UNL     1       5.272  -0.185   0.969  1.00  0.00     0.069 A 
HETATM   25  S1  UNL     1       4.997  -1.313  -0.294  1.00  0.00    -0.082 SA
ENDBRANCH  18  20
ENDBRANCH  15  17
ENDBRANCH   5  15
TORSDOF 3
