REMARK  5 active torsions:
REMARK  status: ('A' for Active; 'I' for Inactive)
REMARK    1  A    between atoms: O1_2  and  C2_3 
REMARK    2  A    between atoms: C2_3  and  C3_5 
REMARK    3  A    between atoms: C5_8  and  S2_9 
REMARK    4  A    between atoms: S2_9  and  N1_12 
REMARK    5  A    between atoms: N2_15  and  C8_16 
ROOT
HETATM    1  S2  UNL     1       1.531   1.525  -0.028  1.00  0.00     0.244 S 
HETATM    2  O3  UNL     1       0.887   2.831  -0.395  1.00  0.00    -0.206 OA
HETATM    3  O4  UNL     1       1.512   1.524   1.505  1.00  0.00    -0.206 OA
ENDROOT
BRANCH   1   4
HETATM    4  C5  UNL     1       3.236   1.482  -0.548  1.00  0.00     0.088 A 
HETATM    5  C4  UNL     1       3.618   2.391  -1.539  1.00  0.00     0.075 A 
HETATM    6  S1  UNL     1       5.268   2.077  -1.760  1.00  0.00    -0.094 SA
HETATM    7  C3  UNL     1       5.470   0.823  -0.623  1.00  0.00     0.087 A 
HETATM    8  C16 UNL     1       4.210   0.681  -0.091  1.00  0.00    -0.015 A 
HETATM    9  C17 UNL     1       3.984  -0.382   0.981  1.00  0.00     0.051 C 
BRANCH   7  10
HETATM   10  C2  UNL     1       6.727   0.142  -0.305  1.00  0.00     0.300 C 
HETATM   11  O2  UNL     1       7.765   0.494  -0.977  1.00  0.00    -0.259 OA
BRANCH  10  12
HETATM   12  O1  UNL     1       6.917  -0.813   0.629  1.00  0.00    -0.322 OA
HETATM   13  C1  UNL     1       8.184  -1.375   0.851  1.00  0.00     0.213 C 
ENDBRANCH  10  12
ENDBRANCH   7  10
ENDBRANCH   1   4
BRANCH   1  14
HETATM   14  N1  UNL     1       0.567   0.246  -0.546  1.00  0.00    -0.203 NA
HETATM   15  C6  UNL     1      -0.001  -0.611   0.439  1.00  0.00     0.138 C 
HETATM   16  C7  UNL     1      -1.313  -0.138   1.025  1.00  0.00     0.288 C 
HETATM   17  N2  UNL     1      -2.255   0.248   0.006  1.00  0.00     0.095 N 
HETATM   18  C14 UNL     1      -1.735   0.002  -1.329  1.00  0.00     0.288 C 
HETATM   19  C15 UNL     1      -0.446   0.726  -1.489  1.00  0.00     0.138 C 
BRANCH  17  20
HETATM   20  C8  UNL     1      -3.569  -0.341   0.177  1.00  0.00     0.223 C 
HETATM   21  C9  UNL     1      -4.204  -0.820  -1.086  1.00  0.00     0.036 C 
HETATM   22  C10 UNL     1      -5.500  -1.526  -0.711  1.00  0.00     0.002 C 
HETATM   23  C11 UNL     1      -6.430  -0.658   0.076  1.00  0.00     0.000 C 
HETATM   24  C12 UNL     1      -5.770   0.074   1.197  1.00  0.00     0.002 C 
HETATM   25  C13 UNL     1      -4.453   0.707   0.810  1.00  0.00     0.036 C 
ENDBRANCH  17  20
ENDBRANCH   1  14
TORSDOF 5
