REMARK  4 active torsions:
REMARK  status: ('A' for Active; 'I' for Inactive)
REMARK    1  A    between atoms: C4_6  and  C5_7 
REMARK    2  A    between atoms: C5_7  and  N2_8 
REMARK    3  A    between atoms: N3_16  and  C12_17 
REMARK    4  A    between atoms: C12_17  and  C13_18 
ROOT
HETATM    1  N2  UNL     1       2.377  -1.978  -0.097  1.00  0.00    -0.381 N 
HETATM    2  C6  UNL     1       2.054  -3.279   0.358  1.00  0.00     0.148 C 
HETATM    3  C7  UNL     1       1.123  -3.103   1.568  1.00  0.00     0.189 C 
HETATM    4  O1  UNL     1      -0.034  -2.590   1.046  1.00  0.00    -0.370 OA
HETATM    5  C8  UNL     1       0.070  -1.298   0.538  1.00  0.00     0.118 C 
HETATM    6  C9  UNL     1      -0.155  -0.374   1.735  1.00  0.00     0.051 C 
HETATM    7  C10 UNL     1      -0.314   1.055   1.340  1.00  0.00     0.048 C 
HETATM    8  C11 UNL     1      -0.769   1.258  -0.067  1.00  0.00     0.064 C 
HETATM    9  N3  UNL     1      -1.553   0.208  -0.527  1.00  0.00    -0.358 N 
HETATM   10  C17 UNL     1      -1.150  -1.126  -0.376  1.00  0.00     0.071 C 
HETATM   11  C18 UNL     1      -0.924  -1.872  -1.662  1.00  0.00     0.035 C 
HETATM   12  C19 UNL     1      -1.712  -3.059  -1.146  1.00  0.00     0.005 C 
HETATM   13  C20 UNL     1      -2.218  -2.142  -0.044  1.00  0.00     0.035 C 
HETATM   14  C21 UNL     1       1.362  -1.007  -0.134  1.00  0.00     0.099 C 
ENDROOT
BRANCH   9  15
HETATM   15  C12 UNL     1      -2.795   0.395  -1.116  1.00  0.00     0.096 C 
BRANCH  15  16
HETATM   16  C13 UNL     1      -3.941   0.878  -0.306  1.00  0.00     0.160 C 
HETATM   17  C14 UNL     1      -3.840   2.324   0.129  1.00  0.00     0.039 C 
HETATM   18  C15 UNL     1      -5.293   2.710   0.306  1.00  0.00     0.029 C 
HETATM   19  C16 UNL     1      -6.014   1.476  -0.200  1.00  0.00     0.168 C 
HETATM   20  O2  UNL     1      -5.101   0.983  -1.121  1.00  0.00    -0.381 OA
ENDBRANCH  15  16
ENDBRANCH   9  15
BRANCH   1  21
HETATM   21  C5  UNL     1       3.666  -1.603   0.362  1.00  0.00     0.198 C 
BRANCH  21  22
HETATM   22  C4  UNL     1       4.148  -0.280  -0.027  1.00  0.00     0.099 A 
HETATM   23  N1  UNL     1       4.149   0.723   0.879  1.00  0.00    -0.354 N 
HETATM   24  C3  UNL     1       4.579   1.968   0.596  1.00  0.00     0.097 A 
ATOM     25  H1  UNL     1       3.808   0.528   1.821  1.00  0.00     0.166 HD
HETATM   26  C2  UNL     1       5.041   2.252  -0.662  1.00  0.00    -0.031 A 
HETATM   27  C1  UNL     1       5.526   3.615  -1.015  1.00  0.00     0.051 C 
HETATM   28  C22 UNL     1       5.041   1.224  -1.592  1.00  0.00     0.097 A 
HETATM   29  N4  UNL     1       4.599  -0.000  -1.253  1.00  0.00    -0.354 N 
ATOM     30  H4  UNL     1       4.608  -0.739  -1.956  1.00  0.00     0.166 HD
ENDBRANCH  21  22
ENDBRANCH   1  21
TORSDOF 4
