REMARK  3 active torsions:
REMARK  status: ('A' for Active; 'I' for Inactive)
REMARK    1  A    between atoms: C2_2  and  N1_3 
REMARK    2  A    between atoms: C5_6  and  N2_7 
REMARK    3  A    between atoms: N2_7  and  N3_9 
ROOT
HETATM    1  N2  UNL     1       1.040  -1.213   0.126  1.00  0.00    -0.332 N 
ATOM      2  H2  UNL     1       1.713  -1.965   0.275  1.00  0.00     0.180 HD
ENDROOT
BRANCH   1   3
HETATM    3  C5  UNL     1      -0.390  -1.465   0.092  1.00  0.00     0.102 C 
HETATM    4  C4  UNL     1      -0.890  -1.036  -1.248  1.00  0.00     0.057 C 
HETATM    5  C3  UNL     1      -2.376  -0.789  -1.280  1.00  0.00     0.274 C 
HETATM    6  N1  UNL     1      -2.797   0.094  -0.205  1.00  0.00     0.088 N 
HETATM    7  C12 UNL     1      -2.462  -0.441   1.090  1.00  0.00     0.274 C 
HETATM    8  C11 UNL     1      -1.013  -0.779   1.251  1.00  0.00     0.057 C 
BRANCH   6   9
HETATM    9  C2  UNL     1      -4.250   0.159  -0.278  1.00  0.00     0.268 C 
HETATM   10  C1  UNL     1      -4.819   1.055   0.799  1.00  0.00     0.037 C 
ENDBRANCH   6   9
ENDBRANCH   1   3
BRANCH   1  11
HETATM   11  N3  UNL     1       1.448   0.111  -0.056  1.00  0.00    -0.313 N 
HETATM   12  C6  UNL     1       2.629   0.524   0.245  1.00  0.00     0.003 C 
HETATM   13  C7  UNL     1       3.713  -0.315   0.816  1.00  0.00     0.054 C 
HETATM   14  C10 UNL     1       3.189   1.890   0.105  1.00  0.00     0.054 C 
HETATM   15  C8  UNL     1       4.991   0.389   0.411  1.00  0.00     0.006 C 
HETATM   16  C9  UNL     1       4.598   1.603  -0.364  1.00  0.00     0.006 C 
ATOM     17  H3  UNL     1       0.781   0.778  -0.444  1.00  0.00     0.186 HD
ENDBRANCH   1  11
TORSDOF 3
