REMARK  1 active torsions:
REMARK  status: ('A' for Active; 'I' for Inactive)
REMARK    1  A    between atoms: N2_9  and  C5_10 
ROOT
HETATM    1  C5  UNL     1       1.708  -1.100   0.567  1.00  0.00     0.248 C 
HETATM    2  C6  UNL     1       3.075  -1.125   0.077  1.00  0.00     0.079 C 
HETATM    3  N3  UNL     1       4.151  -1.159  -0.326  1.00  0.00    -0.196 NA
ENDROOT
BRANCH   1   4
HETATM    4  N2  UNL     1       0.924  -0.015   0.006  1.00  0.00    -0.349 N 
HETATM    5  C4  UNL     1       1.232   1.302   0.435  1.00  0.00     0.136 C 
HETATM    6  S1  UNL     1      -0.062   2.497  -0.015  1.00  0.00    -0.094 SA
HETATM    7  N1  UNL     1       2.270   1.680   1.068  1.00  0.00    -0.380 N 
HETATM    8  C3  UNL     1      -1.584   1.515   0.051  1.00  0.00     0.088 C 
HETATM    9  C2  UNL     1      -1.467   0.225  -0.686  1.00  0.00     0.009 C 
HETATM   10  C1  UNL     1      -2.301  -0.829   0.021  1.00  0.00     0.012 C 
HETATM   11  C7  UNL     1      -0.119  -0.261  -0.981  1.00  0.00     0.131 C 
ATOM     12  H12 UNL     1       2.491   2.627   1.376  1.00  0.00     0.158 HD
ATOM     13  H11 UNL     1       2.996   1.010   1.320  1.00  0.00     0.158 HD
ENDBRANCH   1   4
TORSDOF 1
