REMARK  6 active torsions:
REMARK  status: ('A' for Active; 'I' for Inactive)
REMARK    1  A    between atoms: C4_5  and  C5_6 
REMARK    2  A    between atoms: C6_7  and  C7_8 
REMARK    3  A    between atoms: C7_8  and  C9_10 
REMARK    4  A    between atoms: C15_17  and  O2_18 
REMARK    5  A    between atoms: C16_20  and  O3_21 
REMARK    6  A    between atoms: C17_23  and  O4_24 
ROOT
HETATM    1  C1  UNL     1       3.464   3.339   1.444  1.00  0.00     0.060 C 
HETATM    2  C2  UNL     1       4.240   2.208   0.854  1.00  0.00     0.018 C 
HETATM    3  C3  UNL     1       5.560   2.463   0.376  1.00  0.00     0.094 C 
HETATM    4  N1  UNL     1       6.648   2.657  -0.031  1.00  0.00    -0.192 NA
HETATM    5  C4  UNL     1       3.738   0.988   0.765  1.00  0.00     0.017 C 
ENDROOT
BRANCH   5   6
HETATM    6  C5  UNL     1       2.376   0.661   1.243  1.00  0.00    -0.002 C 
HETATM    7  C6  UNL     1       1.900  -0.565   1.142  1.00  0.00    -0.022 C 
BRANCH   7   8
HETATM    8  C7  UNL     1       0.537  -0.874   1.626  1.00  0.00     0.011 C 
HETATM    9  C8  UNL     1      -0.020   0.334   2.303  1.00  0.00     0.015 C 
BRANCH   8  10
HETATM   10  C9  UNL     1      -0.296  -1.386   0.467  1.00  0.00     0.027 C 
HETATM   11  C10 UNL     1      -0.439  -0.447  -0.649  1.00  0.00     0.048 C 
HETATM   12  C11 UNL     1      -1.692  -0.462  -1.444  1.00  0.00     0.089 C 
HETATM   13  C12 UNL     1      -1.896   0.839  -2.197  1.00  0.00     0.043 C 
HETATM   14  O1  UNL     1      -1.545  -1.345  -2.513  1.00  0.00    -0.377 OA
HETATM   15  C15 UNL     1      -2.936  -0.807  -0.700  1.00  0.00     0.183 C 
HETATM   16  C13 UNL     1      -0.793   0.751  -3.232  1.00  0.00     0.029 C 
HETATM   17  C14 UNL     1      -0.693  -0.745  -3.439  1.00  0.00     0.169 C 
HETATM   18  C16 UNL     1      -2.708  -1.119   0.756  1.00  0.00     0.178 C 
HETATM   19  C17 UNL     1      -1.557  -2.029   0.983  1.00  0.00     0.154 C 
BRANCH  15  20
HETATM   20  O2  UNL     1      -3.579  -1.903  -1.275  1.00  0.00    -0.390 OA
ATOM     21  H2  UNL     1      -4.372  -2.123  -0.801  1.00  0.00     0.210 HD
ENDBRANCH  15  20
BRANCH  18  22
HETATM   22  O3  UNL     1      -3.869  -1.799   1.196  1.00  0.00    -0.390 OA
ATOM     23  H3  UNL     1      -3.725  -1.996   2.114  1.00  0.00     0.210 HD
ENDBRANCH  18  22
BRANCH  19  24
HETATM   24  O4  UNL     1      -1.414  -2.243   2.358  1.00  0.00    -0.393 OA
ATOM     25  H4  UNL     1      -2.209  -2.648   2.683  1.00  0.00     0.210 HD
ENDBRANCH  19  24
ENDBRANCH   8  10
ENDBRANCH   7   8
ENDBRANCH   5   6
TORSDOF 6
