REMARK  4 active torsions:
REMARK  status: ('A' for Active; 'I' for Inactive)
REMARK    1  A    between atoms: C2_2  and  C3_3 
REMARK    2  A    between atoms: C3_3  and  N1_4 
REMARK    3  A    between atoms: C5_8  and  C6_9 
REMARK    4  A    between atoms: N2_18  and  O3_20 
ROOT
HETATM    1  N1  UNL     1       0.874  -0.682   0.025  1.00  0.00    -0.356 N 
HETATM    2  C4  UNL     1       0.602  -1.343   1.275  1.00  0.00     0.138 C 
HETATM    3  S1  UNL     1       1.624  -2.428   1.877  1.00  0.00    -0.053 SA
HETATM    4  S2  UNL     1      -0.947  -0.838   2.053  1.00  0.00    -0.079 SA
HETATM    5  C5  UNL     1      -2.222  -0.487   0.767  1.00  0.00     0.105 C 
HETATM    6  C7  UNL     1      -2.525   0.987   0.643  1.00  0.00     0.032 C 
HETATM    7  C8  UNL     1      -2.563   1.495  -0.760  1.00  0.00     0.002 C 
HETATM    8  C9  UNL     1      -1.308   1.990  -1.371  1.00  0.00     0.002 C 
HETATM    9  C10 UNL     1      -0.219   0.924  -1.580  1.00  0.00     0.025 C 
HETATM   10  C11 UNL     1      -0.229   0.118  -0.372  1.00  0.00     0.088 C 
HETATM   11  C12 UNL     1      -1.405  -0.827  -0.468  1.00  0.00     0.057 C 
ENDROOT
BRANCH   1  12
HETATM   12  C3  UNL     1       2.080  -0.823  -0.695  1.00  0.00     0.178 C 
BRANCH  12  13
HETATM   13  C2  UNL     1       3.266  -0.247  -0.082  1.00  0.00     0.024 C 
HETATM   14  C1  UNL     1       4.568  -0.350  -0.771  1.00  0.00     0.067 C 
HETATM   15  N2  UNL     1       3.202   0.347   1.046  1.00  0.00    -0.276 N 
ATOM     16  H2  UNL     1       2.311   0.426   1.536  1.00  0.00     0.193 HD
BRANCH  15  17
HETATM   17  O3  UNL     1       4.340   0.877   1.592  1.00  0.00    -0.290 OA
ATOM     18  H3  UNL     1       4.292   1.319   2.432  1.00  0.00     0.244 HD
ENDBRANCH  15  17
ENDBRANCH  12  13
ENDBRANCH   1  12
BRANCH   5  19
HETATM   19  C6  UNL     1      -3.408  -1.324   0.927  1.00  0.00     0.193 C 
HETATM   20  O1  UNL     1      -4.514  -0.745   1.130  1.00  0.00    -0.647 OA
HETATM   21  O2  UNL     1      -3.341  -2.695   0.862  1.00  0.00    -0.647 OA
ENDBRANCH   5  19
TORSDOF 4
