REMARK  1 active torsions:
REMARK  status: ('A' for Active; 'I' for Inactive)
REMARK    1  A    between atoms: O1_2  and  C2_3 
ROOT
HETATM    1  C2  UNL     1      -1.763  -0.594   0.053  1.00  0.00     0.561 C 
HETATM    2  N1  UNL     1      -0.520  -0.402   0.738  1.00  0.00    -0.010 N 
ATOM      3  H11 UNL     1      -0.223  -1.228   1.258  1.00  0.00     0.283 HD
ATOM      4  H12 UNL     1      -0.599   0.236   1.530  1.00  0.00     0.283 HD
HETATM    5  C3  UNL     1       0.459   0.031  -0.237  1.00  0.00     0.157 C 
HETATM    6  C4  UNL     1       1.128   1.285   0.162  1.00  0.00     0.041 C 
HETATM    7  C5  UNL     1       2.466   1.152   0.782  1.00  0.00     0.002 C 
HETATM    8  C6  UNL     1       3.302   0.032   0.284  1.00  0.00     0.000 C 
HETATM    9  C7  UNL     1       2.535  -1.277   0.306  1.00  0.00     0.002 C 
HETATM   10  C8  UNL     1       1.338  -1.112  -0.572  1.00  0.00     0.041 C 
HETATM   11  C9  UNL     1      -0.400   0.332  -1.474  1.00  0.00     0.316 C 
HETATM   12  N2  UNL     1      -1.748   0.409  -0.996  1.00  0.00     0.143 N 
HETATM   13  C10 UNL     1      -2.074   1.705  -0.425  1.00  0.00     0.316 C 
ENDROOT
BRANCH   1  14
HETATM   14  O1  UNL     1      -2.866  -0.402   0.851  1.00  0.00    -0.342 OA
HETATM   15  C1  UNL     1      -3.679  -1.530   0.758  1.00  0.00     0.206 C 
ENDBRANCH   1  14
TORSDOF 1
