REMARK  3 active torsions:
REMARK  status: ('A' for Active; 'I' for Inactive)
REMARK    1  A    between atoms: N1_1  and  N2_4 
REMARK    2  A    between atoms: C1_5  and  O1_6 
REMARK    3  A    between atoms: C2_8  and  C3_9 
ROOT
HETATM    1  N2  UNL     1       4.097   0.163   0.527  1.00  0.00    -0.212 N 
HETATM    2  C1  UNL     1       2.792  -0.017   0.781  1.00  0.00     0.193 A 
HETATM    3  C2  UNL     1       2.177  -0.324  -0.445  1.00  0.00     0.117 A 
HETATM    4  N3  UNL     1       3.166  -0.304  -1.340  1.00  0.00    -0.326 N 
ATOM      5  H3  UNL     1       3.038  -0.490  -2.335  1.00  0.00     0.168 HD
HETATM    6  C12 UNL     1       4.355  -0.009  -0.776  1.00  0.00     0.200 A 
HETATM    7  S1  UNL     1       5.804   0.092  -1.553  1.00  0.00    -0.039 SA
ENDROOT
BRANCH   3   8
HETATM    8  C3  UNL     1       0.769  -0.498  -0.636  1.00  0.00     0.078 C 
HETATM    9  C4  UNL     1       0.235  -1.522  -1.582  1.00  0.00     0.070 C 
HETATM   10  C5  UNL     1      -1.266  -1.141  -1.509  1.00  0.00     0.045 C 
HETATM   11  C6  UNL     1      -1.324  -0.379  -0.217  1.00  0.00     0.068 C 
HETATM   12  C7  UNL     1      -1.654   1.054  -0.396  1.00  0.00     0.038 C 
HETATM   13  C11 UNL     1      -2.408  -0.981   0.650  1.00  0.00     0.038 C 
HETATM   14  O2  UNL     1      -0.075  -0.535   0.418  1.00  0.00    -0.342 OA
HETATM   15  C8  UNL     1      -2.243   1.597   0.907  1.00  0.00     0.003 C 
HETATM   16  C9  UNL     1      -3.686   1.162   0.945  1.00  0.00     0.000 C 
HETATM   17  C10 UNL     1      -3.719  -0.269   0.433  1.00  0.00     0.003 C 
ENDBRANCH   3   8
BRANCH   2  18
HETATM   18  O1  UNL     1       2.151   0.068   1.992  1.00  0.00    -0.343 OA
ATOM     19  H1  UNL     1       1.227  -0.059   2.172  1.00  0.00     0.219 HD
ENDBRANCH   2  18
BRANCH   1  20
HETATM   20  N1  UNL     1       5.138   0.515   1.423  1.00  0.00    -0.334 N 
ATOM     21  H12 UNL     1       4.942   0.646   2.415  1.00  0.00     0.177 HD
ATOM     22  H11 UNL     1       6.130   0.652   1.230  1.00  0.00     0.177 HD
ENDBRANCH   1  20
TORSDOF 3
