REMARK  2 active torsions:
REMARK  status: ('A' for Active; 'I' for Inactive)
REMARK    1  A    between atoms: C8_10  and  C9_11 
REMARK    2  A    between atoms: C12_17  and  O1_18 
ROOT
HETATM    1  C9  UNL     1       2.277   0.090   0.354  1.00  0.00     0.091 A 
HETATM    2  N2  UNL     1       2.646   1.131  -0.414  1.00  0.00    -0.333 N 
ATOM      3  H2  UNL     1       2.102   1.984  -0.543  1.00  0.00     0.168 HD
HETATM    4  C10 UNL     1       3.840   0.881  -0.989  1.00  0.00     0.166 A 
HETATM    5  C11 UNL     1       4.523   1.787  -1.872  1.00  0.00     0.122 C 
HETATM    6  N3  UNL     1       5.062   2.523  -2.587  1.00  0.00    -0.190 NA
HETATM    7  C12 UNL     1       4.241  -0.377  -0.563  1.00  0.00     0.180 A 
HETATM    8  N4  UNL     1       3.270  -0.812   0.242  1.00  0.00    -0.324 N 
ATOM      9  H4  UNL     1       3.279  -1.716   0.714  1.00  0.00     0.169 HD
ENDROOT
BRANCH   7  10
HETATM   10  O1  UNL     1       5.433  -1.007  -0.936  1.00  0.00    -0.344 OA
ATOM     11  H1  UNL     1       5.708  -1.868  -0.644  1.00  0.00     0.219 HD
ENDBRANCH   7  10
BRANCH   1  12
HETATM   12  C8  UNL     1       1.016   0.027   1.134  1.00  0.00     0.091 C 
HETATM   13  C7  UNL     1       0.939   1.202   2.130  1.00  0.00     0.133 C 
HETATM   14  N1  UNL     1      -0.516   1.414   2.273  1.00  0.00    -0.392 N 
HETATM   15  C6  UNL     1      -1.201   0.484   1.421  1.00  0.00     0.016 C 
ATOM     16  H1  UNL     1      -0.960   2.106   2.877  1.00  0.00     0.159 HD
HETATM   17  C5  UNL     1      -2.376  -0.074   1.488  1.00  0.00     0.001 C 
HETATM   18  C13 UNL     1      -0.206   0.270   0.333  1.00  0.00     0.110 C 
HETATM   19  C4  UNL     1      -2.985  -1.033   0.542  1.00  0.00     0.049 C 
HETATM   20  C2  UNL     1      -2.552  -0.836  -0.880  1.00  0.00     0.005 C 
HETATM   21  C1  UNL     1      -3.133  -1.878  -1.774  1.00  0.00     0.027 C 
HETATM   22  C3  UNL     1      -2.943   0.535  -1.354  1.00  0.00     0.027 C 
HETATM   23  S1  UNL     1      -0.707  -0.985  -0.824  1.00  0.00    -0.148 SA
ENDBRANCH   1  12
TORSDOF 2
