REMARK  3 active torsions:
REMARK  status: ('A' for Active; 'I' for Inactive)
REMARK    1  A    between atoms: C2_2  and  C3_3 
REMARK    2  A    between atoms: C3_3  and  N1_4 
REMARK    3  A    between atoms: C12_15  and  N3_16 
ROOT
HETATM    1  N1  UNL     1      -1.428  -0.409  -0.821  1.00  0.00    -0.354 N 
HETATM    2  C4  UNL     1      -0.971  -0.032  -2.098  1.00  0.00     0.176 C 
HETATM    3  N2  UNL     1       0.251   0.205  -2.337  1.00  0.00    -0.381 N 
ATOM      4  H2  UNL     1       0.517   0.477  -3.283  1.00  0.00     0.160 HD
HETATM    5  C5  UNL     1       1.276   0.109  -1.342  1.00  0.00     0.090 C 
HETATM    6  C6  UNL     1       2.252   1.252  -1.461  1.00  0.00     0.026 C 
HETATM    7  C7  UNL     1       2.935   1.673  -0.215  1.00  0.00     0.002 C 
HETATM    8  C8  UNL     1       3.696   0.634   0.523  1.00  0.00     0.000 C 
HETATM    9  C9  UNL     1       2.926  -0.324   1.352  1.00  0.00     0.001 C 
HETATM   10  C10 UNL     1       1.885  -1.119   0.659  1.00  0.00     0.010 C 
HETATM   11  C11 UNL     1       0.854  -0.149   0.051  1.00  0.00     0.052 C 
HETATM   12  C12 UNL     1      -0.536  -0.590   0.299  1.00  0.00     0.205 C 
ENDROOT
BRANCH  12  13
HETATM   13  N3  UNL     1      -0.628  -2.004   0.642  1.00  0.00    -0.319 N 
HETATM   14  N4  UNL     1      -1.064  -2.421   1.714  1.00  0.00    -0.348 N 
ATOM     15  H42 UNL     1      -1.375  -1.724   2.391  1.00  0.00     0.176 HD
ATOM     16  H41 UNL     1      -1.128  -3.410   1.954  1.00  0.00     0.176 HD
ATOM     17  H3  UNL     1      -0.313  -2.687  -0.047  1.00  0.00     0.182 HD
ENDBRANCH  12  13
BRANCH   1  18
HETATM   18  C3  UNL     1      -2.841  -0.629  -0.609  1.00  0.00     0.125 C 
BRANCH  18  19
HETATM   19  C2  UNL     1      -3.445   0.444   0.274  1.00  0.00     0.015 C 
HETATM   20  C1  UNL     1      -4.914   0.213   0.510  1.00  0.00     0.006 C 
ENDBRANCH  18  19
ENDBRANCH   1  18
TORSDOF 3
