REMARK  16 active torsions:
REMARK  status: ('A' for Active; 'I' for Inactive)
REMARK    1  A    between atoms: N1_2  and  C2_3 
REMARK    2  A    between atoms: N1_2  and  C24_36 
REMARK    3  A    between atoms: C5_7  and  N2_8 
REMARK    4  A    between atoms: N2_8  and  C6_11 
REMARK    5  A    between atoms: C6_11  and  C7_12 
REMARK    6  A    between atoms: C7_12  and  C8_13 
REMARK    7  A    between atoms: C8_13  and  C9_14 
REMARK    8  A    between atoms: C9_14  and  C10_15 
REMARK    9  A    between atoms: C10_15  and  C11_16 
REMARK   10  A    between atoms: C11_16  and  C12_17 
REMARK   11  A    between atoms: C12_17  and  C13_18 
REMARK   12  A    between atoms: C13_18  and  C14_19 
REMARK   13  A    between atoms: C14_19  and  C15_20 
REMARK   14  A    between atoms: C15_20  and  C16_21 
REMARK   15  A    between atoms: C16_21  and  C17_22 
REMARK   16  A    between atoms: C17_22  and  S1_23 
ROOT
HETATM    1  C2  UNL     1      -5.038  -0.474   0.494  1.00  0.00     0.119 C 
HETATM    2  C3  UNL     1      -4.278   0.612   0.473  1.00  0.00     0.074 C 
HETATM    3  O1  UNL     1      -3.168   0.716   1.326  1.00  0.00    -0.345 OA
HETATM    4  C4  UNL     1      -2.084   1.578   0.996  1.00  0.00     0.178 C 
HETATM    5  C5  UNL     1      -1.179   1.041  -0.054  1.00  0.00     0.314 C 
HETATM    6  C18 UNL     1      -1.623   1.205  -1.441  1.00  0.00     0.295 C 
HETATM    7  O5  UNL     1      -1.123   0.457  -2.329  1.00  0.00    -0.263 OA
HETATM    8  O6  UNL     1      -2.591   2.173  -1.806  1.00  0.00    -0.280 OA
HETATM    9  C19 UNL     1      -3.402   2.581  -0.780  1.00  0.00     0.191 C 
HETATM   10  O7  UNL     1      -4.301   3.599  -0.897  1.00  0.00    -0.347 OA
HETATM   11  C20 UNL     1      -4.961   2.986   0.210  1.00  0.00     0.141 C 
HETATM   12  C21 UNL     1      -3.989   3.161   1.344  1.00  0.00     0.045 C 
HETATM   13  C22 UNL     1      -2.699   2.867   0.536  1.00  0.00     0.084 C 
HETATM   14  C23 UNL     1      -4.583   1.703  -0.430  1.00  0.00     0.136 C 
ENDROOT
BRANCH   5  15
HETATM   15  N2  UNL     1      -0.853  -0.357   0.176  1.00  0.00    -0.059 N 
ATOM     16  H22 UNL     1      -1.685  -0.947   0.151  1.00  0.00     0.278 HD
ATOM     17  H21 UNL     1      -0.353  -0.763  -0.615  1.00  0.00     0.278 HD
BRANCH  15  18
HETATM   18  C6  UNL     1      -0.116  -0.519   1.418  1.00  0.00     0.233 C 
BRANCH  18  19
HETATM   19  C7  UNL     1       1.272   0.063   1.319  1.00  0.00     0.027 C 
BRANCH  19  20
HETATM   20  C8  UNL     1       2.074  -0.646   0.238  1.00  0.00     0.002 C 
BRANCH  20  21
HETATM   21  C9  UNL     1       3.431   0.010   0.181  1.00  0.00     0.000 C 
BRANCH  21  22
HETATM   22  C10 UNL     1       4.312  -0.670  -0.878  1.00  0.00     0.000 C 
BRANCH  22  23
HETATM   23  C11 UNL     1       4.537  -2.105  -0.557  1.00  0.00     0.000 C 
BRANCH  23  24
HETATM   24  C12 UNL     1       5.406  -2.833  -1.489  1.00  0.00     0.000 C 
BRANCH  24  25
HETATM   25  C13 UNL     1       6.811  -2.486  -1.685  1.00  0.00     0.000 C 
BRANCH  25  26
HETATM   26  C14 UNL     1       7.791  -2.568  -0.594  1.00  0.00     0.000 C 
BRANCH  26  27
HETATM   27  C15 UNL     1       7.723  -1.595   0.510  1.00  0.00     0.001 C 
BRANCH  27  28
HETATM   28  C16 UNL     1       8.033  -0.171   0.058  1.00  0.00     0.018 C 
BRANCH  28  29
HETATM   29  C17 UNL     1       7.919   0.783   1.223  1.00  0.00     0.165 C 
BRANCH  29  30
HETATM   30  S1  UNL     1       8.274   2.417   0.621  1.00  0.00     0.101 S 
HETATM   31  O2  UNL     1       7.204   2.766  -0.380  1.00  0.00    -0.595 OA
HETATM   32  O3  UNL     1       9.619   2.477   0.003  1.00  0.00    -0.595 OA
HETATM   33  O4  UNL     1       8.165   3.523   1.878  1.00  0.00    -0.595 OA
ENDBRANCH  29  30
ENDBRANCH  28  29
ENDBRANCH  27  28
ENDBRANCH  26  27
ENDBRANCH  25  26
ENDBRANCH  24  25
ENDBRANCH  23  24
ENDBRANCH  22  23
ENDBRANCH  21  22
ENDBRANCH  20  21
ENDBRANCH  19  20
ENDBRANCH  18  19
ENDBRANCH  15  18
ENDBRANCH   5  15
BRANCH   1  34
HETATM   34  N1  UNL     1      -6.172  -0.702  -0.307  1.00  0.00    -0.380 N 
HETATM   35  C1  UNL     1      -5.983  -1.035  -1.700  1.00  0.00     0.150 C 
BRANCH  34  36
HETATM   36  C24 UNL     1      -7.479  -0.609   0.246  1.00  0.00     0.153 C 
HETATM   37  C25 UNL     1      -8.267  -1.901   0.109  1.00  0.00     0.033 C 
HETATM   38  C26 UNL     1      -9.709  -1.465   0.297  1.00  0.00     0.010 C 
HETATM   39  C27 UNL     1      -9.749   0.026   0.045  1.00  0.00     0.080 C 
HETATM   40  C28 UNL     1      -8.385   0.341  -0.424  1.00  0.00     0.149 C 
HETATM   41  O8  UNL     1      -8.090   1.206  -1.201  1.00  0.00    -0.296 OA
ENDBRANCH  34  36
ENDBRANCH   1  34
TORSDOF 16
