REMARK  4 active torsions:
REMARK  status: ('A' for Active; 'I' for Inactive)
REMARK       I    between atoms: N1_2  and  C2_4 
REMARK    1  A    between atoms: C2_4  and  C3_6 
REMARK       I    between atoms: N2_10  and  C7_11 
REMARK    2  A    between atoms: C7_11  and  C8_13 
REMARK    3  A    between atoms: C11_16  and  C12_17 
REMARK       I    between atoms: C12_17  and  N3_19 
REMARK    4  A    between atoms: N3_19  and  C13_21 
ROOT
HETATM    1  C8  UNL     1       1.444   0.485   1.436  1.00  0.00     0.078 C 
HETATM    2  C9  UNL     1       0.755  -0.140   2.634  1.00  0.00     0.015 C 
HETATM    3  C10 UNL     1      -0.415   0.663   3.112  1.00  0.00     0.015 C 
HETATM    4  C11 UNL     1      -1.278   1.254   2.056  1.00  0.00     0.078 C 
HETATM    5  C20 UNL     1      -0.520   1.760   0.848  1.00  0.00     0.015 C 
HETATM    6  C21 UNL     1       0.358   0.641   0.377  1.00  0.00     0.015 C 
ENDROOT
BRANCH   1   7
HETATM    7  C7  UNL     1       2.412  -0.511   0.901  1.00  0.00     0.224 C 
HETATM    8  N2  UNL     1       3.394  -0.174  -0.055  1.00  0.00    -0.338 N 
HETATM    9  C3  UNL     1       4.345  -1.080  -0.642  1.00  0.00     0.179 C 
HETATM   10  C6  UNL     1       3.641   1.130  -0.603  1.00  0.00     0.127 C 
HETATM   11  C4  UNL     1       4.359  -0.632  -2.097  1.00  0.00     0.037 C 
HETATM   12  C5  UNL     1       3.855   0.791  -2.084  1.00  0.00     0.022 C 
HETATM   13  O2  UNL     1       2.339  -1.710   1.329  1.00  0.00    -0.273 OA
BRANCH   9  14
HETATM   14  C2  UNL     1       5.672  -0.948  -0.000  1.00  0.00     0.240 C 
HETATM   15  N1  UNL     1       6.755  -1.744  -0.445  1.00  0.00    -0.364 N 
HETATM   16  C1  UNL     1       8.083  -1.667   0.139  1.00  0.00     0.149 C 
ATOM     17  H1  UNL     1       6.596  -2.400  -1.209  1.00  0.00     0.161 HD
HETATM   18  O1  UNL     1       5.909  -0.148   0.946  1.00  0.00    -0.271 OA
ENDBRANCH   9  14
ENDBRANCH   1   7
BRANCH   4  19
HETATM   19  C12 UNL     1      -2.380   0.333   1.658  1.00  0.00     0.222 C 
HETATM   20  O3  UNL     1      -2.446  -0.779   2.230  1.00  0.00    -0.273 OA
HETATM   21  N3  UNL     1      -3.344   0.652   0.677  1.00  0.00    -0.356 N 
ATOM     22  H3  UNL     1      -3.307   1.553   0.201  1.00  0.00     0.162 HD
BRANCH  21  23
HETATM   23  C13 UNL     1      -4.368  -0.284   0.351  1.00  0.00     0.088 C 
HETATM   24  C14 UNL     1      -5.775   0.218   0.614  1.00  0.00     0.030 C 
HETATM   25  C15 UNL     1      -6.609  -0.222  -0.559  1.00  0.00    -0.012 C 
HETATM   26  C16 UNL     1      -6.331   0.743  -1.685  1.00  0.00     0.005 C 
HETATM   27  C19 UNL     1      -5.796  -1.435  -1.044  1.00  0.00     0.011 C 
HETATM   28  C17 UNL     1      -4.838   0.483  -1.937  1.00  0.00     0.007 C 
HETATM   29  C18 UNL     1      -4.450  -0.682  -1.091  1.00  0.00     0.009 C 
ENDBRANCH  21  23
ENDBRANCH   4  19
TORSDOF 4
