REMARK  3 active torsions:
REMARK  status: ('A' for Active; 'I' for Inactive)
REMARK    1  A    between atoms: C2_2  and  N1_3 
REMARK       I    between atoms: N1_3  and  C3_5 
REMARK       I    between atoms: C3_5  and  N2_7 
REMARK       I    between atoms: N3_14  and  C10_15 
REMARK       I    between atoms: C10_15  and  N4_17 
REMARK    2  A    between atoms: N4_17  and  C11_19 
REMARK    3  A    between atoms: C11_19  and  C12_20 
ROOT
HETATM    1  N1  UNL     1      -4.251  -0.700  -0.500  1.00  0.00    -0.343 N 
ATOM      2  H1  UNL     1      -3.944  -1.282  -1.280  1.00  0.00     0.164 HD
HETATM    3  C3  UNL     1      -3.344   0.196   0.111  1.00  0.00     0.318 C 
HETATM    4  O1  UNL     1      -3.735   0.907   1.071  1.00  0.00    -0.247 OA
HETATM    5  N2  UNL     1      -2.007   0.316  -0.327  1.00  0.00    -0.332 N 
HETATM    6  C4  UNL     1      -1.437  -0.430  -1.408  1.00  0.00     0.127 C 
HETATM    7  C5  UNL     1      -0.483  -1.444  -0.806  1.00  0.00     0.022 C 
HETATM    8  C6  UNL     1       0.150  -0.914   0.463  1.00  0.00     0.034 C 
HETATM    9  C7  UNL     1       0.257   0.583   0.403  1.00  0.00     0.085 C 
HETATM   10  C8  UNL     1      -1.093   1.261   0.345  1.00  0.00     0.158 C 
HETATM   11  C9  UNL     1       1.289   1.110  -0.555  1.00  0.00     0.180 C 
HETATM   12  N3  UNL     1       2.185   0.971   0.577  1.00  0.00    -0.244 N 
HETATM   13  C10 UNL     1       3.573   0.730   0.822  1.00  0.00     0.334 C 
HETATM   14  O2  UNL     1       3.957   0.683   2.017  1.00  0.00    -0.246 OA
HETATM   15  N4  UNL     1       4.501   0.547  -0.210  1.00  0.00    -0.341 N 
ATOM     16  H4  UNL     1       4.162   0.596  -1.171  1.00  0.00     0.164 HD
HETATM   17  N5  UNL     1       1.089   1.180   1.408  1.00  0.00    -0.121 NA
ENDROOT
BRANCH   1  18
HETATM   18  C2  UNL     1      -5.629  -0.795  -0.017  1.00  0.00     0.120 C 
HETATM   19  C1  UNL     1      -6.277   0.580  -0.166  1.00  0.00     0.026 C 
ENDBRANCH   1  18
BRANCH  15  20
HETATM   20  C11 UNL     1       5.877   0.299  -0.006  1.00  0.00     0.135 C 
BRANCH  20  21
HETATM   21  C12 UNL     1       6.111  -0.987   0.731  1.00  0.00     0.104 C 
HETATM   22 BR1  UNL     1       8.026  -1.212   0.930  1.00  0.00    -0.095 Br
ENDBRANCH  20  21
ENDBRANCH  15  20
TORSDOF 3
