REMARK  4 active torsions:
REMARK  status: ('A' for Active; 'I' for Inactive)
REMARK    1  A    between atoms: C1_4  and  C2_5 
REMARK    2  A    between atoms: C1_4  and  N5_11 
REMARK    3  A    between atoms: C2_5  and  N2_6 
REMARK    4  A    between atoms: N5_11  and  C4_13 
ROOT
HETATM    1  N5  UNL     1      -0.967   1.496   0.754  1.00  0.00    -0.179 N 
ATOM      2  H5  UNL     1      -1.061   2.238   1.448  1.00  0.00     0.185 HD
ENDROOT
BRANCH   1   3
HETATM    3  C1  UNL     1       0.246   1.432   0.016  1.00  0.00     0.108 C 
HETATM    4  N1  UNL     1       0.341   2.213  -1.006  1.00  0.00    -0.387 N 
ATOM      5  H12 UNL     1       1.212   2.167  -1.536  1.00  0.00     0.157 HD
ATOM      6  H11 UNL     1      -0.385   2.860  -1.313  1.00  0.00     0.157 HD
BRANCH   3   7
HETATM    7  C2  UNL     1       1.287   0.504   0.456  1.00  0.00     0.198 C 
BRANCH   7   8
HETATM    8  N2  UNL     1       2.468   0.510  -0.346  1.00  0.00    -0.360 N 
HETATM    9  C3  UNL     1       3.427  -0.298  -0.071  1.00  0.00     0.197 C 
HETATM   10  N3  UNL     1       4.633  -0.344  -0.831  1.00  0.00    -0.067 NA
HETATM   11  N4  UNL     1       3.295  -1.185   1.028  1.00  0.00    -0.067 NA
ATOM     12  H2  UNL     1       2.549   1.153  -1.134  1.00  0.00     0.162 HD
ENDBRANCH   7   8
ENDBRANCH   3   7
ENDBRANCH   1   3
BRANCH   1  13
HETATM   13  C4  UNL     1      -1.941   0.695   0.610  1.00  0.00     0.691 A 
HETATM   14  N6  UNL     1      -1.894  -0.307  -0.284  1.00  0.00    -0.141 N 
HETATM   15  C5  UNL     1      -2.957  -1.126  -0.394  1.00  0.00     0.342 A 
ATOM     16  H6  UNL     1      -1.069  -0.445  -0.868  1.00  0.00     0.189 HD
HETATM   17  O1  UNL     1      -2.972  -2.094  -1.224  1.00  0.00    -0.246 OA
HETATM   18  N7  UNL     1      -4.054  -0.932   0.391  1.00  0.00    -0.260 N 
HETATM   19  C6  UNL     1      -4.111   0.073   1.292  1.00  0.00     0.342 A 
ATOM     20  H7  UNL     1      -4.851  -1.561   0.296  1.00  0.00     0.175 HD
HETATM   21  O2  UNL     1      -5.130   0.243   2.013  1.00  0.00    -0.246 OA
HETATM   22  N8  UNL     1      -3.033   0.870   1.375  1.00  0.00    -0.141 N 
ATOM     23  H8  UNL     1      -3.043   1.639   2.045  1.00  0.00     0.189 HD
ENDBRANCH   1  13
TORSDOF 4
