REMARK  1 active torsions:
REMARK  status: ('A' for Active; 'I' for Inactive)
REMARK       I    between atoms: C2_2  and  N1_4 
REMARK    1  A    between atoms: N1_4  and  C3_6 
ROOT
HETATM    1  C1  UNL     1       3.029  -0.154  -0.111  1.00  0.00     0.117 C 
HETATM    2  C2  UNL     1       1.628  -0.415   0.256  1.00  0.00     0.214 C 
HETATM    3  O1  UNL     1       1.379  -1.302   1.097  1.00  0.00    -0.274 OA
HETATM    4  N1  UNL     1       0.595   0.335  -0.344  1.00  0.00    -0.353 N 
ATOM      5  H1  UNL     1       0.844   1.050  -1.027  1.00  0.00     0.163 HD
ENDROOT
BRANCH   4   6
HETATM    6  C3  UNL     1      -0.807   0.132  -0.030  1.00  0.00     0.022 C 
HETATM    7  C4  UNL     1      -1.615   1.106  -0.860  1.00  0.00     0.037 C 
HETATM    8  C5  UNL     1      -1.014   0.356   1.440  1.00  0.00     0.037 C 
HETATM    9  C6  UNL     1      -1.274  -1.253  -0.414  1.00  0.00     0.037 C 
ENDBRANCH   4   6
TORSDOF 1
