REMARK  1 active torsions:
REMARK  status: ('A' for Active; 'I' for Inactive)
REMARK    1  A    between atoms: C1_2  and  C2_4 
ROOT
HETATM    1  C2  UNL     1       0.491   0.044  -0.657  1.00  0.00     0.087 C 
HETATM    2  C3  UNL     1      -0.652  -0.923  -0.724  1.00  0.00     0.015 C 
HETATM    3  C4  UNL     1      -1.773  -0.135  -0.068  1.00  0.00     0.001 C 
HETATM    4  C5  UNL     1      -0.991   0.369   1.153  1.00  0.00     0.001 C 
HETATM    5  C6  UNL     1       0.162   1.033   0.456  1.00  0.00     0.015 C 
ENDROOT
BRANCH   1   6
HETATM    6  C1  UNL     1       1.751  -0.641  -0.281  1.00  0.00     0.177 C 
HETATM    7  O1  UNL     1       1.715  -1.879  -0.076  1.00  0.00    -0.648 OA
HETATM    8  O2  UNL     1       2.959   0.013  -0.146  1.00  0.00    -0.648 OA
ENDBRANCH   1   6
TORSDOF 1
