REMARK  14 active torsions:
REMARK  status: ('A' for Active; 'I' for Inactive)
REMARK    1  A    between atoms: C2_2  and  C3_3 
REMARK    2  A    between atoms: C3_3  and  C5_5 
REMARK    3  A    between atoms: C3_3  and  N1_7 
REMARK       I    between atoms: N1_7  and  C7_9 
REMARK    4  A    between atoms: C7_9  and  C8_11 
REMARK    5  A    between atoms: C8_11  and  C9_12 
REMARK    6  A    between atoms: C8_11  and  N2_16 
REMARK    7  A    between atoms: C9_12  and  C10_13 
REMARK    8  A    between atoms: N2_16  and  C13_18 
REMARK    9  A    between atoms: C13_18  and  N3_20 
REMARK   10  A    between atoms: N3_20  and  C14_21 
REMARK   11  A    between atoms: N3_20  and  N4_24 
REMARK   12  A    between atoms: C14_21  and  C15_22 
REMARK   13  A    between atoms: N4_24  and  C16_26 
REMARK   14  A    between atoms: C16_26  and  C17_27 
ROOT
HETATM    1  C8  UNL     1      -0.391  -0.228   1.063  1.00  0.00     0.176 C 
ENDROOT
BRANCH   1   2
HETATM    2  C7  UNL     1       0.840  -0.348   0.216  1.00  0.00     0.241 C 
HETATM    3  N1  UNL     1       2.155  -0.364   0.721  1.00  0.00    -0.350 N 
ATOM      4  H1  UNL     1       2.294  -0.291   1.729  1.00  0.00     0.163 HD
HETATM    5  O1  UNL     1       0.685  -0.445  -1.055  1.00  0.00    -0.271 OA
BRANCH   3   6
HETATM    6  C3  UNL     1       3.315  -0.480  -0.133  1.00  0.00     0.028 C 
HETATM    7  C4  UNL     1       3.341   0.693  -1.071  1.00  0.00     0.038 C 
BRANCH   6   8
HETATM    8  C2  UNL     1       4.588  -0.434   0.714  1.00  0.00     0.026 C 
HETATM    9  C1  UNL     1       5.785  -0.512  -0.172  1.00  0.00     0.007 C 
ENDBRANCH   6   8
BRANCH   6  10
HETATM   10  C5  UNL     1       3.333  -1.812  -0.874  1.00  0.00     0.026 C 
HETATM   11  C6  UNL     1       3.353  -2.943   0.098  1.00  0.00     0.007 C 
ENDBRANCH   6  10
ENDBRANCH   3   6
ENDBRANCH   1   2
BRANCH   1  12
HETATM   12  C9  UNL     1      -0.491   1.226   1.555  1.00  0.00     0.039 C 
BRANCH  12  13
HETATM   13  C10 UNL     1       0.656   1.669   2.388  1.00  0.00    -0.012 A 
HETATM   14  C11 UNL     1       0.597   3.105   2.888  1.00  0.00     0.005 A 
HETATM   15  C12 UNL     1       1.559   2.737   1.790  1.00  0.00     0.005 A 
ENDBRANCH  12  13
ENDBRANCH   1  12
BRANCH   1  16
HETATM   16  N2  UNL     1      -1.540  -0.385   0.195  1.00  0.00    -0.353 N 
ATOM     17  H2  UNL     1      -1.369  -0.382  -0.810  1.00  0.00     0.162 HD
BRANCH  16  18
HETATM   18  C13 UNL     1      -2.879  -0.542   0.622  1.00  0.00     0.189 C 
HETATM   19  S1  UNL     1      -3.195  -0.623   2.203  1.00  0.00    -0.039 SA
BRANCH  18  20
HETATM   20  N3  UNL     1      -3.953  -0.678  -0.315  1.00  0.00    -0.267 N 
BRANCH  20  21
HETATM   21  C14 UNL     1      -5.300  -0.825   0.139  1.00  0.00     0.166 C 
BRANCH  21  22
HETATM   22  C15 UNL     1      -5.943   0.315   0.827  1.00  0.00     0.136 C 
HETATM   23 CL1  UNL     1      -6.076   1.812  -0.074  1.00  0.00    -0.129 Cl
ENDBRANCH  21  22
ENDBRANCH  20  21
BRANCH  20  24
HETATM   24  N4  UNL     1      -3.614  -0.719  -1.663  1.00  0.00    -0.310 N 
ATOM     25  H4  UNL     1      -2.884  -1.345  -2.002  1.00  0.00     0.186 HD
BRANCH  24  26
HETATM   26  C16 UNL     1      -4.309   0.130  -2.548  1.00  0.00     0.095 C 
BRANCH  26  27
HETATM   27  C17 UNL     1      -3.851  -0.032  -3.992  1.00  0.00     0.160 C 
HETATM   28 CL2  UNL     1      -2.130   0.340  -4.196  1.00  0.00    -0.125 Cl
ENDBRANCH  26  27
ENDBRANCH  24  26
ENDBRANCH  20  24
ENDBRANCH  18  20
ENDBRANCH  16  18
ENDBRANCH   1  16
TORSDOF 14
