REMARK  3 active torsions:
REMARK  status: ('A' for Active; 'I' for Inactive)
REMARK    1  A    between atoms: C2_2  and  C3_3 
REMARK    2  A    between atoms: C3_3  and  N1_4 
REMARK    3  A    between atoms: C6_7  and  C7_8 
ROOT
HETATM    1  N1  UNL     1       1.048  -0.415  -0.729  1.00  0.00    -0.232 NA
HETATM    2  C4  UNL     1       0.336  -1.707  -0.733  1.00  0.00     0.114 C 
HETATM    3  C5  UNL     1      -1.089  -1.364  -1.132  1.00  0.00     0.026 C 
HETATM    4  C6  UNL     1      -1.658  -0.611   0.054  1.00  0.00     0.044 C 
HETATM    5  C8  UNL     1      -0.837   0.588   0.344  1.00  0.00     0.040 C 
HETATM    6  C9  UNL     1      -1.160   0.974   1.805  1.00  0.00     0.039 C 
HETATM    7  C10 UNL     1      -1.245   1.819  -0.458  1.00  0.00     0.039 C 
HETATM    8  N2  UNL     1       0.583   0.392   0.304  1.00  0.00    -0.345 N 
ATOM      9  H2  UNL     1       1.210   0.816   0.988  1.00  0.00     0.175 HD
ENDROOT
BRANCH   1  10
HETATM   10  C3  UNL     1       2.425  -0.787  -0.375  1.00  0.00     0.139 C 
BRANCH  10  11
HETATM   11  C2  UNL     1       3.383   0.309  -0.482  1.00  0.00    -0.021 C 
HETATM   12  C1  UNL     1       4.109   0.769   0.513  1.00  0.00     0.008 C 
ENDBRANCH  10  11
ENDBRANCH   1  10
BRANCH   4  13
HETATM   13  C7  UNL     1      -3.095  -0.354  -0.226  1.00  0.00     0.229 C 
HETATM   14  F1  UNL     1      -3.299   0.388  -1.370  1.00  0.00    -0.255 F 
ENDBRANCH   4  13
TORSDOF 3
