REMARK  4 active torsions:
REMARK  status: ('A' for Active; 'I' for Inactive)
REMARK    1  A    between atoms: C2_2  and  C4_4 
REMARK    2  A    between atoms: C4_4  and  N2_8 
REMARK    3  A    between atoms: N2_8  and  O1_10 
REMARK    4  A    between atoms: O1_10  and  C5_11 
ROOT
HETATM    1  N2  UNL     1       1.029  -0.173  -1.056  1.00  0.00    -0.252 N 
ATOM      2  H2  UNL     1       1.392  -0.251  -2.006  1.00  0.00     0.196 HD
ENDROOT
BRANCH   1   3
HETATM    3  C4  UNL     1       1.718   0.618  -0.098  1.00  0.00     0.098 C 
HETATM    4  N1  UNL     1       1.129   1.670   0.357  1.00  0.00    -0.387 N 
ATOM      5  H12 UNL     1       1.624   2.238   1.045  1.00  0.00     0.157 HD
ATOM      6  H11 UNL     1       0.195   1.929   0.040  1.00  0.00     0.157 HD
BRANCH   3   7
HETATM    7  C2  UNL     1       3.062   0.245   0.358  1.00  0.00     0.046 C 
HETATM    8  C1  UNL     1       4.074   0.194  -0.768  1.00  0.00     0.017 C 
HETATM    9  C3  UNL     1       3.034  -1.099   1.053  1.00  0.00     0.017 C 
ENDBRANCH   3   7
ENDBRANCH   1   3
BRANCH   1  10
HETATM   10  O1  UNL     1      -0.107  -0.824  -0.714  1.00  0.00    -0.246 OA
BRANCH  10  11
HETATM   11  C5  UNL     1      -1.224  -0.000  -0.800  1.00  0.00     0.288 C 
HETATM   12  C6  UNL     1      -1.822   0.053   0.609  1.00  0.00     0.063 C 
HETATM   13  C7  UNL     1      -3.136  -0.707   0.529  1.00  0.00     0.007 C 
HETATM   14  C8  UNL     1      -4.019   0.117  -0.409  1.00  0.00     0.026 C 
HETATM   15  C9  UNL     1      -3.316   0.125  -1.751  1.00  0.00     0.171 C 
HETATM   16  O2  UNL     1      -2.094  -0.520  -1.721  1.00  0.00    -0.359 OA
ENDBRANCH  10  11
ENDBRANCH   1  10
TORSDOF 4
