REMARK  7 active torsions:
REMARK  status: ('A' for Active; 'I' for Inactive)
REMARK    1  A    between atoms: O1_2  and  C2_3 
REMARK    2  A    between atoms: C7_9  and  O3_11 
REMARK    3  A    between atoms: C13_18  and  C15_20 
REMARK    4  A    between atoms: C15_20  and  O5_21 
REMARK    5  A    between atoms: O5_21  and  C16_22 
REMARK    6  A    between atoms: C18_25  and  O7_26 
REMARK    7  A    between atoms: O7_26  and  C19_27 
ROOT
HETATM    1  C2  UNL     1      -0.076   1.814  -0.590  1.00  0.00     0.220 C 
HETATM    2  C3  UNL     1      -1.041   1.784   0.578  1.00  0.00     0.158 C 
HETATM    3  O2  UNL     1      -0.559   2.026   1.664  1.00  0.00    -0.295 OA
HETATM    4  C4  UNL     1      -2.465   1.488   0.438  1.00  0.00     0.088 C 
HETATM    5  C5  UNL     1      -2.714   0.095  -0.157  1.00  0.00     0.023 C 
HETATM    6  C6  UNL     1      -4.202   0.096  -0.541  1.00  0.00     0.013 C 
HETATM    7  C7  UNL     1      -2.403  -0.981   0.820  1.00  0.00     0.061 C 
HETATM    8  C8  UNL     1      -3.713  -1.685   1.205  1.00  0.00     0.046 C 
HETATM    9  C9  UNL     1      -1.443  -2.034   0.310  1.00  0.00     0.023 C 
HETATM   10  C10 UNL     1      -1.828  -2.488  -1.063  1.00  0.00     0.013 C 
HETATM   11  C11 UNL     1      -0.001  -1.686   0.495  1.00  0.00     0.086 C 
HETATM   12  C12 UNL     1       0.726  -1.321  -0.730  1.00  0.00     0.140 C 
HETATM   13  O4  UNL     1       0.675  -2.204  -1.618  1.00  0.00    -0.297 OA
HETATM   14  C13 UNL     1       1.468  -0.149  -1.082  1.00  0.00     0.068 C 
HETATM   15  C14 UNL     1       1.065   0.243  -2.535  1.00  0.00     0.028 C 
HETATM   16  C18 UNL     1       1.208   1.121  -0.304  1.00  0.00     0.185 C 
ENDROOT
BRANCH  14  17
HETATM   17  C15 UNL     1       2.948  -0.310  -1.157  1.00  0.00     0.198 C 
BRANCH  17  18
HETATM   18  O5  UNL     1       3.638  -0.689  -0.063  1.00  0.00    -0.321 OA
BRANCH  18  19
HETATM   19  C16 UNL     1       3.799  -1.834   0.595  1.00  0.00     0.254 C 
HETATM   20  C17 UNL     1       4.649  -1.845   1.824  1.00  0.00     0.126 C 
HETATM   21  O6  UNL     1       3.271  -2.881   0.223  1.00  0.00    -0.266 OA
ENDBRANCH  18  19
ENDBRANCH  17  18
ENDBRANCH  14  17
BRANCH  16  22
HETATM   22  O7  UNL     1       1.486   1.013   1.075  1.00  0.00    -0.312 OA
BRANCH  22  23
HETATM   23  C19 UNL     1       2.507   1.688   1.729  1.00  0.00     0.255 C 
HETATM   24  C20 UNL     1       2.752   1.525   3.191  1.00  0.00     0.126 C 
HETATM   25  O8  UNL     1       3.234   2.453   1.042  1.00  0.00    -0.266 OA
ENDBRANCH  22  23
ENDBRANCH  16  22
BRANCH   1  26
HETATM   26  O1  UNL     1       0.182   3.204  -0.738  1.00  0.00    -0.381 OA
HETATM   27  C1  UNL     1      -0.308   3.733  -1.896  1.00  0.00     0.202 C 
ENDBRANCH   1  26
BRANCH   7  28
HETATM   28  O3  UNL     1      -1.874  -0.515   2.029  1.00  0.00    -0.389 OA
ATOM     29  H3  UNL     1      -1.675  -1.203   2.653  1.00  0.00     0.210 HD
ENDBRANCH   7  28
TORSDOF 7
