REMARK  5 active torsions:
REMARK  status: ('A' for Active; 'I' for Inactive)
REMARK    1  A    between atoms: C2_2  and  N1_3 
REMARK    2  A    between atoms: C2_2  and  O1_8 
REMARK    3  A    between atoms: O1_8  and  C4_9 
REMARK    4  A    between atoms: C4_9  and  N5_13 
REMARK       I    between atoms: N6_16  and  C7_17 
REMARK    5  A    between atoms: C9_23  and  C10_24 
ROOT
HETATM    1  N5  UNL     1       0.561  -0.279  -0.778  1.00  0.00    -0.335 N 
HETATM    2  C5  UNL     1       0.727   1.126  -0.950  1.00  0.00     0.147 C 
HETATM    3  C6  UNL     1       2.038   1.650  -0.445  1.00  0.00     0.145 C 
HETATM    4  N6  UNL     1       3.095   0.678  -0.461  1.00  0.00    -0.352 N 
HETATM    5  C7  UNL     1       4.261   0.832   0.316  1.00  0.00     0.184 C 
HETATM    6  N7  UNL     1       5.113  -0.132   0.420  1.00  0.00    -0.374 N 
ATOM      7  H71 UNL     1       5.957  -0.021   0.982  1.00  0.00     0.158 HD
ATOM      8  H72 UNL     1       4.907  -0.998  -0.078  1.00  0.00     0.158 HD
HETATM    9  N8  UNL     1       4.549   2.041   1.011  1.00  0.00    -0.064 NA
HETATM   10  C8  UNL     1       2.943  -0.490  -1.306  1.00  0.00     0.156 C 
HETATM   11  C9  UNL     1       1.663  -1.194  -0.956  1.00  0.00     0.143 C 
ENDROOT
BRANCH   1  12
HETATM   12  C4  UNL     1      -0.711  -0.797  -0.425  1.00  0.00     0.217 C 
HETATM   13  N4  UNL     1      -1.060  -2.020  -0.735  1.00  0.00    -0.365 N 
ATOM     14  H42 UNL     1      -1.975  -2.393  -0.481  1.00  0.00     0.159 HD
ATOM     15  H41 UNL     1      -0.364  -2.568  -1.240  1.00  0.00     0.159 HD
BRANCH  12  16
HETATM   16  O1  UNL     1      -1.659  -0.050   0.263  1.00  0.00    -0.297 OA
BRANCH  16  17
HETATM   17  C2  UNL     1      -3.001  -0.549   0.374  1.00  0.00     0.228 C 
HETATM   18  C1  UNL     1      -3.028  -1.878   1.077  1.00  0.00     0.063 C 
BRANCH  17  19
HETATM   19  N1  UNL     1      -3.865   0.414   0.990  1.00  0.00    -0.340 N 
HETATM   20  C3  UNL     1      -4.589   1.240   0.318  1.00  0.00     0.198 C 
HETATM   21  N2  UNL     1      -4.508   1.170  -1.101  1.00  0.00    -0.067 NA
HETATM   22  N3  UNL     1      -5.441   2.191   0.918  1.00  0.00    -0.067 NA
ATOM     23  H1  UNL     1      -3.909   0.447   2.009  1.00  0.00     0.164 HD
ENDBRANCH  17  19
ENDBRANCH  16  17
ENDBRANCH  12  16
ENDBRANCH   1  12
BRANCH  11  24
HETATM   24  C10 UNL     1       1.800  -2.072   0.229  1.00  0.00     0.080 C 
HETATM   25  N9  UNL     1       2.429  -3.180   0.138  1.00  0.00    -0.409 N 
ATOM     26  H92 UNL     1       2.832  -3.446  -0.760  1.00  0.00     0.155 HD
ATOM     27  H91 UNL     1       2.523  -3.785   0.954  1.00  0.00     0.155 HD
ENDBRANCH  11  24
TORSDOF 5
