REMARK  3 active torsions:
REMARK  status: ('A' for Active; 'I' for Inactive)
REMARK       I    between atoms: C2_2  and  N1_4 
REMARK    1  A    between atoms: N1_4  and  C3_6 
REMARK    2  A    between atoms: C8_13  and  C9_14 
REMARK       I    between atoms: C9_14  and  N3_16 
REMARK    3  A    between atoms: N3_16  and  C10_18 
ROOT
HETATM    1  C3  UNL     1      -1.922  -0.000   0.259  1.00  0.00     0.142 C 
HETATM    2  C4  UNL     1      -2.760   0.779  -0.737  1.00  0.00     0.061 C 
HETATM    3  C5  UNL     1      -1.860   1.891  -1.233  1.00  0.00     0.025 C 
HETATM    4  C6  UNL     1      -2.171   3.208  -0.553  1.00  0.00     0.038 C 
HETATM    5  C7  UNL     1      -1.918   2.052  -2.733  1.00  0.00     0.038 C 
HETATM    6  N2  UNL     1      -0.553   1.481  -0.831  1.00  0.00    -0.379 N 
ATOM      7  H2  UNL     1       0.297   1.946  -1.148  1.00  0.00     0.160 HD
HETATM    8  C8  UNL     1      -0.544   0.477  -0.037  1.00  0.00     0.097 C 
ENDROOT
BRANCH   8   9
HETATM    9  C9  UNL     1       0.673  -0.113   0.503  1.00  0.00     0.266 C 
HETATM   10  O2  UNL     1       0.620  -1.100   1.280  1.00  0.00    -0.266 OA
HETATM   11  N3  UNL     1       1.962   0.383   0.186  1.00  0.00    -0.348 N 
ATOM     12  H3  UNL     1       2.027   1.183  -0.444  1.00  0.00     0.163 HD
BRANCH  11  13
HETATM   13  C10 UNL     1       3.177  -0.171   0.696  1.00  0.00     0.022 C 
HETATM   14  C11 UNL     1       4.365   0.573   0.178  1.00  0.00     0.037 C 
HETATM   15  C12 UNL     1       3.154  -0.091   2.207  1.00  0.00     0.037 C 
HETATM   16  C13 UNL     1       3.268  -1.626   0.245  1.00  0.00     0.037 C 
ENDBRANCH  11  13
ENDBRANCH   8   9
BRANCH   1  17
HETATM   17  N1  UNL     1      -2.023  -1.398  -0.064  1.00  0.00    -0.351 N 
HETATM   18  C2  UNL     1      -2.455  -2.373   0.872  1.00  0.00     0.214 C 
HETATM   19  C1  UNL     1      -2.565  -3.799   0.564  1.00  0.00     0.117 C 
HETATM   20  O1  UNL     1      -2.767  -2.008   2.047  1.00  0.00    -0.274 OA
ATOM     21  H1  UNL     1      -1.774  -1.701  -1.005  1.00  0.00     0.163 HD
ENDBRANCH   1  17
TORSDOF 3
