REMARK  2 active torsions:
REMARK  status: ('A' for Active; 'I' for Inactive)
REMARK    1  A    between atoms: C10_14  and  O2_15 
REMARK    2  A    between atoms: C10_14  and  C11_17 
ROOT
HETATM    1  N1  UNL     1      -1.433  -2.083   3.206  1.00  0.00    -0.374 N 
ATOM      2  H11 UNL     1      -0.687  -2.699   3.530  1.00  0.00     0.158 HD
ATOM      3  H12 UNL     1      -2.323  -2.126   3.702  1.00  0.00     0.158 HD
HETATM    4  C1  UNL     1      -1.288  -1.269   2.213  1.00  0.00     0.182 C 
HETATM    5  O1  UNL     1      -2.287  -0.444   1.779  1.00  0.00    -0.288 OA
HETATM    6  C2  UNL     1      -2.321   0.251   0.598  1.00  0.00     0.086 A 
HETATM    7  C3  UNL     1      -3.500   1.002   0.407  1.00  0.00     0.038 A 
HETATM    8  C4  UNL     1      -3.729   1.743  -0.723  1.00  0.00     0.003 A 
HETATM    9  C5  UNL     1      -2.751   1.728  -1.681  1.00  0.00     0.001 A 
HETATM   10  C6  UNL     1      -1.594   0.998  -1.503  1.00  0.00     0.012 A 
HETATM   11  C7  UNL     1      -1.337   0.235  -0.350  1.00  0.00    -0.001 A 
HETATM   12  C8  UNL     1      -0.030  -0.426  -0.264  1.00  0.00     0.086 A 
HETATM   13  C9  UNL     1       0.510  -1.147  -1.427  1.00  0.00     0.076 A 
HETATM   14  C10 UNL     1       1.179   0.124  -0.927  1.00  0.00     0.130 A 
HETATM   15  S1  UNL     1       0.249  -1.194   1.356  1.00  0.00    -0.068 SA
ENDROOT
BRANCH  14  16
HETATM   16  O2  UNL     1       1.104   1.273  -1.657  1.00  0.00    -0.381 OA
ATOM     17  H2  UNL     1       1.878   1.625  -2.081  1.00  0.00     0.211 HD
ENDBRANCH  14  16
BRANCH  14  18
HETATM   18  C11 UNL     1       2.494  -0.059  -0.193  1.00  0.00     0.089 A 
HETATM   19  C12 UNL     1       2.955  -1.252   0.306  1.00  0.00     0.038 A 
HETATM   20  C13 UNL     1       4.193  -1.002   0.907  1.00  0.00     0.027 A 
HETATM   21  C14 UNL     1       4.380   0.365   0.713  1.00  0.00     0.142 A 
HETATM   22  O3  UNL     1       3.362   0.884   0.062  1.00  0.00    -0.324 OA
ENDBRANCH  14  18
TORSDOF 2
