REMARK  3 active torsions:
REMARK  status: ('A' for Active; 'I' for Inactive)
REMARK    1  A    between atoms: C2_2  and  N1_3 
REMARK    2  A    between atoms: C2_2  and  C9_11 
REMARK    3  A    between atoms: N1_3  and  C3_5 
ROOT
HETATM    1  C1  UNL     1      -1.180   1.679  -1.357  1.00  0.00     0.034 C 
HETATM    2  C2  UNL     1      -1.251   1.042  -0.023  1.00  0.00     0.103 C 
ENDROOT
BRANCH   2   3
HETATM    3  N1  UNL     1      -0.118   0.799   0.723  1.00  0.00    -0.411 N 
ATOM      4  H1  UNL     1      -0.040   1.291   1.613  1.00  0.00     0.154 HD
BRANCH   3   5
HETATM    5  C3  UNL     1       0.927  -0.049   0.384  1.00  0.00     0.077 C 
HETATM    6  C4  UNL     1       1.717   0.328  -0.838  1.00  0.00     0.024 C 
HETATM    7  C5  UNL     1       2.608  -0.856  -1.187  1.00  0.00     0.002 C 
HETATM    8  C6  UNL     1       3.631  -1.002  -0.097  1.00  0.00     0.000 C 
HETATM    9  C7  UNL     1       2.996  -1.126   1.269  1.00  0.00     0.002 C 
HETATM   10  C8  UNL     1       1.979  -0.054   1.526  1.00  0.00     0.024 C 
ENDBRANCH   3   5
ENDBRANCH   2   3
BRANCH   2  11
HETATM   11  C9  UNL     1      -2.175  -0.181  -0.178  1.00  0.00     0.209 C 
HETATM   12  C10 UNL     1      -3.565   0.177  -0.629  1.00  0.00     0.062 C 
HETATM   13  C11 UNL     1      -4.025  -0.702   0.501  1.00  0.00     0.235 C 
HETATM   14  N2  UNL     1      -2.693  -0.680   1.045  1.00  0.00    -0.069 N 
ATOM     15  H22 UNL     1      -2.300  -1.530   1.448  1.00  0.00     0.277 HD
ATOM     16  H21 UNL     1      -2.512  -0.174   1.912  1.00  0.00     0.277 HD
ENDBRANCH   2  11
TORSDOF 3
