REMARK  12 active torsions:
REMARK  status: ('A' for Active; 'I' for Inactive)
REMARK    1  A    between atoms: C2_2  and  C3_3 
REMARK    2  A    between atoms: C2_2  and  C10_15 
REMARK    3  A    between atoms: C3_3  and  O1_4 
REMARK    4  A    between atoms: O1_4  and  C4_5 
REMARK    5  A    between atoms: C4_5  and  C5_7 
REMARK    6  A    between atoms: C5_7  and  O3_8 
REMARK    7  A    between atoms: C5_7  and  C6_10 
REMARK    8  A    between atoms: C14_19  and  C15_20 
REMARK    9  A    between atoms: C15_20  and  O4_21 
REMARK   10  A    between atoms: C15_20  and  C16_23 
REMARK   11  A    between atoms: C16_23  and  C18_25 
REMARK   12  A    between atoms: C23_30  and  O5_31 
ROOT
HETATM    1  C6  UNL     1      -7.952   0.414   0.603  1.00  0.00     0.077 C 
HETATM    2  C7  UNL     1      -7.792  -1.092   0.580  1.00  0.00     0.034 C 
HETATM    3  C8  UNL     1      -9.395   0.672   1.033  1.00  0.00     0.034 C 
HETATM    4  C9  UNL     1      -7.035   1.042   1.530  1.00  0.00     0.071 C 
HETATM    5  N1  UNL     1      -6.308   1.560   2.263  1.00  0.00    -0.196 NA
ENDROOT
BRANCH   1   6
HETATM    6  C5  UNL     1      -7.783   0.994  -0.777  1.00  0.00     0.239 C 
BRANCH   6   7
HETATM    7  C4  UNL     1      -6.426   0.647  -1.262  1.00  0.00     0.289 C 
HETATM    8  O2  UNL     1      -6.340   0.014  -2.369  1.00  0.00    -0.262 OA
BRANCH   7   9
HETATM    9  O1  UNL     1      -5.254   0.950  -0.619  1.00  0.00    -0.319 OA
BRANCH   9  10
HETATM   10  C3  UNL     1      -3.999   0.571  -1.167  1.00  0.00     0.183 C 
BRANCH  10  11
HETATM   11  C2  UNL     1      -2.889   1.046  -0.229  1.00  0.00     0.011 C 
HETATM   12  C1  UNL     1      -2.970   2.571  -0.104  1.00  0.00     0.012 C 
BRANCH  11  13
HETATM   13  C10 UNL     1      -1.586   0.613  -0.817  1.00  0.00     0.001 A 
HETATM   14  C11 UNL     1      -0.332   1.003  -0.059  1.00  0.00     0.016 A 
HETATM   15  C12 UNL     1       0.072  -0.387   0.116  1.00  0.00    -0.030 A 
HETATM   16  C13 UNL     1       0.078  -0.860   1.556  1.00  0.00     0.016 C 
HETATM   17  C14 UNL     1       1.143  -1.042  -0.665  1.00  0.00     0.024 C 
HETATM   18  C28 UNL     1      -1.170  -0.801  -0.668  1.00  0.00    -0.032 A 
HETATM   19  C26 UNL     1       0.724  -0.809  -2.086  1.00  0.00     0.009 C 
HETATM   20  C27 UNL     1      -0.715  -1.353  -1.991  1.00  0.00     0.011 C 
HETATM   21  C29 UNL     1      -1.998  -1.729   0.154  1.00  0.00     0.016 C 
BRANCH  17  22
HETATM   22  C15 UNL     1       2.547  -0.838  -0.298  1.00  0.00     0.128 C 
BRANCH  22  23
HETATM   23  O4  UNL     1       3.310  -1.613  -1.240  1.00  0.00    -0.395 OA
ATOM     24  H4  UNL     1       4.220  -1.481  -1.002  1.00  0.00     0.210 HD
ENDBRANCH  22  23
BRANCH  22  25
HETATM   25  C16 UNL     1       3.117   0.505  -0.349  1.00  0.00     0.025 C 
HETATM   26  C17 UNL     1       3.081   1.073  -1.738  1.00  0.00     0.014 C 
BRANCH  25  27
HETATM   27  C18 UNL     1       4.491   0.735   0.208  1.00  0.00     0.060 C 
HETATM   28  C19 UNL     1       5.607   0.062  -0.286  1.00  0.00    -0.176 C 
HETATM   29  C20 UNL     1       6.705  -0.612  -0.846  1.00  0.00     0.107 C 
HETATM   30  C21 UNL     1       7.377  -1.307   0.393  1.00  0.00     0.119 A 
HETATM   31  C22 UNL     1       6.747  -1.047   1.690  1.00  0.00     0.135 A 
HETATM   32  N2  UNL     1       7.900  -0.419   1.277  1.00  0.00    -0.383 N 
HETATM   33  C23 UNL     1       5.474  -0.655   2.115  1.00  0.00     0.144 C 
HETATM   34  C24 UNL     1       4.552   0.459   1.748  1.00  0.00     0.050 C 
HETATM   35  C25 UNL     1       8.756   0.523   1.522  1.00  0.00     0.116 C 
BRANCH  33  36
HETATM   36  O5  UNL     1       5.541  -0.449   3.540  1.00  0.00    -0.393 OA
ATOM     37  H5  UNL     1       4.676  -0.183   3.829  1.00  0.00     0.210 HD
ENDBRANCH  33  36
ENDBRANCH  25  27
ENDBRANCH  22  25
ENDBRANCH  17  22
ENDBRANCH  11  13
ENDBRANCH  10  11
ENDBRANCH   9  10
ENDBRANCH   7   9
ENDBRANCH   6   7
BRANCH   6  38
HETATM   38  O3  UNL     1      -8.773   0.558  -1.652  1.00  0.00    -0.384 OA
ATOM     39  H3  UNL     1      -9.643   0.780  -1.341  1.00  0.00     0.210 HD
ENDBRANCH   6  38
ENDBRANCH   1   6
TORSDOF 12
