REMARK  5 active torsions:
REMARK  status: ('A' for Active; 'I' for Inactive)
REMARK    1  A    between atoms: C2_2  and  C3_4 
REMARK    2  A    between atoms: C3_4  and  C4_5 
REMARK    3  A    between atoms: C3_4  and  C5_12 
REMARK    4  A    between atoms: C4_5  and  N1_6 
REMARK    5  A    between atoms: C4_5  and  O2_10 
ROOT
HETATM    1  C3  UNL     1      -1.193  -0.229  -0.354  1.00  0.00     0.140 C 
ENDROOT
BRANCH   1   2
HETATM    2  C2  UNL     1      -1.870   0.998  -0.740  1.00  0.00     0.134 C 
HETATM    3  C1  UNL     1      -1.628   1.759  -1.974  1.00  0.00     0.091 C 
HETATM    4  O1  UNL     1      -2.741   1.474   0.024  1.00  0.00    -0.298 OA
ENDBRANCH   1   2
BRANCH   1   5
HETATM    5  C4  UNL     1      -1.982  -0.824   0.823  1.00  0.00     0.329 C 
BRANCH   5   6
HETATM    6  N1  UNL     1      -1.425  -2.053   1.306  1.00  0.00    -0.052 N 
ATOM      7  H13 UNL     1      -1.331  -2.732   0.551  1.00  0.00     0.277 HD
ATOM      8  H12 UNL     1      -0.441  -1.936   1.549  1.00  0.00     0.277 HD
ATOM      9  H11 UNL     1      -1.949  -2.448   2.087  1.00  0.00     0.277 HD
ENDBRANCH   5   6
BRANCH   5  10
HETATM   10  O2  UNL     1      -2.126   0.114   1.846  1.00  0.00    -0.369 OA
ATOM     11  H2  UNL     1      -2.614  -0.254   2.574  1.00  0.00     0.212 HD
ENDBRANCH   5  10
ENDBRANCH   1   5
BRANCH   1  12
HETATM   12  C5  UNL     1       0.238  -0.040   0.044  1.00  0.00     0.136 C 
HETATM   13  C6  UNL     1       1.146   0.516  -0.982  1.00  0.00     0.033 C 
HETATM   14  C7  UNL     1       2.516   0.791  -0.333  1.00  0.00     0.004 C 
HETATM   15  C8  UNL     1       3.021  -0.466   0.291  1.00  0.00     0.026 C 
HETATM   16  C9  UNL     1       1.914  -0.928   1.254  1.00  0.00     0.168 C 
HETATM   17  O3  UNL     1       0.776  -1.250   0.528  1.00  0.00    -0.385 OA
ENDBRANCH   1  12
TORSDOF 5
