REMARK  4 active torsions:
REMARK  status: ('A' for Active; 'I' for Inactive)
REMARK       I    between atoms: C1_2  and  N1_3 
REMARK    1  A    between atoms: C1_2  and  C15_21 
REMARK    2  A    between atoms: N1_3  and  C2_4 
REMARK    3  A    between atoms: C18_24  and  C19_25 
REMARK    4  A    between atoms: C19_25  and  C20_26 
ROOT
HETATM    1  C2  UNL     1      -2.605  -1.494   0.822  1.00  0.00     0.303 A 
HETATM    2  N2  UNL     1      -3.301  -0.371   1.427  1.00  0.00    -0.353 N 
ATOM      3  H2  UNL     1      -3.114  -0.356   2.430  1.00  0.00     0.163 HD
HETATM    4  C3  UNL     1      -4.050   0.580   1.131  1.00  0.00     0.057 A 
HETATM    5  C4  UNL     1      -4.406   1.366   2.243  1.00  0.00     0.031 A 
HETATM    6  C5  UNL     1      -5.237   2.453   2.128  1.00  0.00     0.002 A 
HETATM    7  C6  UNL     1      -5.730   2.777   0.890  1.00  0.00     0.002 A 
HETATM    8  C7  UNL     1      -5.375   1.996  -0.211  1.00  0.00     0.032 A 
HETATM    9  C8  UNL     1      -4.545   0.907  -0.113  1.00  0.00     0.059 A 
HETATM   10  N3  UNL     1      -4.302   0.325  -1.245  1.00  0.00    -0.354 N 
ATOM     11  H3  UNL     1      -4.778   0.730  -2.051  1.00  0.00     0.166 HD
HETATM   12  C9  UNL     1      -3.473  -0.792  -1.532  1.00  0.00     0.043 A 
HETATM   13  C10 UNL     1      -3.434  -1.080  -2.898  1.00  0.00     0.030 A 
HETATM   14  C11 UNL     1      -2.682  -2.122  -3.389  1.00  0.00     0.002 A 
HETATM   15  C12 UNL     1      -1.951  -2.903  -2.527  1.00  0.00     0.001 A 
HETATM   16  C13 UNL     1      -1.993  -2.616  -1.185  1.00  0.00     0.014 A 
HETATM   17  C14 UNL     1      -2.758  -1.553  -0.673  1.00  0.00     0.023 A 
ENDROOT
BRANCH   1  18
HETATM   18  N1  UNL     1      -1.322  -1.625   1.242  1.00  0.00    -0.379 NA
HETATM   19  C1  UNL     1       0.002  -1.761   1.675  1.00  0.00     0.323 C 
HETATM   20  O1  UNL     1       0.375  -2.513   2.600  1.00  0.00    -0.251 OA
BRANCH  19  21
HETATM   21  C15 UNL     1       1.081  -0.974   1.015  1.00  0.00     0.046 A 
HETATM   22  C16 UNL     1       1.175   0.364   1.305  1.00  0.00     0.018 A 
HETATM   23  C17 UNL     1       2.182   1.125   0.695  1.00  0.00     0.008 A 
HETATM   24  C18 UNL     1       3.061   0.540  -0.181  1.00  0.00    -0.052 A 
HETATM   25  C24 UNL     1       2.944  -0.802  -0.454  1.00  0.00     0.008 A 
HETATM   26  C25 UNL     1       1.968  -1.534   0.140  1.00  0.00     0.018 A 
BRANCH  24  27
HETATM   27  C19 UNL     1       4.143   1.311  -0.846  1.00  0.00     0.095 C 
BRANCH  27  28
HETATM   28  C20 UNL     1       5.415   1.261  -0.084  1.00  0.00     0.013 A 
HETATM   29  C21 UNL     1       6.389   0.296  -0.256  1.00  0.00     0.026 A 
HETATM   30  C22 UNL     1       7.415   0.577   0.620  1.00  0.00     0.019 A 
HETATM   31  C23 UNL     1       7.066   1.698   1.312  1.00  0.00     0.088 A 
HETATM   32  N4  UNL     1       5.853   2.096   0.872  1.00  0.00    -0.369 N 
ATOM     33  H4  UNL     1       5.344   2.911   1.215  1.00  0.00     0.165 HD
ENDBRANCH  27  28
ENDBRANCH  24  27
ENDBRANCH  19  21
ENDBRANCH   1  18
TORSDOF 4
