REMARK  5 active torsions:
REMARK  status: ('A' for Active; 'I' for Inactive)
REMARK    1  A    between atoms: C3_6  and  O1_7 
REMARK    2  A    between atoms: C4_9  and  C5_10 
REMARK    3  A    between atoms: C5_10  and  N3_11 
REMARK    4  A    between atoms: C15_21  and  C16_22 
REMARK    5  A    between atoms: C16_22  and  N4_23 
ROOT
HETATM    1  N1  UNL     1      -2.318   3.775   0.743  1.00  0.00    -0.190 NA
HETATM    2  C1  UNL     1      -1.573   3.151   0.147  1.00  0.00     0.118 C 
HETATM    3  C2  UNL     1      -0.646   2.406  -0.624  1.00  0.00     0.124 A 
HETATM    4  N2  UNL     1       0.197   2.977  -1.539  1.00  0.00    -0.327 N 
ATOM      5  H2  UNL     1       0.251   3.973  -1.752  1.00  0.00     0.168 HD
HETATM    6  C3  UNL     1       0.935   2.027  -2.107  1.00  0.00     0.149 A 
HETATM    7  C4  UNL     1       0.558   0.814  -1.543  1.00  0.00     0.022 A 
HETATM    8  C15 UNL     1      -0.467   1.065  -0.582  1.00  0.00     0.009 A 
ENDROOT
BRANCH   8   9
HETATM    9  C16 UNL     1      -1.027  -0.025   0.230  1.00  0.00     0.168 C 
BRANCH   9  10
HETATM   10  N4  UNL     1      -2.430  -0.151   0.333  1.00  0.00    -0.339 N 
HETATM   11  C17 UNL     1      -3.253   0.278   1.441  1.00  0.00     0.166 C 
HETATM   12  C18 UNL     1      -4.653   0.205   0.967  1.00  0.00    -0.025 A 
HETATM   13  C19 UNL     1      -5.792   0.702   1.527  1.00  0.00     0.010 A 
HETATM   14  C23 UNL     1      -4.700  -0.562  -0.146  1.00  0.00     0.040 A 
HETATM   15  C20 UNL     1      -7.035   0.404   0.935  1.00  0.00     0.001 A 
HETATM   16  C21 UNL     1      -7.107  -0.374  -0.189  1.00  0.00     0.001 A 
HETATM   17  C22 UNL     1      -5.918  -0.859  -0.726  1.00  0.00     0.017 A 
HETATM   18  C24 UNL     1      -3.314  -0.807  -0.557  1.00  0.00     0.255 C 
HETATM   19  O2  UNL     1      -2.978  -1.492  -1.537  1.00  0.00    -0.267 OA
ENDBRANCH   9  10
ENDBRANCH   8   9
BRANCH   6  20
HETATM   20  O1  UNL     1       1.915   2.236  -3.097  1.00  0.00    -0.346 OA
ATOM     21  H1  UNL     1       2.442   1.558  -3.503  1.00  0.00     0.219 HD
ENDBRANCH   6  20
BRANCH   7  22
HETATM   22  C5  UNL     1       1.180  -0.475  -1.879  1.00  0.00     0.171 C 
BRANCH  22  23
HETATM   23  N3  UNL     1       2.494  -0.661  -1.256  1.00  0.00    -0.361 N 
HETATM   24  C6  UNL     1       3.615  -0.387  -1.934  1.00  0.00     0.091 A 
HETATM   25  C7  UNL     1       4.869  -0.543  -1.386  1.00  0.00     0.029 A 
HETATM   26  C8  UNL     1       5.049  -0.994  -0.111  1.00  0.00    -0.023 A 
HETATM   27  C9  UNL     1       6.273  -1.177   0.478  1.00  0.00     0.012 A 
HETATM   28  C13 UNL     1       3.871  -1.279   0.593  1.00  0.00    -0.010 A 
HETATM   29  C10 UNL     1       6.414  -1.641   1.770  1.00  0.00     0.001 A 
HETATM   30  C11 UNL     1       5.253  -1.930   2.493  1.00  0.00     0.001 A 
HETATM   31  C12 UNL     1       4.034  -1.743   1.892  1.00  0.00     0.013 A 
HETATM   32  C14 UNL     1       2.639  -1.103  -0.006  1.00  0.00     0.103 A 
ENDBRANCH  22  23
ENDBRANCH   7  22
TORSDOF 5
