REMARK  3 active torsions:
REMARK  status: ('A' for Active; 'I' for Inactive)
REMARK    1  A    between atoms: C2_2  and  N1_3 
REMARK    2  A    between atoms: C2_2  and  C4_8 
REMARK       I    between atoms: N1_3  and  C3_5 
REMARK       I    between atoms: C4_8  and  N3_10 
REMARK    3  A    between atoms: N3_10  and  C5_12 
ROOT
HETATM    1  C5  UNL     1       0.593   0.529  -0.532  1.00  0.00     0.102 C 
HETATM    2  C6  UNL     1      -0.534   0.639   0.424  1.00  0.00    -0.017 C 
HETATM    3  C7  UNL     1      -0.298   1.462   1.644  1.00  0.00     0.018 C 
HETATM    4  C8  UNL     1      -1.918   0.892  -0.116  1.00  0.00     0.031 C 
HETATM    5  C9  UNL     1      -2.789  -0.168   0.383  1.00  0.00     0.050 C 
HETATM    6  C10 UNL     1      -1.911  -1.384   0.517  1.00  0.00     0.026 C 
HETATM    7  C11 UNL     1      -0.488  -0.876   0.573  1.00  0.00     0.007 C 
HETATM    8  C12 UNL     1       0.175  -0.882  -0.764  1.00  0.00    -0.015 A 
HETATM    9  C13 UNL     1       0.840  -2.000  -1.357  1.00  0.00     0.013 A 
HETATM   10  C14 UNL     1      -0.416  -1.389  -1.993  1.00  0.00     0.013 A 
HETATM   11  C15 UNL     1      -3.356  -0.000   1.772  1.00  0.00     0.227 C 
HETATM   12  O3  UNL     1      -3.271   0.832   2.659  1.00  0.00    -0.273 OA
HETATM   13  N4  UNL     1      -4.158  -1.216   1.860  1.00  0.00    -0.360 N 
ATOM     14  H4  UNL     1      -4.393  -1.715   2.718  1.00  0.00     0.162 HD
HETATM   15  C16 UNL     1      -4.573  -1.603   0.489  1.00  0.00     0.132 C 
HETATM   16  C17 UNL     1      -4.095  -0.379  -0.290  1.00  0.00    -0.015 C 
HETATM   17  C18 UNL     1      -5.014   0.740   0.189  1.00  0.00     0.018 C 
HETATM   18  C19 UNL     1      -4.182  -0.464  -1.737  1.00  0.00     0.018 C 
ENDROOT
BRANCH   1  19
HETATM   19  N3  UNL     1       1.925   0.713  -0.040  1.00  0.00    -0.353 N 
HETATM   20  C4  UNL     1       3.119   0.632  -0.794  1.00  0.00     0.240 C 
HETATM   21  O2  UNL     1       3.200   0.336  -1.972  1.00  0.00    -0.271 OA
ATOM     22  H3  UNL     1       2.023   0.923   0.953  1.00  0.00     0.163 HD
BRANCH  20  23
HETATM   23  C2  UNL     1       4.431   0.925  -0.078  1.00  0.00     0.173 C 
HETATM   24  C1  UNL     1       4.436   2.483   0.015  1.00  0.00     0.042 C 
BRANCH  23  25
HETATM   25  N1  UNL     1       5.593   0.561  -0.805  1.00  0.00    -0.333 N 
HETATM   26  C3  UNL     1       6.632  -0.208  -0.233  1.00  0.00     0.329 C 
HETATM   27  N2  UNL     1       7.806  -0.608  -0.866  1.00  0.00    -0.040 NA
HETATM   28  O1  UNL     1       6.427  -0.556   0.988  1.00  0.00    -0.251 OA
ATOM     29  H1  UNL     1       5.682   0.865  -1.775  1.00  0.00     0.164 HD
ENDBRANCH  23  25
ENDBRANCH  20  23
ENDBRANCH   1  19
TORSDOF 3
