REMARK  9 active torsions:
REMARK  status: ('A' for Active; 'I' for Inactive)
REMARK    1  A    between atoms: C2_2  and  N1_3 
REMARK       I    between atoms: N1_3  and  C3_5 
REMARK       I    between atoms: C3_5  and  N3_7 
REMARK       I    between atoms: N3_7  and  C4_8 
REMARK       I    between atoms: C4_8  and  N4_9 
REMARK       I    between atoms: C4_8  and  N7_21 
REMARK    2  A    between atoms: N5_11  and  C5_13 
REMARK    3  A    between atoms: C5_13  and  N6_15 
REMARK    4  A    between atoms: N6_15  and  C6_17 
REMARK    5  A    between atoms: C6_17  and  C7_18 
REMARK    6  A    between atoms: C7_18  and  O1_19 
REMARK    7  A    between atoms: N7_21  and  C8_23 
REMARK    8  A    between atoms: C8_23  and  C9_24 
REMARK    9  A    between atoms: C10_25  and  C11_26 
ROOT
HETATM    1  N1  UNL     1      -2.461  -4.427  -0.050  1.00  0.00    -0.353 N 
ATOM      2  H1  UNL     1      -2.300  -5.419  -0.224  1.00  0.00     0.163 HD
HETATM    3  C3  UNL     1      -1.429  -3.644  -0.199  1.00  0.00     0.266 C 
HETATM    4  N2  UNL     1      -0.244  -4.427  -0.596  1.00  0.00    -0.049 NA
HETATM    5  N3  UNL     1      -1.381  -2.344  -0.049  1.00  0.00    -0.338 NA
HETATM    6  C4  UNL     1      -1.711  -1.171   0.127  1.00  0.00     0.273 C 
HETATM    7  N4  UNL     1      -2.990  -0.769   0.313  1.00  0.00    -0.257 N 
ATOM      8  H4  UNL     1      -3.503  -1.644   0.206  1.00  0.00     0.191 HD
HETATM    9  N5  UNL     1      -3.833  -0.027   0.519  1.00  0.00    -0.273 N 
ATOM     10  H5  UNL     1      -4.725  -0.521   0.512  1.00  0.00     0.189 HD
HETATM   11  N7  UNL     1      -0.551  -0.241   0.091  1.00  0.00    -0.339 N 
ATOM     12  H7  UNL     1      -0.544   0.617  -0.461  1.00  0.00     0.164 HD
ENDROOT
BRANCH  11  13
HETATM   13  C8  UNL     1       0.552  -0.655   0.898  1.00  0.00     0.218 C 
BRANCH  13  14
HETATM   14  C9  UNL     1       1.782   0.009   0.468  1.00  0.00    -0.086 C 
HETATM   15  C10 UNL     1       2.802   0.504   0.074  1.00  0.00    -0.100 C 
BRANCH  15  16
HETATM   16  C11 UNL     1       4.049   1.058  -0.446  1.00  0.00     0.065 C 
HETATM   17  C12 UNL     1       5.000  -0.121  -0.657  1.00  0.00     0.017 C 
HETATM   18  C13 UNL     1       6.340   0.313  -1.135  1.00  0.00     0.001 C 
HETATM   19  C14 UNL     1       6.830   1.572  -0.481  1.00  0.00     0.000 C 
HETATM   20  C15 UNL     1       6.068   1.824   0.778  1.00  0.00     0.001 C 
HETATM   21  C16 UNL     1       4.593   2.074   0.488  1.00  0.00     0.017 C 
ENDBRANCH  15  16
ENDBRANCH  13  14
ENDBRANCH  11  13
BRANCH   9  22
HETATM   22  C5  UNL     1      -4.056   1.320   0.776  1.00  0.00     0.186 C 
HETATM   23  S1  UNL     1      -4.708   1.768   2.234  1.00  0.00    -0.040 SA
BRANCH  22  24
HETATM   24  N6  UNL     1      -3.732   2.338  -0.165  1.00  0.00    -0.364 N 
ATOM     25  H6  UNL     1      -3.316   2.057  -1.053  1.00  0.00     0.162 HD
BRANCH  24  26
HETATM   26  C6  UNL     1      -3.957   3.737   0.064  1.00  0.00     0.148 C 
BRANCH  26  27
HETATM   27  C7  UNL     1      -5.431   4.069   0.035  1.00  0.00     0.183 C 
BRANCH  27  28
HETATM   28  O1  UNL     1      -5.570   5.453   0.267  1.00  0.00    -0.399 OA
ATOM     29  H1  UNL     1      -6.497   5.662   0.249  1.00  0.00     0.209 HD
ENDBRANCH  27  28
ENDBRANCH  26  27
ENDBRANCH  24  26
ENDBRANCH  22  24
ENDBRANCH   9  22
BRANCH   1  30
HETATM   30  C2  UNL     1      -3.778  -4.066   0.324  1.00  0.00     0.119 C 
HETATM   31  C1  UNL     1      -4.624  -5.339   0.393  1.00  0.00     0.026 C 
ENDBRANCH   1  30
TORSDOF 9
