REMARK  8 active torsions:
REMARK  status: ('A' for Active; 'I' for Inactive)
REMARK    1  A    between atoms: C2_2  and  C3_3 
REMARK    2  A    between atoms: C3_3  and  C4_4 
REMARK    3  A    between atoms: C3_3  and  C8_12 
REMARK    4  A    between atoms: C4_4  and  C5_5 
REMARK    5  A    between atoms: C5_5  and  N1_6 
REMARK       I    between atoms: N1_6  and  C6_8 
REMARK    6  A    between atoms: C6_8  and  C7_10 
REMARK    7  A    between atoms: C13_18  and  C14_19 
REMARK    8  A    between atoms: C18_23  and  O2_24 
ROOT
HETATM    1  C8  UNL     1       1.809  -0.110   0.273  1.00  0.00     0.003 C 
HETATM    2  C9  UNL     1       1.701   1.161  -0.580  1.00  0.00     0.008 C 
HETATM    3  C10 UNL     1       0.276   1.654  -0.430  1.00  0.00     0.027 C 
HETATM    4  C11 UNL     1      -0.469   0.397  -0.452  1.00  0.00     0.049 C 
HETATM    5 CL2  UNL     1      -0.296  -0.294  -2.105  1.00  0.00    -0.118 Cl
HETATM    6  C12 UNL     1      -1.842   0.347   0.059  1.00  0.00     0.019 C 
HETATM    7  C13 UNL     1      -2.822   1.353  -0.420  1.00  0.00    -0.003 C 
HETATM    8  C17 UNL     1      -4.152   0.982   0.271  1.00  0.00     0.038 C 
HETATM    9  C18 UNL     1      -4.723  -0.275  -0.314  1.00  0.00     0.126 C 
HETATM   10  C19 UNL     1      -3.737  -1.368  -0.024  1.00  0.00    -0.018 C 
HETATM   11  C20 UNL     1      -3.919  -1.857   1.398  1.00  0.00     0.018 C 
HETATM   12  C21 UNL     1      -4.157  -2.533  -0.924  1.00  0.00     0.018 C 
HETATM   13  C22 UNL     1      -2.329  -1.045  -0.371  1.00  0.00     0.002 C 
HETATM   14  C23 UNL     1      -1.479  -2.110   0.240  1.00  0.00     0.007 C 
HETATM   15  C24 UNL     1       0.009  -1.900   0.135  1.00  0.00     0.012 C 
HETATM   16  C25 UNL     1       0.411  -0.508   0.436  1.00  0.00    -0.018 C 
HETATM   17  C26 UNL     1       0.062  -0.194   1.917  1.00  0.00     0.018 C 
ENDROOT
BRANCH   1  18
HETATM   18  C3  UNL     1       2.819  -0.976  -0.354  1.00  0.00     0.014 C 
BRANCH  18  19
HETATM   19  C2  UNL     1       3.141  -2.262   0.294  1.00  0.00    -0.032 C 
HETATM   20  C1  UNL     1       3.044  -3.425  -0.340  1.00  0.00     0.007 C 
ENDBRANCH  18  19
BRANCH  18  21
HETATM   21  C4  UNL     1       4.130  -0.222  -0.490  1.00  0.00     0.028 C 
BRANCH  21  22
HETATM   22  C5  UNL     1       4.797   0.030   0.836  1.00  0.00     0.123 C 
BRANCH  22  23
HETATM   23  N1  UNL     1       6.055   0.761   0.689  1.00  0.00    -0.360 N 
HETATM   24  C6  UNL     1       7.121   0.213  -0.049  1.00  0.00     0.231 C 
HETATM   25  O1  UNL     1       7.143  -0.887  -0.633  1.00  0.00    -0.272 OA
ATOM     26  H1  UNL     1       6.161   1.677   1.125  1.00  0.00     0.162 HD
BRANCH  24  27
HETATM   27  C7  UNL     1       8.387   1.020  -0.166  1.00  0.00     0.217 C 
HETATM   28 CL1  UNL     1       8.244   2.040  -1.609  1.00  0.00    -0.121 Cl
ENDBRANCH  24  27
ENDBRANCH  22  23
ENDBRANCH  21  22
ENDBRANCH  18  21
ENDBRANCH   1  18
BRANCH   7  29
HETATM   29  C14 UNL     1      -2.633   2.768  -0.021  1.00  0.00    -0.018 C 
HETATM   30  C15 UNL     1      -2.660   2.961   1.491  1.00  0.00     0.010 C 
HETATM   31  C16 UNL     1      -3.861   3.539  -0.541  1.00  0.00     0.010 C 
ENDBRANCH   7  29
BRANCH   9  32
HETATM   32  O2  UNL     1      -5.050  -0.152  -1.641  1.00  0.00    -0.395 OA
ATOM     33  H2  UNL     1      -5.412  -0.948  -2.012  1.00  0.00     0.210 HD
ENDBRANCH   9  32
TORSDOF 8
