REMARK  7 active torsions:
REMARK  status: ('A' for Active; 'I' for Inactive)
REMARK       I    between atoms: C1_2  and  N2_4 
REMARK    1  A    between atoms: N2_4  and  C2_6 
REMARK    2  A    between atoms: C2_6  and  C3_7 
REMARK    3  A    between atoms: C2_6  and  C12_23 
REMARK    4  A    between atoms: C3_7  and  O2_8 
REMARK    5  A    between atoms: O2_8  and  C4_9 
REMARK    6  A    between atoms: C8_13  and  C9_14 
REMARK    7  A    between atoms: N3_15  and  N4_17 
ROOT
HETATM    1  C4  UNL     1       0.554  -0.272  -0.093  1.00  0.00     0.069 A 
HETATM    2  C5  UNL     1       0.651  -1.637   0.085  1.00  0.00     0.037 A 
HETATM    3  C6  UNL     1       1.885  -2.242   0.198  1.00  0.00     0.004 A 
HETATM    4  C7  UNL     1       3.015  -1.449   0.130  1.00  0.00     0.013 A 
HETATM    5  C8  UNL     1       2.953  -0.085  -0.046  1.00  0.00    -0.017 A 
HETATM    6  C11 UNL     1       1.720   0.500  -0.157  1.00  0.00     0.049 A 
ENDROOT
BRANCH   1   7
HETATM    7  O2  UNL     1      -0.677   0.356  -0.209  1.00  0.00    -0.349 OA
BRANCH   7   8
HETATM    8  C3  UNL     1      -1.845  -0.441  -0.142  1.00  0.00     0.205 C 
BRANCH   8   9
HETATM    9  C2  UNL     1      -3.026   0.491  -0.296  1.00  0.00     0.143 C 
BRANCH   9  10
HETATM   10  N2  UNL     1      -2.942   1.445   0.814  1.00  0.00    -0.335 N 
HETATM   11  C1  UNL     1      -2.740   2.824   0.591  1.00  0.00     0.329 C 
HETATM   12  N1  UNL     1      -2.667   3.698   1.698  1.00  0.00    -0.040 NA
HETATM   13  O1  UNL     1      -2.630   3.238  -0.591  1.00  0.00    -0.251 OA
ATOM     14  H2  UNL     1      -3.032   1.104   1.771  1.00  0.00     0.164 HD
ENDBRANCH   9  10
BRANCH   9  15
HETATM   15  C12 UNL     1      -4.316  -0.215  -0.302  1.00  0.00    -0.033 A 
HETATM   16  C13 UNL     1      -4.872  -0.735   0.867  1.00  0.00     0.009 A 
HETATM   17  C14 UNL     1      -6.068  -1.388   0.853  1.00  0.00     0.001 A 
HETATM   18  C15 UNL     1      -6.775  -1.560  -0.321  1.00  0.00     0.000 A 
HETATM   19  C16 UNL     1      -6.224  -1.047  -1.469  1.00  0.00     0.001 A 
HETATM   20  C17 UNL     1      -5.016  -0.384  -1.472  1.00  0.00     0.009 A 
ENDBRANCH   9  15
ENDBRANCH   8   9
ENDBRANCH   7   8
ENDBRANCH   1   7
BRANCH   5  21
HETATM   21  C9  UNL     1       4.148   0.738  -0.116  1.00  0.00     0.118 C 
HETATM   22  N3  UNL     1       5.290   0.143  -0.006  1.00  0.00    -0.309 N 
ATOM     23  H3  UNL     1       5.286  -0.869   0.123  1.00  0.00     0.186 HD
BRANCH  22  24
HETATM   24  N4  UNL     1       6.512   0.777  -0.051  1.00  0.00    -0.276 N 
HETATM   25  C10 UNL     1       7.517   0.188  -0.597  1.00  0.00     0.215 C 
HETATM   26  N5  UNL     1       7.320  -1.108  -1.137  1.00  0.00    -0.065 NA
HETATM   27  N6  UNL     1       8.806   0.818  -0.662  1.00  0.00    -0.065 NA
ATOM     28  H4  UNL     1       6.620   1.710   0.347  1.00  0.00     0.189 HD
ENDBRANCH  22  24
ENDBRANCH   5  21
TORSDOF 7
