REMARK  9 active torsions:
REMARK  status: ('A' for Active; 'I' for Inactive)
REMARK    1  A    between atoms: C3_3  and  C4_4 
REMARK    2  A    between atoms: C8_8  and  O1_9 
REMARK    3  A    between atoms: C16_18  and  C17_19 
REMARK    4  A    between atoms: C17_19  and  C18_20 
REMARK    5  A    between atoms: C19_23  and  C20_24 
REMARK    6  A    between atoms: C20_24  and  C21_25 
REMARK       I    between atoms: C21_25  and  N1_27 
REMARK    7  A    between atoms: N1_27  and  C22_29 
REMARK    8  A    between atoms: C28_38  and  C29_39 
REMARK    9  A    between atoms: C29_39  and  N3_40 
ROOT
HETATM    1  C1  UNL     1      -6.002  -2.861   3.074  1.00  0.00     0.112 C 
HETATM    2  C2  UNL     1      -5.168  -1.748   2.619  1.00  0.00    -0.111 C 
HETATM    3  C3  UNL     1      -4.484  -0.816   2.261  1.00  0.00    -0.102 C 
ENDROOT
BRANCH   3   4
HETATM    4  C4  UNL     1      -3.644   0.341   1.845  1.00  0.00     0.070 C 
HETATM    5  C5  UNL     1      -4.540   1.522   1.914  1.00  0.00     0.023 C 
HETATM    6  C6  UNL     1      -4.445   2.568   0.886  1.00  0.00    -0.002 C 
HETATM    7  C7  UNL     1      -5.785   3.195   0.575  1.00  0.00     0.037 C 
HETATM    8  C11 UNL     1      -3.891   2.073  -0.456  1.00  0.00    -0.036 C 
HETATM    9  C8  UNL     1      -5.717   4.315  -0.405  1.00  0.00     0.118 C 
HETATM   10  C9  UNL     1      -4.859   4.070  -1.599  1.00  0.00     0.032 C 
HETATM   11  C10 UNL     1      -3.627   3.262  -1.328  1.00  0.00     0.012 C 
HETATM   12  C12 UNL     1      -4.976   1.227  -1.071  1.00  0.00     0.016 C 
HETATM   13  C13 UNL     1      -2.657   1.350  -0.110  1.00  0.00     0.000 C 
HETATM   14  C14 UNL     1      -1.849   0.838  -1.268  1.00  0.00     0.011 C 
HETATM   15  C37 UNL     1      -3.069   0.014   0.527  1.00  0.00     0.010 C 
HETATM   16  C15 UNL     1      -0.854  -0.015  -0.465  1.00  0.00    -0.005 C 
HETATM   17  C16 UNL     1      -0.033  -0.922  -1.282  1.00  0.00     0.004 C 
HETATM   18  C36 UNL     1      -1.865  -0.791   0.412  1.00  0.00    -0.004 C 
HETATM   19  C19 UNL     1       1.436  -0.883  -0.901  1.00  0.00    -0.001 C 
HETATM   20  C27 UNL     1       1.603  -1.176   0.573  1.00  0.00     0.011 C 
HETATM   21  C28 UNL     1       1.020  -2.411   1.111  1.00  0.00     0.014 C 
HETATM   22  C34 UNL     1      -0.409  -2.459   1.496  1.00  0.00     0.007 C 
HETATM   23  C35 UNL     1      -1.136  -1.182   1.645  1.00  0.00     0.006 C 
BRANCH   9  24
HETATM   24  O1  UNL     1      -7.029   4.536  -0.874  1.00  0.00    -0.396 OA
ATOM     25  H1  UNL     1      -6.986   5.250  -1.499  1.00  0.00     0.210 HD
ENDBRANCH   9  24
BRANCH  17  26
HETATM   26  C17 UNL     1      -0.136  -0.647  -2.772  1.00  0.00     0.118 C 
BRANCH  26  27
HETATM   27  C18 UNL     1       0.672  -1.556  -3.594  1.00  0.00     0.172 C 
HETATM   28  O2  UNL     1       1.821  -1.258  -3.971  1.00  0.00    -0.648 OA
HETATM   29  O3  UNL     1       0.148  -2.783  -3.965  1.00  0.00    -0.648 OA
ENDBRANCH  26  27
ENDBRANCH  17  26
BRANCH  19  30
HETATM   30  C20 UNL     1       1.896   0.536  -1.111  1.00  0.00     0.108 C 
BRANCH  30  31
HETATM   31  C21 UNL     1       3.347   0.645  -0.841  1.00  0.00     0.218 C 
HETATM   32  O4  UNL     1       4.119  -0.314  -0.726  1.00  0.00    -0.274 OA
HETATM   33  N1  UNL     1       3.961   1.949  -0.690  1.00  0.00    -0.356 N 
ATOM     34  H1  UNL     1       3.374   2.779  -0.774  1.00  0.00     0.162 HD
BRANCH  33  35
HETATM   35  C22 UNL     1       5.364   2.121  -0.426  1.00  0.00     0.087 C 
HETATM   36  C23 UNL     1       5.560   2.791   0.938  1.00  0.00     0.052 C 
HETATM   37  C24 UNL     1       5.926   4.247   0.791  1.00  0.00     0.234 C 
HETATM   38  N2  UNL     1       7.162   4.395   0.070  1.00  0.00    -0.075 N 
HETATM   39  C25 UNL     1       7.411   3.365  -0.898  1.00  0.00     0.234 C 
ATOM     40  H22 UNL     1       7.210   5.315  -0.369  1.00  0.00     0.277 HD
ATOM     41  H21 UNL     1       7.945   4.470   0.719  1.00  0.00     0.277 HD
HETATM   42  C26 UNL     1       6.086   2.898  -1.498  1.00  0.00     0.052 C 
ENDBRANCH  33  35
ENDBRANCH  30  31
ENDBRANCH  19  30
BRANCH  21  43
HETATM   43  C29 UNL     1       1.422  -3.615   0.312  1.00  0.00     0.277 C 
BRANCH  43  44
HETATM   44  N3  UNL     1       2.847  -3.865   0.261  1.00  0.00     0.090 N 
HETATM   45  C30 UNL     1       3.071  -5.001  -0.597  1.00  0.00     0.282 C 
HETATM   46  C31 UNL     1       4.006  -6.036  -0.076  1.00  0.00     0.104 C 
HETATM   47  S1  UNL     1       3.312  -6.637   1.516  1.00  0.00    -0.166 SA
HETATM   48  C32 UNL     1       2.901  -5.086   2.414  1.00  0.00     0.104 C 
HETATM   49  C33 UNL     1       3.473  -3.989   1.546  1.00  0.00     0.282 C 
ENDBRANCH  43  44
ENDBRANCH  21  43
ENDBRANCH   3   4
TORSDOF 9
