REMARK  7 active torsions:
REMARK  status: ('A' for Active; 'I' for Inactive)
REMARK    1  A    between atoms: C2_2  and  C3_3 
REMARK    2  A    between atoms: C8_11  and  N2_12 
REMARK    3  A    between atoms: C10_17  and  C11_18 
REMARK    4  A    between atoms: C11_18  and  C12_19 
REMARK    5  A    between atoms: C12_19  and  C13_20 
REMARK    6  A    between atoms: C13_20  and  N3_21 
REMARK    7  A    between atoms: N3_21  and  C14_23 
ROOT
HETATM    1  C3  UNL     1      -1.738  -1.611  -0.666  1.00  0.00     0.021 A 
HETATM    2  N1  UNL     1      -3.040  -1.380  -0.997  1.00  0.00    -0.326 N 
ATOM      3  H1  UNL     1      -3.491  -2.008  -1.663  1.00  0.00     0.169 HD
HETATM    4  C4  UNL     1      -3.761  -0.361  -0.486  1.00  0.00     0.259 A 
HETATM    5  O1  UNL     1      -4.966  -0.175  -0.815  1.00  0.00    -0.267 OA
HETATM    6  C5  UNL     1      -3.128   0.476   0.415  1.00  0.00     0.077 A 
HETATM    7  C6  UNL     1      -3.555   1.605   1.125  1.00  0.00     0.014 A 
HETATM    8  C7  UNL     1      -4.901   2.207   1.075  1.00  0.00     0.054 C 
HETATM    9  C8  UNL     1      -2.453   1.992   1.859  1.00  0.00     0.222 A 
HETATM   10  O4  UNL     1      -1.435   1.164   1.614  1.00  0.00    -0.287 OA
HETATM   11  C9  UNL     1      -1.813   0.249   0.753  1.00  0.00     0.102 A 
HETATM   12  C10 UNL     1      -1.066  -0.811   0.220  1.00  0.00    -0.000 A 
ENDROOT
BRANCH  12  13
HETATM   13  C11 UNL     1       0.332  -0.997   0.609  1.00  0.00     0.045 C 
BRANCH  13  14
HETATM   14  C12 UNL     1       1.367  -0.496  -0.331  1.00  0.00     0.024 C 
BRANCH  14  15
HETATM   15  C13 UNL     1       2.717  -0.846   0.312  1.00  0.00     0.114 C 
BRANCH  15  16
HETATM   16  N3  UNL     1       3.846  -0.441  -0.446  1.00  0.00    -0.418 N 
ATOM     17  H3  UNL     1       4.459  -1.114  -0.905  1.00  0.00     0.153 HD
BRANCH  16  18
HETATM   18  C14 UNL     1       4.073   0.979  -0.528  1.00  0.00     0.068 C 
HETATM   19  C15 UNL     1       4.346   1.573   0.839  1.00  0.00     0.031 C 
HETATM   20  C16 UNL     1       5.344   1.136  -1.377  1.00  0.00     0.031 C 
ENDBRANCH  16  18
ENDBRANCH  15  16
ENDBRANCH  14  15
ENDBRANCH  13  14
ENDBRANCH  12  13
BRANCH   1  21
HETATM   21  C2  UNL     1      -0.999  -2.763  -1.263  1.00  0.00     0.053 C 
HETATM   22  C1  UNL     1      -1.912  -3.723  -2.001  1.00  0.00     0.011 C 
ENDBRANCH   1  21
BRANCH   9  23
HETATM   23  N2  UNL     1      -2.416   3.110   2.743  1.00  0.00    -0.090 N 
HETATM   24  O2  UNL     1      -1.366   3.360   3.374  1.00  0.00    -0.530 OA
HETATM   25  O3  UNL     1      -3.471   3.953   2.963  1.00  0.00    -0.530 OA
ENDBRANCH   9  23
TORSDOF 7
