REMARK  10 active torsions:
REMARK  status: ('A' for Active; 'I' for Inactive)
REMARK    1  A    between atoms: C3_3  and  C4_4 
REMARK    2  A    between atoms: C4_4  and  O1_5 
REMARK    3  A    between atoms: C4_4  and  S1_7 
REMARK    4  A    between atoms: S1_7  and  C5_8 
REMARK    5  A    between atoms: S1_7  and  C8_12 
REMARK    6  A    between atoms: C5_8  and  C6_9 
REMARK    7  A    between atoms: C6_9  and  C7_10 
REMARK    8  A    between atoms: C8_12  and  C9_13 
REMARK    9  A    between atoms: C14_19  and  O4_20 
REMARK   10  A    between atoms: C15_22  and  O5_23 
ROOT
HETATM    1  C4  UNL     1       1.760   0.684   0.493  1.00  0.00     0.228 C 
ENDROOT
BRANCH   1   2
HETATM    2  C3  UNL     1       2.246  -0.669   0.129  1.00  0.00     0.102 A 
HETATM    3  C2  UNL     1       3.599  -1.055   0.243  1.00  0.00     0.009 A 
HETATM    4  C1  UNL     1       4.696  -0.184   0.731  1.00  0.00     0.054 C 
HETATM    5  C15 UNL     1       3.725  -2.359  -0.171  1.00  0.00     0.133 A 
HETATM    6  C14 UNL     1       2.447  -2.734  -0.526  1.00  0.00     0.218 A 
HETATM    7  O3  UNL     1       1.641  -1.723  -0.332  1.00  0.00    -0.286 OA
BRANCH   5   8
HETATM    8  O5  UNL     1       4.883  -3.125  -0.219  1.00  0.00    -0.356 OA
ATOM      9  H5  UNL     1       4.970  -4.027  -0.505  1.00  0.00     0.218 HD
ENDBRANCH   5   8
BRANCH   6  10
HETATM   10  O4  UNL     1       2.072  -3.985  -1.012  1.00  0.00    -0.339 OA
ATOM     11  H4  UNL     1       2.658  -4.720  -1.153  1.00  0.00     0.220 HD
ENDBRANCH   6  10
ENDBRANCH   1   2
BRANCH   1  12
HETATM   12  O1  UNL     1       2.624   1.628  -0.035  1.00  0.00    -0.379 OA
ATOM     13  H1  UNL     1       2.313   2.495   0.198  1.00  0.00     0.211 HD
ENDBRANCH   1  12
BRANCH   1  14
HETATM   14  S1  UNL     1       0.098   0.888   0.156  1.00  0.00    -0.184 SA
BRANCH  14  15
HETATM   15  C5  UNL     1      -0.594   2.453   0.533  1.00  0.00     0.073 C 
BRANCH  15  16
HETATM   16  C6  UNL     1       0.073   3.551  -0.224  1.00  0.00     0.079 C 
BRANCH  16  17
HETATM   17  C7  UNL     1      -0.553   4.878   0.125  1.00  0.00     0.231 C 
HETATM   18  O2  UNL     1      -0.142   5.883  -0.391  1.00  0.00    -0.307 OA
ENDBRANCH  16  17
ENDBRANCH  15  16
ENDBRANCH  14  15
BRANCH  14  19
HETATM   19  C8  UNL     1      -0.944  -0.450   0.592  1.00  0.00     0.070 C 
BRANCH  19  20
HETATM   20  C9  UNL     1      -2.403  -0.193   0.272  1.00  0.00    -0.006 C 
HETATM   21  C10 UNL     1      -3.160  -1.451   0.715  1.00  0.00     0.005 C 
HETATM   22  C11 UNL     1      -4.418  -1.463  -0.094  1.00  0.00     0.000 C 
HETATM   23  C12 UNL     1      -4.069  -0.786  -1.387  1.00  0.00     0.000 C 
HETATM   24  C13 UNL     1      -2.667  -0.222  -1.222  1.00  0.00     0.005 C 
ENDBRANCH  19  20
ENDBRANCH  14  19
ENDBRANCH   1  14
TORSDOF 10
