REMARK  3 active torsions:
REMARK  status: ('A' for Active; 'I' for Inactive)
REMARK    1  A    between atoms: O1_2  and  C2_3 
REMARK    2  A    between atoms: C6_7  and  N1_8 
REMARK    3  A    between atoms: N1_8  and  O2_9 
ROOT
HETATM    1  C2  UNL     1      -1.440  -0.266  -0.234  1.00  0.00     0.120 C 
HETATM    2  C3  UNL     1      -0.694  -1.140   0.715  1.00  0.00     0.032 C 
HETATM    3  C4  UNL     1       0.661  -1.559   0.243  1.00  0.00     0.004 C 
HETATM    4  C5  UNL     1       1.697  -0.586   0.814  1.00  0.00     0.024 C 
HETATM    5  C6  UNL     1       1.750   0.568  -0.175  1.00  0.00     0.106 C 
HETATM    6  C7  UNL     1       0.478   1.343  -0.009  1.00  0.00     0.026 C 
HETATM    7  C8  UNL     1      -0.624   0.814  -0.866  1.00  0.00     0.034 C 
ENDROOT
BRANCH   5   8
HETATM    8  N1  UNL     1       2.928   1.351   0.127  1.00  0.00    -0.099 NA
BRANCH   8   9
HETATM    9  O2  UNL     1       4.019   0.562   0.001  1.00  0.00    -0.296 OA
ATOM     10  H2  UNL     1       4.793   1.076   0.199  1.00  0.00     0.238 HD
ENDBRANCH   8   9
ENDBRANCH   5   8
BRANCH   1  11
HETATM   11  O1  UNL     1      -2.494   0.327   0.453  1.00  0.00    -0.391 OA
HETATM   12  C1  UNL     1      -3.726  -0.048  -0.094  1.00  0.00     0.202 C 
ENDBRANCH   1  11
TORSDOF 3
