REMARK  15 active torsions:
REMARK  status: ('A' for Active; 'I' for Inactive)
REMARK    1  A    between atoms: N1_1  and  C1_4 
REMARK    2  A    between atoms: C3_9  and  N4_10 
REMARK    3  A    between atoms: C4_15  and  O1_16 
REMARK    4  A    between atoms: C4_15  and  C5_18 
REMARK    5  A    between atoms: C5_18  and  O2_19 
REMARK    6  A    between atoms: C5_18  and  N6_21 
REMARK    7  A    between atoms: N6_21  and  N7_22 
REMARK    8  A    between atoms: N10_30  and  C7_31 
REMARK    9  A    between atoms: C7_31  and  C8_32 
REMARK   10  A    between atoms: C8_32  and  O3_33 
REMARK   11  A    between atoms: C8_32  and  C9_35 
REMARK   12  A    between atoms: C9_35  and  O4_36 
REMARK   13  A    between atoms: O4_36  and  C10_37 
REMARK   14  A    between atoms: C13_40  and  C14_41 
REMARK   15  A    between atoms: C14_41  and  C15_42 
ROOT
HETATM    1  C1  UNL     1      -6.150  -2.162  -1.413  1.00  0.00     0.705 A 
HETATM    2  N2  UNL     1      -4.939  -1.903  -1.925  1.00  0.00    -0.021 N 
ATOM      3  H2  UNL     1      -4.606  -2.417  -2.740  1.00  0.00     0.203 HD
HETATM    4  C2  UNL     1      -4.155  -0.947  -1.348  1.00  0.00     0.718 A 
HETATM    5  N3  UNL     1      -4.584  -0.252  -0.252  1.00  0.00     0.031 N 
HETATM    6  C3  UNL     1      -5.803  -0.513   0.254  1.00  0.00     0.710 A 
HETATM    7  N5  UNL     1      -6.571  -1.473  -0.340  1.00  0.00    -0.022 N 
ATOM      8  H5  UNL     1      -7.495  -1.673   0.044  1.00  0.00     0.203 HD
HETATM    9  C4  UNL     1      -3.731   0.679   0.398  1.00  0.00     0.264 C 
HETATM   10  C6  UNL     1      -2.583   1.126  -0.508  1.00  0.00     0.134 A 
HETATM   11  N8  UNL     1      -1.721   2.147  -0.367  1.00  0.00    -0.282 N 
ATOM     12  H8  UNL     1      -1.751   2.860   0.362  1.00  0.00     0.188 HD
HETATM   13  N9  UNL     1      -0.812   2.065  -1.355  1.00  0.00    -0.238 N 
ATOM     14  H9  UNL     1      -0.039   2.717  -1.486  1.00  0.00     0.208 HD
HETATM   15  N10 UNL     1      -1.056   1.030  -2.129  1.00  0.00    -0.257 N 
HETATM   16  C17 UNL     1      -2.171   0.435  -1.603  1.00  0.00     0.168 A 
HETATM   17  N16 UNL     1      -2.955  -0.633  -2.048  1.00  0.00    -0.172 N 
ATOM     18  H16 UNL     1      -2.672  -1.179  -2.862  1.00  0.00     0.186 HD
ENDROOT
BRANCH  15  19
HETATM   19  C7  UNL     1      -0.363   0.538  -3.301  1.00  0.00     0.186 C 
BRANCH  19  20
HETATM   20  C8  UNL     1       0.717  -0.456  -2.949  1.00  0.00     0.162 C 
BRANCH  20  21
HETATM   21  O3  UNL     1       0.240  -1.564  -2.297  1.00  0.00    -0.392 OA
ATOM     22  H3  UNL     1       0.920  -2.190  -2.075  1.00  0.00     0.210 HD
ENDBRANCH  20  21
BRANCH  20  23
HETATM   23  C9  UNL     1       1.788   0.270  -2.132  1.00  0.00     0.210 C 
BRANCH  23  24
HETATM   24  O4  UNL     1       2.880  -0.633  -1.900  1.00  0.00    -0.333 OA
BRANCH  24  25
HETATM   25  C10 UNL     1       3.964  -0.169  -1.171  1.00  0.00     0.141 A 
HETATM   26  C11 UNL     1       5.021  -1.012  -0.936  1.00  0.00     0.056 A 
HETATM   27  C12 UNL     1       6.137  -0.612  -0.214  1.00  0.00     0.013 A 
HETATM   28  C13 UNL     1       6.151   0.672   0.263  1.00  0.00    -0.035 A 
HETATM   29  C16 UNL     1       5.102   1.518   0.033  1.00  0.00     0.097 A 
HETATM   30  N15 UNL     1       4.030   1.076  -0.682  1.00  0.00    -0.346 N 
ATOM     31  H15 UNL     1       3.252   1.714  -0.850  1.00  0.00     0.167 HD
BRANCH  28  32
HETATM   32  C14 UNL     1       7.319   1.140   1.037  1.00  0.00     0.118 C 
BRANCH  32  33
HETATM   33  C15 UNL     1       7.056   0.842   2.464  1.00  0.00     0.111 A 
HETATM   34  N11 UNL     1       6.454   1.640   3.344  1.00  0.00    -0.274 N 
HETATM   35  N12 UNL     1       6.390   1.051   4.525  1.00  0.00    -0.007 NA
ATOM     36  H11 UNL     1       6.094   2.572   3.136  1.00  0.00     0.185 HD
HETATM   37  N13 UNL     1       6.960  -0.133   4.381  1.00  0.00    -0.007 NA
HETATM   38  N14 UNL     1       7.379  -0.286   3.118  1.00  0.00    -0.274 N 
ATOM     39  H14 UNL     1       7.852  -1.101   2.728  1.00  0.00     0.185 HD
ENDBRANCH  32  33
ENDBRANCH  28  32
ENDBRANCH  24  25
ENDBRANCH  23  24
ENDBRANCH  20  23
ENDBRANCH  19  20
ENDBRANCH  15  19
BRANCH   9  40
HETATM   40  O1  UNL     1      -4.417   1.788   0.839  1.00  0.00    -0.361 OA
ATOM     41  H1  UNL     1      -3.846   2.411   1.274  1.00  0.00     0.213 HD
ENDBRANCH   9  40
BRANCH   9  42
HETATM   42  C5  UNL     1      -2.980   0.096   1.610  1.00  0.00     0.294 C 
BRANCH  42  43
HETATM   43  O2  UNL     1      -2.113   1.142   2.008  1.00  0.00    -0.373 OA
ATOM     44  H2  UNL     1      -1.650   0.782   2.755  1.00  0.00     0.212 HD
ENDBRANCH  42  43
BRANCH  42  45
HETATM   45  N6  UNL     1      -3.762  -0.255   2.723  1.00  0.00    -0.111 NA
BRANCH  45  46
HETATM   46  N7  UNL     1      -3.010  -0.954   3.705  1.00  0.00    -0.346 N 
ATOM     47  H72 UNL     1      -2.018  -1.168   3.599  1.00  0.00     0.172 HD
ATOM     48  H71 UNL     1      -3.578  -1.209   4.513  1.00  0.00     0.172 HD
ENDBRANCH  45  46
ENDBRANCH  42  45
ENDBRANCH   9  42
BRANCH   6  49
HETATM   49  N4  UNL     1      -6.293   0.150   1.245  1.00  0.00    -0.233 N 
ATOM     50  H42 UNL     1      -5.719   0.867   1.689  1.00  0.00     0.174 HD
ATOM     51  H41 UNL     1      -7.217  -0.048   1.629  1.00  0.00     0.174 HD
ENDBRANCH   6  49
BRANCH   1  52
HETATM   52  N1  UNL     1      -6.946  -3.069  -1.923  1.00  0.00    -0.234 N 
ATOM     53  H12 UNL     1      -6.626  -3.592  -2.738  1.00  0.00     0.174 HD
ATOM     54  H11 UNL     1      -7.868  -3.266  -1.533  1.00  0.00     0.174 HD
ENDBRANCH   1  52
TORSDOF 15
