REMARK  13 active torsions:
REMARK  status: ('A' for Active; 'I' for Inactive)
REMARK    1  A    between atoms: C2_2  and  O1_3 
REMARK    2  A    between atoms: C6_10  and  C7_11 
REMARK    3  A    between atoms: C8_14  and  S1_15 
REMARK    4  A    between atoms: S1_15  and  C9_16 
REMARK    5  A    between atoms: C10_20  and  O5_21 
REMARK    6  A    between atoms: O5_21  and  C11_22 
REMARK    7  A    between atoms: C11_22  and  C12_26 
REMARK    8  A    between atoms: C12_26  and  C13_27 
REMARK    9  A    between atoms: C13_27  and  N6_28 
REMARK   10  A    between atoms: C17_32  and  C18_33 
REMARK   11  A    between atoms: C18_33  and  C19_34 
REMARK   12  A    between atoms: C19_34  and  O6_35 
REMARK   13  A    between atoms: C20_37  and  N7_38 
ROOT
HETATM    1  C9  UNL     1       1.231  -0.493  -2.062  1.00  0.00     0.209 C 
HETATM    2  N2  UNL     1       1.606   0.742  -2.659  1.00  0.00    -0.110 NA
HETATM    3  N3  UNL     1       0.648   1.142  -3.547  1.00  0.00    -0.036 NA
HETATM    4  N4  UNL     1      -0.387   0.234  -3.545  1.00  0.00    -0.095 NA
HETATM    5  C10 UNL     1      -0.235  -0.614  -2.388  1.00  0.00     0.271 C 
ENDROOT
BRANCH   1   6
HETATM    6  S1  UNL     1       1.592  -0.650  -0.331  1.00  0.00    -0.102 SA
BRANCH   6   7
HETATM    7  C8  UNL     1       3.329  -0.574  -0.007  1.00  0.00     0.046 C 
HETATM    8  C6  UNL     1       3.710  -0.766   1.313  1.00  0.00     0.125 C 
HETATM    9  N1  UNL     1       5.081  -0.688   1.515  1.00  0.00    -0.339 N 
HETATM   10  C2  UNL     1       5.772   0.354   0.780  1.00  0.00     0.159 C 
HETATM   11  C5  UNL     1       5.870  -1.670   2.163  1.00  0.00     0.152 C 
HETATM   12  C1  UNL     1       7.115   0.727   1.222  1.00  0.00     0.074 C 
HETATM   13  C3  UNL     1       5.796  -0.480  -0.571  1.00  0.00     0.212 C 
HETATM   14  O2  UNL     1       6.037  -1.792  -0.273  1.00  0.00    -0.377 OA
HETATM   15  C20 UNL     1       4.360  -0.363  -1.042  1.00  0.00     0.259 C 
HETATM   16  C4  UNL     1       6.687  -2.158   0.876  1.00  0.00     0.188 C 
BRANCH   8  17
HETATM   17  C7  UNL     1       2.785  -1.109   2.364  1.00  0.00     0.228 C 
HETATM   18  O3  UNL     1       3.200  -1.265   3.541  1.00  0.00    -0.643 OA
HETATM   19  O4  UNL     1       1.427  -1.285   2.152  1.00  0.00    -0.643 OA
ENDBRANCH   8  17
BRANCH  10  20
HETATM   20  O1  UNL     1       4.947   1.439   0.596  1.00  0.00    -0.368 OA
ATOM     21  H1  UNL     1       4.074   1.197   0.309  1.00  0.00     0.212 HD
ENDBRANCH  10  20
BRANCH  15  22
HETATM   22  N7  UNL     1       4.226  -1.308  -2.154  1.00  0.00    -0.068 N 
ATOM     23  H73 UNL     1       4.912  -1.165  -2.896  1.00  0.00     0.275 HD
ATOM     24  H72 UNL     1       4.501  -2.261  -1.915  1.00  0.00     0.275 HD
ATOM     25  H71 UNL     1       3.260  -1.229  -2.471  1.00  0.00     0.275 HD
ENDBRANCH  15  22
ENDBRANCH   6   7
ENDBRANCH   1   6
BRANCH   5  26
HETATM   26  O5  UNL     1      -1.147  -0.422  -1.396  1.00  0.00    -0.314 OA
BRANCH  26  27
HETATM   27  C11 UNL     1      -1.423   0.668  -0.616  1.00  0.00     0.115 C 
HETATM   28  N5  UNL     1      -0.615   1.666  -0.716  1.00  0.00    -0.383 N 
ATOM     29  H52 UNL     1       0.180   1.610  -1.353  1.00  0.00     0.157 HD
ATOM     30  H51 UNL     1      -0.821   2.478  -0.135  1.00  0.00     0.157 HD
BRANCH  27  31
HETATM   31  C12 UNL     1      -2.582   0.749   0.313  1.00  0.00     0.114 C 
BRANCH  31  32
HETATM   32  C13 UNL     1      -3.890   0.586  -0.431  1.00  0.00     0.281 C 
BRANCH  32  33
HETATM   33  N6  UNL     1      -5.048   0.678   0.446  1.00  0.00     0.093 N 
HETATM   34  C14 UNL     1      -5.227   1.989   0.967  1.00  0.00     0.273 C 
HETATM   35  C15 UNL     1      -6.636   2.457   0.716  1.00  0.00     0.032 C 
HETATM   36  C16 UNL     1      -7.326   1.279   0.113  1.00  0.00     0.037 C 
HETATM   37  C17 UNL     1      -6.216   0.374  -0.310  1.00  0.00     0.225 C 
BRANCH  37  38
HETATM   38  C18 UNL     1      -6.612  -1.086  -0.226  1.00  0.00     0.062 C 
BRANCH  38  39
HETATM   39  C19 UNL     1      -6.909  -1.534   1.171  1.00  0.00     0.166 C 
BRANCH  39  40
HETATM   40  O6  UNL     1      -5.800  -1.365   1.971  1.00  0.00    -0.401 OA
ATOM     41  H6  UNL     1      -5.988  -1.649   2.858  1.00  0.00     0.209 HD
ENDBRANCH  39  40
ENDBRANCH  38  39
ENDBRANCH  37  38
ENDBRANCH  32  33
ENDBRANCH  31  32
ENDBRANCH  27  31
ENDBRANCH  26  27
ENDBRANCH   5  26
TORSDOF 13
