REMARK  13 active torsions:
REMARK  status: ('A' for Active; 'I' for Inactive)
REMARK    1  A    between atoms: C3_3  and  C4_4 
REMARK       I    between atoms: C4_4  and  N1_6 
REMARK    2  A    between atoms: N1_6  and  C5_7 
REMARK    3  A    between atoms: C6_10  and  N3_11 
REMARK    4  A    between atoms: N3_11  and  C7_13 
REMARK    5  A    between atoms: C7_13  and  C8_14 
REMARK    6  A    between atoms: C8_14  and  N4_15 
REMARK    7  A    between atoms: N4_15  and  C9_17 
REMARK    8  A    between atoms: C9_17  and  C10_18 
REMARK    9  A    between atoms: C10_18  and  O2_19 
REMARK   10  A    between atoms: C12_25  and  N7_26 
REMARK   11  A    between atoms: C13_32  and  C14_33 
REMARK       I    between atoms: C14_33  and  N9_35 
REMARK   12  A    between atoms: N9_35  and  C15_37 
REMARK   13  A    between atoms: C16_43  and  N12_44 
ROOT
HETATM    1  C4  UNL     1       1.539   0.341  -0.258  1.00  0.00     0.345 C 
HETATM    2  O1  UNL     1       1.760   1.364   0.492  1.00  0.00    -0.249 OA
HETATM    3  N1  UNL     1       0.278   0.173  -0.644  1.00  0.00    -0.343 NA
ENDROOT
BRANCH   1   4
HETATM    4  C3  UNL     1       2.732  -0.504  -0.568  1.00  0.00     0.129 A 
HETATM    5  C2  UNL     1       3.980  -0.320  -0.081  1.00  0.00    -0.004 A 
HETATM    6  C1  UNL     1       4.261   0.626   1.078  1.00  0.00     0.052 C 
HETATM    7  C13 UNL     1       4.955  -1.159  -0.529  1.00  0.00     0.098 A 
HETATM    8  S1  UNL     1       4.067  -2.192  -1.602  1.00  0.00    -0.008 SA
HETATM    9  N8  UNL     1       2.556  -1.508  -1.434  1.00  0.00    -0.320 N 
ATOM     10  H8  UNL     1       1.689  -1.792  -1.891  1.00  0.00     0.174 HD
BRANCH   7  11
HETATM   11  C14 UNL     1       6.410  -1.279  -0.261  1.00  0.00     0.266 C 
HETATM   12  O5  UNL     1       7.078  -2.183  -0.717  1.00  0.00    -0.267 OA
HETATM   13  N9  UNL     1       7.073  -0.257   0.595  1.00  0.00    -0.304 N 
ATOM     14  H9  UNL     1       6.577   0.502   1.062  1.00  0.00     0.171 HD
BRANCH  13  15
HETATM   15  C15 UNL     1       8.523  -0.467   0.689  1.00  0.00     0.176 A 
HETATM   16  N10 UNL     1       9.282  -1.331   0.010  1.00  0.00    -0.222 N 
HETATM   17  O6  UNL     1      10.542  -1.131   0.335  1.00  0.00    -0.153 OA
ATOM     18  H10 UNL     1       8.942  -2.030  -0.651  1.00  0.00     0.198 HD
HETATM   19  N11 UNL     1      10.636  -0.157   1.210  1.00  0.00    -0.222 N 
HETATM   20  C16 UNL     1       9.393   0.268   1.444  1.00  0.00     0.167 A 
ATOM     21  H11 UNL     1      11.493   0.205   1.629  1.00  0.00     0.198 HD
BRANCH  20  22
HETATM   22  N12 UNL     1       9.042   1.216   2.269  1.00  0.00    -0.381 N 
ATOM     23 2H12 UNL     1       8.092   1.541   2.448  1.00  0.00     0.157 HD
ATOM     24 1H12 UNL     1       9.691   1.765   2.833  1.00  0.00     0.157 HD
ENDBRANCH  20  22
ENDBRANCH  13  15
ENDBRANCH   7  11
ENDBRANCH   1   4
BRANCH   3  25
HETATM   25  C5  UNL     1      -0.823   0.028  -0.983  1.00  0.00     0.234 A 
HETATM   26  N2  UNL     1      -1.713  -0.644  -0.202  1.00  0.00    -0.162 N 
HETATM   27  C6  UNL     1      -2.989  -0.852  -0.427  1.00  0.00     0.681 A 
ATOM     28  H2  UNL     1      -1.342  -1.034   0.665  1.00  0.00     0.187 HD
HETATM   29  N5  UNL     1      -3.538  -0.373  -1.537  1.00  0.00    -0.176 N 
HETATM   30  C11 UNL     1      -2.746   0.327  -2.415  1.00  0.00     0.169 A 
ATOM     31  H5  UNL     1      -4.528  -0.522  -1.734  1.00  0.00     0.185 HD
HETATM   32  N6  UNL     1      -3.327   0.793  -3.618  1.00  0.00    -0.079 NA
HETATM   33  C12 UNL     1      -1.409   0.539  -2.160  1.00  0.00     0.203 A 
BRANCH  27  34
HETATM   34  N3  UNL     1      -3.714  -1.507   0.431  1.00  0.00    -0.224 N 
ATOM     35  H3  UNL     1      -3.247  -1.845   1.272  1.00  0.00     0.177 HD
BRANCH  34  36
HETATM   36  C7  UNL     1      -5.102  -1.794   0.300  1.00  0.00     0.157 C 
BRANCH  36  37
HETATM   37  C8  UNL     1      -6.034  -0.980   1.176  1.00  0.00     0.134 C 
BRANCH  37  38
HETATM   38  N4  UNL     1      -5.892   0.413   0.910  1.00  0.00    -0.418 N 
ATOM     39  H4  UNL     1      -5.217   0.772   0.235  1.00  0.00     0.153 HD
BRANCH  38  40
HETATM   40  C9  UNL     1      -6.759   1.272   1.652  1.00  0.00     0.139 C 
BRANCH  40  41
HETATM   41  C10 UNL     1      -8.200   1.264   1.293  1.00  0.00     0.183 C 
BRANCH  41  42
HETATM   42  O2  UNL     1      -8.880   0.087   1.400  1.00  0.00    -0.399 OA
ATOM     43  H2  UNL     1      -9.802   0.082   1.170  1.00  0.00     0.209 HD
ENDBRANCH  41  42
ENDBRANCH  40  41
ENDBRANCH  38  40
ENDBRANCH  37  38
ENDBRANCH  36  37
ENDBRANCH  34  36
ENDBRANCH  27  34
BRANCH  33  44
HETATM   44  N7  UNL     1      -0.607   1.297  -3.047  1.00  0.00    -0.107 N 
HETATM   45  O3  UNL     1       0.106   0.687  -3.862  1.00  0.00    -0.531 OA
HETATM   46  O4  UNL     1      -0.606   2.699  -3.054  1.00  0.00    -0.531 OA
ENDBRANCH  33  44
ENDBRANCH   3  25
TORSDOF 13
