REMARK  13 active torsions:
REMARK  status: ('A' for Active; 'I' for Inactive)
REMARK    1  A    between atoms: O1_2  and  C2_3 
REMARK    2  A    between atoms: C2_3  and  C3_4 
REMARK    3  A    between atoms: C5_6  and  C6_7 
REMARK    4  A    between atoms: C6_7  and  O2_8 
REMARK    5  A    between atoms: C6_7  and  O3_10 
REMARK    6  A    between atoms: C8_13  and  C9_14 
REMARK    7  A    between atoms: C9_14  and  O4_15 
REMARK    8  A    between atoms: C9_14  and  N1_17 
REMARK    9  A    between atoms: N1_17  and  N2_19 
REMARK   10  A    between atoms: N2_19  and  C10_21 
REMARK   11  A    between atoms: C11_22  and  N3_23 
REMARK   12  A    between atoms: N3_23  and  N4_25 
REMARK       I    between atoms: N4_25  and  C12_27 
REMARK   13  A    between atoms: C16_34  and  O8_35 
ROOT
HETATM    1  C9  UNL     1       0.314  -1.661   1.104  1.00  0.00     0.170 C 
ENDROOT
BRANCH   1   2
HETATM    2  C8  UNL     1      -0.887  -1.131   0.511  1.00  0.00     0.075 C 
HETATM    3  C7  UNL     1      -1.570  -1.991  -0.496  1.00  0.00     0.033 C 
HETATM    4  C5  UNL     1      -2.514  -1.734  -1.377  1.00  0.00    -0.001 C 
HETATM    5  C4  UNL     1      -3.163  -0.441  -1.586  1.00  0.00     0.047 C 
HETATM    6  C3  UNL     1      -3.145   0.644  -0.797  1.00  0.00     0.080 C 
HETATM    7  O9  UNL     1      -2.478   0.732   0.408  1.00  0.00    -0.289 OA
HETATM    8  C16 UNL     1      -1.316   0.050   0.877  1.00  0.00     0.200 C 
BRANCH   4   9
HETATM    9  C6  UNL     1      -2.968  -2.867  -2.247  1.00  0.00     0.288 C 
BRANCH   9  10
HETATM   10  O2  UNL     1      -2.239  -4.002  -1.894  1.00  0.00    -0.367 OA
ATOM     11  H2  UNL     1      -2.527  -4.720  -2.445  1.00  0.00     0.213 HD
ENDBRANCH   9  10
BRANCH   9  12
HETATM   12  O3  UNL     1      -4.324  -3.016  -2.102  1.00  0.00    -0.367 OA
ATOM     13  H3  UNL     1      -4.612  -3.734  -2.653  1.00  0.00     0.213 HD
ENDBRANCH   9  12
ENDBRANCH   4   9
BRANCH   6  14
HETATM   14  C2  UNL     1      -3.896   1.841  -1.246  1.00  0.00     0.232 C 
BRANCH  14  15
HETATM   15  O1  UNL     1      -4.860   2.124  -0.280  1.00  0.00    -0.390 OA
HETATM   16  C1  UNL     1      -5.607   3.253  -0.645  1.00  0.00     0.201 C 
ENDBRANCH  14  15
ENDBRANCH   6  14
BRANCH   8  17
HETATM   17  O8  UNL     1      -0.599   0.756   1.821  1.00  0.00    -0.335 OA
HETATM   18  C17 UNL     1      -1.190   1.795   2.568  1.00  0.00     0.212 C 
ENDBRANCH   8  17
ENDBRANCH   1   2
BRANCH   1  19
HETATM   19  O4  UNL     1       0.626  -2.855   0.656  1.00  0.00    -0.344 OA
ATOM     20  H4  UNL     1       1.418  -3.205   1.047  1.00  0.00     0.219 HD
ENDBRANCH   1  19
BRANCH   1  21
HETATM   21  N1  UNL     1       1.195  -1.169   2.042  1.00  0.00    -0.279 N 
ATOM     22  H1  UNL     1       1.054  -0.249   2.460  1.00  0.00     0.189 HD
BRANCH  21  23
HETATM   23  N2  UNL     1       2.315  -1.981   2.416  1.00  0.00    -0.293 N 
ATOM     24  H2  UNL     1       2.224  -2.693   3.141  1.00  0.00     0.187 HD
BRANCH  23  25
HETATM   25  C10 UNL     1       3.548  -1.774   1.758  1.00  0.00     0.135 A 
HETATM   26  C11 UNL     1       3.995  -0.929   0.771  1.00  0.00     0.135 A 
HETATM   27  C14 UNL     1       5.262  -1.519   0.868  1.00  0.00     0.254 A 
HETATM   28  O6  UNL     1       6.330  -1.282   0.238  1.00  0.00    -0.281 OA
HETATM   29  C15 UNL     1       4.810  -2.356   1.850  1.00  0.00     0.254 A 
HETATM   30  O7  UNL     1       5.337  -3.266   2.535  1.00  0.00    -0.281 OA
BRANCH  26  31
HETATM   31  N3  UNL     1       3.430   0.109  -0.017  1.00  0.00    -0.292 N 
ATOM     32  H3  UNL     1       2.457   0.385   0.116  1.00  0.00     0.187 HD
BRANCH  31  33
HETATM   33  N4  UNL     1       4.217   0.746  -0.973  1.00  0.00    -0.270 N 
HETATM   34  C12 UNL     1       4.905   1.948  -0.677  1.00  0.00     0.232 C 
HETATM   35  C13 UNL     1       5.727   2.583  -1.730  1.00  0.00     0.119 C 
HETATM   36  O5  UNL     1       4.786   2.437   0.495  1.00  0.00    -0.272 OA
ATOM     37  H4  UNL     1       4.300   0.339  -1.905  1.00  0.00     0.190 HD
ENDBRANCH  31  33
ENDBRANCH  26  31
ENDBRANCH  23  25
ENDBRANCH  21  23
ENDBRANCH   1  21
TORSDOF 13
