REMARK  2 active torsions:
REMARK  status: ('A' for Active; 'I' for Inactive)
REMARK    1  A    between atoms: O1_1  and  C1_3 
REMARK    2  A    between atoms: C1_3  and  C2_4 
ROOT
HETATM    1  C2  UNL     1       0.456  -0.472  -0.340  1.00  0.00     0.294 C 
HETATM    2  N1  UNL     1      -0.283  -0.228  -1.541  1.00  0.00     0.009 N 
ATOM      3  H11 UNL     1      -0.431  -1.072  -2.094  1.00  0.00     0.285 HD
ATOM      4  H12 UNL     1       0.250   0.296  -2.235  1.00  0.00     0.285 HD
HETATM    5  C3  UNL     1      -1.523   0.427  -1.169  1.00  0.00     0.478 C 
HETATM    6  F1  UNL     1      -1.369   1.795  -1.250  1.00  0.00    -0.169 F 
HETATM    7  F2  UNL     1      -2.595  -0.020  -1.913  1.00  0.00    -0.169 F 
HETATM    8  C4  UNL     1      -1.716  -0.024   0.279  1.00  0.00     0.401 C 
HETATM    9  F3  UNL     1      -1.893  -1.379   0.252  1.00  0.00    -0.190 F 
HETATM   10  F4  UNL     1      -2.645   0.677   0.944  1.00  0.00    -0.190 F 
HETATM   11  C5  UNL     1      -0.288   0.231   0.779  1.00  0.00     0.346 C 
HETATM   12  F5  UNL     1      -0.002   1.572   0.782  1.00  0.00    -0.197 F 
HETATM   13  F6  UNL     1      -0.062  -0.344   1.993  1.00  0.00    -0.197 F 
ENDROOT
BRANCH   1  14
HETATM   14  C1  UNL     1       1.892  -0.027  -0.431  1.00  0.00     0.203 C 
BRANCH  14  15
HETATM   15  O1  UNL     1       2.528  -0.302   0.775  1.00  0.00    -0.399 OA
ATOM     16  H1  UNL     1       3.434  -0.021   0.718  1.00  0.00     0.209 HD
ENDBRANCH  14  15
ENDBRANCH   1  14
TORSDOF 2
