REMARK  3 active torsions:
REMARK  status: ('A' for Active; 'I' for Inactive)
REMARK    1  A    between atoms: C3_4  and  N2_5 
REMARK       I    between atoms: N2_5  and  C4_7 
REMARK       I    between atoms: C4_7  and  N3_9 
REMARK    2  A    between atoms: C8_13  and  C9_14 
REMARK       I    between atoms: C9_14  and  N4_16 
REMARK    3  A    between atoms: N4_16  and  C10_18 
ROOT
HETATM    1  N2  UNL     1       2.902  -0.373   0.630  1.00  0.00    -0.306 N 
ATOM      2  H2  UNL     1       2.737  -1.012   1.407  1.00  0.00     0.171 HD
HETATM    3  C4  UNL     1       2.098  -0.564  -0.510  1.00  0.00     0.323 C 
HETATM    4  O1  UNL     1       2.280   0.218  -1.499  1.00  0.00    -0.247 OA
HETATM    5  N3  UNL     1       1.103  -1.586  -0.592  1.00  0.00    -0.320 N 
HETATM    6  C5  UNL     1       0.799  -2.524   0.439  1.00  0.00     0.129 C 
HETATM    7  C6  UNL     1       0.169  -3.679  -0.273  1.00  0.00     0.022 C 
HETATM    8  C7  UNL     1       0.152  -3.334  -1.741  1.00  0.00     0.037 C 
HETATM    9  C8  UNL     1       0.262  -1.827  -1.716  1.00  0.00     0.181 C 
ENDROOT
BRANCH   9  10
HETATM   10  C9  UNL     1      -1.110  -1.259  -1.590  1.00  0.00     0.241 C 
HETATM   11  O2  UNL     1      -1.986  -1.544  -2.477  1.00  0.00    -0.271 OA
HETATM   12  N4  UNL     1      -1.537  -0.406  -0.540  1.00  0.00    -0.355 N 
ATOM     13  H4  UNL     1      -0.870  -0.151   0.188  1.00  0.00     0.162 HD
BRANCH  12  14
HETATM   14  C10 UNL     1      -2.894   0.119  -0.464  1.00  0.00     0.084 C 
HETATM   15  C11 UNL     1      -2.869   1.597  -0.606  1.00  0.00     0.025 C 
HETATM   16  C12 UNL     1      -3.697   2.361   0.363  1.00  0.00     0.002 C 
HETATM   17  C13 UNL     1      -5.050   1.637   0.440  1.00  0.00     0.000 C 
HETATM   18  C14 UNL     1      -4.765   0.381   1.210  1.00  0.00     0.002 C 
HETATM   19  C15 UNL     1      -3.609  -0.403   0.740  1.00  0.00     0.025 C 
ENDBRANCH  12  14
ENDBRANCH   9  10
BRANCH   1  20
HETATM   20  C3  UNL     1       3.903   0.590   0.826  1.00  0.00     0.070 A 
HETATM   21  C2  UNL     1       4.366   1.581  -0.005  1.00  0.00     0.140 A 
HETATM   22  N1  UNL     1       5.333   2.242   0.638  1.00  0.00    -0.306 N 
HETATM   23  C1  UNL     1       6.073   3.379   0.064  1.00  0.00     0.177 C 
HETATM   24  N5  UNL     1       5.491   1.707   1.825  1.00  0.00    -0.308 N 
HETATM   25  C16 UNL     1       4.644   0.691   1.999  1.00  0.00     0.138 A 
ATOM     26  H5  UNL     1       6.168   2.024   2.519  1.00  0.00     0.186 HD
ENDBRANCH   1  20
TORSDOF 3
