REMARK  5 active torsions:
REMARK  status: ('A' for Active; 'I' for Inactive)
REMARK    1  A    between atoms: C2_2  and  C3_3 
REMARK    2  A    between atoms: C2_2  and  N2_16 
REMARK    3  A    between atoms: C17_19  and  N3_20 
REMARK    4  A    between atoms: C17_19  and  C18_24 
REMARK    5  A    between atoms: C18_24  and  O1_25 
ROOT
HETATM    1  C1  UNL     1      -2.079  -2.430   0.195  1.00  0.00     0.043 C 
HETATM    2  C2  UNL     1      -1.553  -1.114  -0.256  1.00  0.00     0.223 C 
ENDROOT
BRANCH   2   3
HETATM    3  C3  UNL     1      -0.289  -0.669   0.392  1.00  0.00     0.018 C 
HETATM    4  C4  UNL     1       0.097   0.675  -0.180  1.00  0.00     0.007 C 
HETATM    5  C5  UNL     1       1.271   0.570  -1.127  1.00  0.00     0.012 C 
HETATM    6  C6  UNL     1       2.476  -0.058  -0.464  1.00  0.00    -0.008 C 
HETATM    7  C7  UNL     1       2.092  -0.913   0.713  1.00  0.00     0.012 C 
HETATM    8  C9  UNL     1       3.126  -0.988  -1.488  1.00  0.00     0.042 C 
HETATM    9  C14 UNL     1       3.488   0.996  -0.155  1.00  0.00     0.231 C 
HETATM   10  C8  UNL     1       0.831  -1.677   0.290  1.00  0.00     0.007 C 
HETATM   11  C10 UNL     1       4.586  -0.606  -1.357  1.00  0.00     0.273 C 
HETATM   12  N1  UNL     1       4.522   0.844  -1.154  1.00  0.00     0.093 N 
HETATM   13  C11 UNL     1       5.765   1.258  -0.574  1.00  0.00     0.273 C 
HETATM   14  C12 UNL     1       5.521   1.517   0.892  1.00  0.00     0.032 C 
HETATM   15  C13 UNL     1       4.185   0.829   1.154  1.00  0.00     0.038 C 
ENDBRANCH   2   3
BRANCH   2  16
HETATM   16  N2  UNL     1      -2.502  -0.034  -0.130  1.00  0.00     0.095 N 
HETATM   17  C15 UNL     1      -2.910   0.233   1.213  1.00  0.00     0.275 C 
HETATM   18  C16 UNL     1      -4.420   0.151   1.206  1.00  0.00     0.073 C 
HETATM   19  C17 UNL     1      -4.709   0.615  -0.224  1.00  0.00     0.172 C 
HETATM   20  C19 UNL     1      -3.623  -0.111  -0.988  1.00  0.00     0.313 C 
BRANCH  19  21
HETATM   21  N3  UNL     1      -4.622   2.042  -0.328  1.00  0.00    -0.067 N 
ATOM     22  H33 UNL     1      -5.228   2.506   0.348  1.00  0.00     0.275 HD
ATOM     23  H32 UNL     1      -3.723   2.390   0.006  1.00  0.00     0.275 HD
ATOM     24  H31 UNL     1      -4.815   2.351  -1.281  1.00  0.00     0.275 HD
ENDBRANCH  19  21
BRANCH  19  25
HETATM   25  C18 UNL     1      -6.035   0.104  -0.722  1.00  0.00     0.204 C 
BRANCH  25  26
HETATM   26  O1  UNL     1      -6.160   0.475  -2.048  1.00  0.00    -0.398 OA
ATOM     27  H1  UNL     1      -6.997   0.153  -2.362  1.00  0.00     0.209 HD
ENDBRANCH  25  26
ENDBRANCH  19  25
ENDBRANCH   2  16
TORSDOF 5
