REMARK  6 active torsions:
REMARK  status: ('A' for Active; 'I' for Inactive)
REMARK    1  A    between atoms: N2_4  and  O1_5 
REMARK    2  A    between atoms: N2_4  and  C1_7 
REMARK    3  A    between atoms: C2_10  and  N4_11 
REMARK    4  A    between atoms: N4_11  and  C3_13 
REMARK    5  A    between atoms: C3_13  and  C4_14 
REMARK    6  A    between atoms: C4_14  and  N5_15 
ROOT
HETATM    1  C1  UNL     1      -2.540  -0.469   0.381  1.00  0.00     0.753 A 
HETATM    2  N3  UNL     1      -1.431  -0.541   1.160  1.00  0.00    -0.016 N 
ATOM      3  H3  UNL     1      -1.393  -0.886   2.119  1.00  0.00     0.203 HD
HETATM    4  C2  UNL     1      -0.383  -0.074   0.439  1.00  0.00     0.707 A 
HETATM    5  N6  UNL     1      -0.895   0.271  -0.770  1.00  0.00    -0.117 N 
ATOM      6  H6  UNL     1      -0.349   0.659  -1.539  1.00  0.00     0.206 HD
HETATM    7  N7  UNL     1      -2.184   0.040  -0.818  1.00  0.00    -0.114 N 
ATOM      8  H7  UNL     1      -2.802   0.212  -1.611  1.00  0.00     0.206 HD
ENDROOT
BRANCH   4   9
HETATM    9  N4  UNL     1       0.850   0.011   0.854  1.00  0.00    -0.223 N 
ATOM     10  H4  UNL     1       1.126  -0.281   1.792  1.00  0.00     0.177 HD
BRANCH   9  11
HETATM   11  C3  UNL     1       1.794   0.539  -0.086  1.00  0.00     0.165 C 
BRANCH  11  12
HETATM   12  C4  UNL     1       3.205   0.594   0.366  1.00  0.00     0.249 C 
BRANCH  12  13
HETATM   13  N5  UNL     1       3.801  -0.660   0.715  1.00  0.00    -0.078 N 
ATOM     14  H53 UNL     1       3.231  -1.131   1.417  1.00  0.00     0.274 HD
ATOM     15  H52 UNL     1       3.712  -1.314  -0.062  1.00  0.00     0.274 HD
ATOM     16  H51 UNL     1       4.772  -0.622   1.026  1.00  0.00     0.274 HD
ENDBRANCH  12  13
ENDBRANCH  11  12
ENDBRANCH   9  11
ENDBRANCH   4   9
BRANCH   1  17
HETATM   17  N2  UNL     1      -3.873  -0.844   0.706  1.00  0.00     0.011 N 
HETATM   18  N1  UNL     1      -4.723  -0.039   1.184  1.00  0.00    -0.304 N 
ATOM     19  H12 UNL     1      -5.679  -0.308   1.417  1.00  0.00     0.180 HD
ATOM     20  H11 UNL     1      -4.442   0.928   1.347  1.00  0.00     0.180 HD
BRANCH  17  21
HETATM   21  O1  UNL     1      -4.250  -2.139   0.487  1.00  0.00    -0.255 OA
ATOM     22  H1  UNL     1      -3.611  -2.744   0.128  1.00  0.00     0.247 HD
ENDBRANCH  17  21
ENDBRANCH   1  17
TORSDOF 6
