REMARK  11 active torsions:
REMARK  status: ('A' for Active; 'I' for Inactive)
REMARK    1  A    between atoms: C2_2  and  N1_3 
REMARK    2  A    between atoms: C4_10  and  O1_11 
REMARK    3  A    between atoms: C6_14  and  O2_15 
REMARK    4  A    between atoms: O2_15  and  C7_16 
REMARK    5  A    between atoms: C7_16  and  C8_17 
REMARK    6  A    between atoms: C8_17  and  S1_18 
REMARK    7  A    between atoms: S1_18  and  C9_19 
REMARK    8  A    between atoms: N4_25  and  N5_26 
REMARK    9  A    between atoms: C11_30  and  C12_31 
REMARK   10  A    between atoms: C12_31  and  O5_32 
REMARK   11  A    between atoms: C12_31  and  O6_34 
ROOT
HETATM    1  C1  UNL     1      -6.270  -0.916  -0.497  1.00  0.00     0.093 C 
HETATM    2  C2  UNL     1      -4.984  -0.737   0.238  1.00  0.00     0.284 C 
HETATM    3  N2  UNL     1      -4.027  -1.794   0.012  1.00  0.00    -0.326 N 
ATOM      4  H2  UNL     1      -4.228  -2.773  -0.190  1.00  0.00     0.165 HD
HETATM    5  C3  UNL     1      -2.732  -1.182   0.130  1.00  0.00     0.158 A 
HETATM    6  C4  UNL     1      -1.407  -1.476   0.351  1.00  0.00     0.127 A 
HETATM    7  C5  UNL     1      -0.705  -0.261   0.321  1.00  0.00     0.071 A 
HETATM    8  C6  UNL     1       0.612   0.090   0.475  1.00  0.00     0.125 A 
HETATM    9  S2  UNL     1       0.579   1.784   0.290  1.00  0.00    -0.062 SA
HETATM   10  C11 UNL     1      -1.095   2.000   0.023  1.00  0.00     0.069 A 
HETATM   11  C13 UNL     1      -1.583   0.721   0.088  1.00  0.00     0.089 A 
HETATM   12  N6  UNL     1      -2.823   0.149  -0.027  1.00  0.00    -0.235 N 
HETATM   13  N7  UNL     1      -4.199   0.398  -0.249  1.00  0.00    -0.070 NA
ENDROOT
BRANCH   8  14
HETATM   14  O2  UNL     1       1.746  -0.708   0.724  1.00  0.00    -0.342 OA
BRANCH  14  15
HETATM   15  C7  UNL     1       2.545  -1.128  -0.374  1.00  0.00     0.187 C 
BRANCH  15  16
HETATM   16  C8  UNL     1       3.703  -1.961   0.089  1.00  0.00     0.109 C 
BRANCH  16  17
HETATM   17  S1  UNL     1       4.790  -1.091   1.215  1.00  0.00    -0.088 SA
BRANCH  17  18
HETATM   18  C9  UNL     1       5.653   0.269   0.499  1.00  0.00     0.191 A 
HETATM   19  N3  UNL     1       5.275   1.563   0.413  1.00  0.00    -0.232 N 
HETATM   20  O3  UNL     1       6.199   2.246  -0.188  1.00  0.00    -0.177 OA
ATOM     21  H3  UNL     1       4.397   1.944   0.767  1.00  0.00     0.197 HD
HETATM   22  C10 UNL     1       7.193   1.448  -0.512  1.00  0.00     0.410 A 
HETATM   23  O4  UNL     1       8.250   1.780  -1.106  1.00  0.00    -0.234 OA
HETATM   24  N4  UNL     1       6.862   0.205  -0.087  1.00  0.00    -0.179 N 
BRANCH  24  25
HETATM   25  N5  UNL     1       7.713  -0.888  -0.276  1.00  0.00    -0.332 N 
ATOM     26  H52 UNL     1       7.464  -1.824   0.044  1.00  0.00     0.177 HD
ATOM     27  H51 UNL     1       8.630  -0.937  -0.720  1.00  0.00     0.177 HD
ENDBRANCH  24  25
ENDBRANCH  17  18
ENDBRANCH  16  17
ENDBRANCH  15  16
ENDBRANCH  14  15
ENDBRANCH   8  14
BRANCH   6  28
HETATM   28  O1  UNL     1      -0.889  -2.764   0.565  1.00  0.00    -0.356 OA
ATOM     29  H1  UNL     1       0.026  -2.967   0.718  1.00  0.00     0.218 HD
ENDBRANCH   6  28
BRANCH  10  30
HETATM   30  C12 UNL     1      -1.791   3.307  -0.226  1.00  0.00     0.297 C 
BRANCH  30  31
HETATM   31  O5  UNL     1      -2.682   3.237  -1.293  1.00  0.00    -0.367 OA
ATOM     32  H5  UNL     1      -3.122   4.064  -1.451  1.00  0.00     0.213 HD
ENDBRANCH  30  31
BRANCH  30  33
HETATM   33  O6  UNL     1      -2.434   3.723   0.934  1.00  0.00    -0.367 OA
ATOM     34  H6  UNL     1      -2.874   4.550   0.776  1.00  0.00     0.213 HD
ENDBRANCH  30  33
ENDBRANCH  10  30
BRANCH   2  35
HETATM   35  N1  UNL     1      -5.192  -0.499   1.667  1.00  0.00    -0.036 N 
ATOM     36  H13 UNL     1      -5.819   0.291   1.822  1.00  0.00     0.279 HD
ATOM     37  H12 UNL     1      -5.756  -1.238   2.086  1.00  0.00     0.279 HD
ATOM     38  H11 UNL     1      -4.313  -0.377   2.169  1.00  0.00     0.279 HD
ENDBRANCH   2  35
TORSDOF 11
