REMARK  2 active torsions:
REMARK  status: ('A' for Active; 'I' for Inactive)
REMARK    1  A    between atoms: O1_1  and  C1_3 
REMARK    2  A    between atoms: C1_3  and  C2_4 
ROOT
HETATM    1  C1  UNL     1      -1.267   0.480  -0.173  1.00  0.00     0.235 C 
HETATM    2  C8  UNL     1      -2.239  -0.648   0.211  1.00  0.00     0.184 C 
HETATM    3  S1  UNL     1      -3.729   0.150  -0.513  1.00  0.00     0.034 SA
HETATM    4  O2  UNL     1      -2.830   1.354  -1.404  1.00  0.00    -0.159 OA
HETATM    5  O3  UNL     1      -1.620   0.859  -1.448  1.00  0.00    -0.182 OA
ENDROOT
BRANCH   1   6
HETATM    6  O1  UNL     1      -1.426   1.504   0.774  1.00  0.00    -0.359 OA
ATOM      7  H1  UNL     1      -2.339   1.763   0.726  1.00  0.00     0.213 HD
ENDBRANCH   1   6
BRANCH   1   8
HETATM    8  C2  UNL     1       0.131   0.084  -0.099  1.00  0.00     0.007 A 
HETATM    9  C3  UNL     1       0.570  -1.172   0.220  1.00  0.00     0.013 A 
HETATM   10  C4  UNL     1       1.905  -1.426   0.300  1.00  0.00     0.001 A 
HETATM   11  C5  UNL     1       2.831  -0.435   0.066  1.00  0.00     0.000 A 
HETATM   12  C6  UNL     1       2.418   0.823  -0.255  1.00  0.00     0.001 A 
HETATM   13  C7  UNL     1       1.071   1.078  -0.336  1.00  0.00     0.013 A 
ENDBRANCH   1   8
TORSDOF 2
