REMARK  10 active torsions:
REMARK  status: ('A' for Active; 'I' for Inactive)
REMARK    1  A    between atoms: N1_1  and  C1_5 
REMARK    2  A    between atoms: C3_7  and  N2_8 
REMARK    3  A    between atoms: C4_12  and  O1_13 
REMARK    4  A    between atoms: O1_13  and  C5_14 
REMARK    5  A    between atoms: C6_16  and  O3_17 
REMARK    6  A    between atoms: C7_19  and  O4_20 
REMARK    7  A    between atoms: C9_23  and  N3_24 
REMARK    8  A    between atoms: C11_29  and  O5_30 
REMARK    9  A    between atoms: O5_30  and  C12_31 
REMARK   10  A    between atoms: C14_34  and  O7_35 
ROOT
HETATM    1  C1  UNL     1       1.255   0.141  -1.658  1.00  0.00     0.214 C 
HETATM    2  C2  UNL     1       0.614  -1.076  -2.284  1.00  0.00     0.070 C 
HETATM    3  C3  UNL     1      -0.089  -1.942  -1.294  1.00  0.00     0.214 C 
HETATM    4  C4  UNL     1      -0.481  -1.202  -0.035  1.00  0.00     0.157 C 
HETATM    5  C10 UNL     1       0.681  -0.539   0.631  1.00  0.00     0.068 C 
HETATM    6  C11 UNL     1       1.826  -0.271  -0.321  1.00  0.00     0.160 C 
ENDROOT
BRANCH   4   7
HETATM    7  O1  UNL     1      -1.521  -0.307  -0.317  1.00  0.00    -0.352 OA
BRANCH   7   8
HETATM    8  C5  UNL     1      -2.702  -0.648   0.341  1.00  0.00     0.293 C 
HETATM    9  O2  UNL     1      -3.725  -0.957  -0.536  1.00  0.00    -0.327 OA
HETATM   10  C6  UNL     1      -4.191   0.077  -1.281  1.00  0.00     0.288 C 
HETATM   11  C7  UNL     1      -3.986   1.436  -0.704  1.00  0.00     0.175 C 
HETATM   12  C8  UNL     1      -4.095   1.390   0.803  1.00  0.00     0.074 C 
HETATM   13  C9  UNL     1      -3.077   0.433   1.328  1.00  0.00     0.240 C 
BRANCH  10  14
HETATM   14  O3  UNL     1      -5.585  -0.104  -1.439  1.00  0.00    -0.369 OA
ATOM     15  H3  UNL     1      -5.911   0.620  -1.961  1.00  0.00     0.212 HD
ENDBRANCH  10  14
BRANCH  11  16
HETATM   16  O4  UNL     1      -5.013   2.267  -1.159  1.00  0.00    -0.391 OA
ATOM     17  H4  UNL     1      -4.882   3.133  -0.791  1.00  0.00     0.210 HD
ENDBRANCH  11  16
BRANCH  13  18
HETATM   18  N3  UNL     1      -3.562  -0.169   2.568  1.00  0.00    -0.070 N 
ATOM     19  H33 UNL     1      -4.331  -0.819   2.402  1.00  0.00     0.274 HD
ATOM     20  H32 UNL     1      -2.891  -0.829   2.961  1.00  0.00     0.274 HD
ATOM     21  H31 UNL     1      -3.815   0.561   3.234  1.00  0.00     0.274 HD
ENDBRANCH  13  18
ENDBRANCH   7   8
ENDBRANCH   4   7
BRANCH   3  22
HETATM   22  N2  UNL     1       0.646  -3.121  -0.943  1.00  0.00    -0.072 N 
ATOM     23  H23 UNL     1       0.894  -3.654  -1.777  1.00  0.00     0.274 HD
ATOM     24  H22 UNL     1       1.580  -2.879  -0.612  1.00  0.00     0.274 HD
ATOM     25  H21 UNL     1       0.165  -3.713  -0.266  1.00  0.00     0.274 HD
ENDBRANCH   3  22
BRANCH   6  26
HETATM   26  O5  UNL     1       2.646   0.704   0.205  1.00  0.00    -0.331 OA
BRANCH  26  27
HETATM   27  C12 UNL     1       3.949   0.268   0.428  1.00  0.00     0.415 C 
HETATM   28  O6  UNL     1       4.884   1.013  -0.261  1.00  0.00    -0.334 OA
HETATM   29  C13 UNL     1       6.032   1.056   0.537  1.00  0.00     0.234 C 
HETATM   30  C14 UNL     1       5.429   1.022   1.925  1.00  0.00     0.286 C 
HETATM   31  O8  UNL     1       4.217   0.381   1.777  1.00  0.00    -0.306 OA
BRANCH  30  32
HETATM   32  O7  UNL     1       5.300   2.336   2.378  1.00  0.00    -0.369 OA
ATOM     33  H7  UNL     1       4.922   2.315   3.249  1.00  0.00     0.212 HD
ENDBRANCH  30  32
ENDBRANCH  26  27
ENDBRANCH   6  26
BRANCH   1  34
HETATM   34  N1  UNL     1       2.318   0.566  -2.557  1.00  0.00    -0.072 N 
ATOM     35  H13 UNL     1       2.985  -0.176  -2.769  1.00  0.00     0.274 HD
ATOM     36  H12 UNL     1       1.997   0.727  -3.512  1.00  0.00     0.274 HD
ATOM     37  H11 UNL     1       2.751   1.387  -2.134  1.00  0.00     0.274 HD
ENDBRANCH   1  34
TORSDOF 10
