REMARK  4 active torsions:
REMARK  status: ('A' for Active; 'I' for Inactive)
REMARK    1  A    between atoms: C2_2  and  C3_3 
REMARK    2  A    between atoms: C3_3  and  C4_4 
REMARK    3  A    between atoms: C4_4  and  N1_5 
REMARK    4  A    between atoms: C6_10  and  N3_11 
ROOT
HETATM    1  N1  UNL     1       0.251  -0.271  -0.650  1.00  0.00    -0.225 N 
ATOM      2  H1  UNL     1       0.535  -1.239  -0.802  1.00  0.00     0.177 HD
HETATM    3  C5  UNL     1      -0.864  -0.236  -0.113  1.00  0.00     0.695 A 
HETATM    4  N2  UNL     1      -1.489  -1.434   0.168  1.00  0.00    -0.022 N 
ATOM      5  H2  UNL     1      -1.014  -2.303  -0.077  1.00  0.00     0.203 HD
HETATM    6  C6  UNL     1      -2.682  -1.502   0.743  1.00  0.00     0.691 A 
HETATM    7  N4  UNL     1      -3.343  -0.385   1.081  1.00  0.00    -0.187 N 
ATOM      8  H4  UNL     1      -4.261  -0.424   1.523  1.00  0.00     0.185 HD
HETATM    9  C7  UNL     1      -2.747   0.781   0.814  1.00  0.00     0.217 A 
HETATM   10  N5  UNL     1      -1.526   0.880   0.226  1.00  0.00    -0.183 N 
HETATM   11  C8  UNL     1      -0.993   2.225  -0.009  1.00  0.00     0.176 C 
ENDROOT
BRANCH   1  12
HETATM   12  C4  UNL     1       1.243   0.597  -1.113  1.00  0.00     0.142 C 
BRANCH  12  13
HETATM   13  C3  UNL     1       2.567  -0.163  -1.361  1.00  0.00     0.046 C 
BRANCH  13  14
HETATM   14  C2  UNL     1       2.988  -0.762  -0.072  1.00  0.00    -0.035 C 
HETATM   15  C1  UNL     1       4.145  -0.442   0.479  1.00  0.00     0.007 C 
ENDBRANCH  13  14
ENDBRANCH  12  13
ENDBRANCH   1  12
BRANCH   6  16
HETATM   16  N3  UNL     1      -3.276  -2.628   1.010  1.00  0.00    -0.234 N 
ATOM     17  H32 UNL     1      -2.773  -3.477   0.753  1.00  0.00     0.174 HD
ATOM     18  H31 UNL     1      -4.194  -2.680   1.452  1.00  0.00     0.174 HD
ENDBRANCH   6  16
TORSDOF 4
