REMARK  5 active torsions:
REMARK  status: ('A' for Active; 'I' for Inactive)
REMARK    1  A    between atoms: C3_5  and  N2_6 
REMARK    2  A    between atoms: N2_6  and  C4_8 
REMARK    3  A    between atoms: C4_8  and  C5_9 
REMARK    4  A    between atoms: C5_9  and  C6_10 
REMARK    5  A    between atoms: C6_10  and  N3_11 
ROOT
HETATM    1  C1  UNL     1      -3.788   1.676   0.778  1.00  0.00     0.046 C 
HETATM    2  C2  UNL     1      -2.771   0.896   0.513  1.00  0.00     0.066 A 
HETATM    3  N1  UNL     1      -1.479   1.258   0.474  1.00  0.00    -0.191 N 
ATOM      4  H1  UNL     1      -1.131   2.200   0.650  1.00  0.00     0.184 HD
HETATM    5  C3  UNL     1      -0.712   0.198   0.170  1.00  0.00     0.679 A 
HETATM    6  N4  UNL     1      -1.511  -0.870   0.008  1.00  0.00    -0.191 N 
ATOM      7  H4  UNL     1      -1.210  -1.815  -0.228  1.00  0.00     0.184 HD
HETATM    8  C7  UNL     1      -2.778  -0.471   0.212  1.00  0.00     0.066 A 
HETATM    9  C8  UNL     1      -3.854  -1.215   0.146  1.00  0.00     0.046 C 
ENDROOT
BRANCH   5  10
HETATM   10  N2  UNL     1       0.593   0.193   0.049  1.00  0.00    -0.226 N 
ATOM     11  H2  UNL     1       1.123   1.053   0.190  1.00  0.00     0.177 HD
BRANCH  10  12
HETATM   12  C4  UNL     1       1.277  -1.034  -0.284  1.00  0.00     0.139 C 
BRANCH  12  13
HETATM   13  C5  UNL     1       2.606  -0.632  -0.922  1.00  0.00     0.047 C 
BRANCH  13  14
HETATM   14  C6  UNL     1       3.345   0.180   0.133  1.00  0.00     0.231 C 
BRANCH  14  15
HETATM   15  N3  UNL     1       4.635   0.632  -0.338  1.00  0.00    -0.079 N 
ATOM     16  H33 UNL     1       5.202  -0.148  -0.670  1.00  0.00     0.274 HD
ATOM     17  H32 UNL     1       4.549   1.151  -1.212  1.00  0.00     0.274 HD
ATOM     18  H31 UNL     1       5.130   1.176   0.369  1.00  0.00     0.274 HD
ENDBRANCH  14  15
ENDBRANCH  13  14
ENDBRANCH  12  13
ENDBRANCH  10  12
ENDBRANCH   5  10
TORSDOF 5
