REMARK  5 active torsions:
REMARK  status: ('A' for Active; 'I' for Inactive)
REMARK       I    between atoms: C2_3  and  N2_5 
REMARK    1  A    between atoms: N2_5  and  N3_7 
REMARK    2  A    between atoms: C6_18  and  O2_19 
REMARK    3  A    between atoms: O2_19  and  C7_20 
REMARK    4  A    between atoms: C7_20  and  C10_25 
REMARK    5  A    between atoms: C11_29  and  N10_30 
ROOT
HETATM    1  C1  UNL     1      -6.807  -0.749  -0.382  1.00  0.00     0.265 C 
HETATM    2  N1  UNL     1      -5.455  -0.674  -0.094  1.00  0.00    -0.401 NA
HETATM    3  C2  UNL     1      -4.139  -0.601   0.186  1.00  0.00     0.406 C 
HETATM    4  O1  UNL     1      -3.458  -1.262   1.048  1.00  0.00    -0.229 OA
HETATM    5  N2  UNL     1      -3.339   0.366  -0.597  1.00  0.00    -0.238 N 
ATOM      6  H2  UNL     1      -3.818   0.947  -1.285  1.00  0.00     0.193 HD
ENDROOT
BRANCH   5   7
HETATM    7  N3  UNL     1      -2.021   0.515  -0.447  1.00  0.00    -0.280 N 
HETATM    8  C3  UNL     1      -1.164   1.229   0.106  1.00  0.00     0.139 A 
HETATM    9  N4  UNL     1      -1.446   2.313   0.892  1.00  0.00    -0.337 N 
HETATM   10  C12 UNL     1       0.161   0.900  -0.098  1.00  0.00     0.097 A 
HETATM   11  C4  UNL     1      -0.469   3.044   1.454  1.00  0.00     0.183 A 
ATOM     12  H4  UNL     1      -2.419   2.572   1.055  1.00  0.00     0.168 HD
HETATM   13  N5  UNL     1       0.810   2.693   1.233  1.00  0.00    -0.338 N 
HETATM   14  C5  UNL     1       1.156   1.638   0.471  1.00  0.00     0.127 A 
ATOM     15  H5  UNL     1       1.550   3.250   1.661  1.00  0.00     0.168 HD
HETATM   16  N6  UNL     1       2.436   1.272   0.232  1.00  0.00    -0.307 N 
HETATM   17  C6  UNL     1       2.808   0.235  -0.523  1.00  0.00     0.229 A 
ATOM     18  H6  UNL     1       3.174   1.831   0.661  1.00  0.00     0.171 HD
HETATM   19  N9  UNL     1       1.803  -0.500  -1.089  1.00  0.00    -0.307 N 
HETATM   20  C11 UNL     1       0.516  -0.194  -0.895  1.00  0.00     0.119 A 
ATOM     21  H9  UNL     1       2.041  -1.301  -1.673  1.00  0.00     0.171 HD
ATOM     22  H3  UNL     1      -1.546  -0.218  -0.974  1.00  0.00     0.188 HD
BRANCH  17  23
HETATM   23  O2  UNL     1       4.119  -0.099  -0.740  1.00  0.00    -0.278 OA
BRANCH  23  24
HETATM   24  C7  UNL     1       4.914  -0.964   0.009  1.00  0.00     0.271 C 
HETATM   25  C8  UNL     1       4.306  -2.299   0.046  1.00  0.00     0.117 C 
HETATM   26  N7  UNL     1       3.811  -3.366   0.065  1.00  0.00    -0.193 NA
HETATM   27  C9  UNL     1       6.226  -1.085  -0.695  1.00  0.00     0.117 C 
HETATM   28  N8  UNL     1       7.233  -1.184  -1.267  1.00  0.00    -0.193 NA
BRANCH  24  29
HETATM   29  C10 UNL     1       5.202  -0.398   1.367  1.00  0.00     0.292 C 
HETATM   30  F1  UNL     1       5.872   0.809   1.280  1.00  0.00    -0.250 F 
ENDBRANCH  24  29
ENDBRANCH  23  24
ENDBRANCH  17  23
BRANCH  20  31
HETATM   31  N10 UNL     1      -0.449  -0.871  -1.415  1.00  0.00    -0.385 N 
ATOM     32 2H10 UNL     1      -0.190  -1.668  -1.996  1.00  0.00     0.157 HD
ATOM     33 1H10 UNL     1      -1.431  -0.638  -1.267  1.00  0.00     0.157 HD
ENDBRANCH  20  31
ENDBRANCH   5   7
TORSDOF 4
