REMARK  7 active torsions:
REMARK  status: ('A' for Active; 'I' for Inactive)
REMARK    1  A    between atoms: N1_1  and  C1_4 
REMARK    2  A    between atoms: C2_7  and  O1_8 
REMARK    3  A    between atoms: O1_8  and  C3_9 
REMARK    4  A    between atoms: N4_17  and  N5_19 
REMARK       I    between atoms: N5_19  and  C7_21 
REMARK    5  A    between atoms: C7_21  and  C8_23 
REMARK    6  A    between atoms: C8_23  and  N6_24 
REMARK    7  A    between atoms: C8_23  and  O4_28 
ROOT
HETATM    1  C1  UNL     1       4.422   0.995  -0.901  1.00  0.00     0.678 A 
HETATM    2  N2  UNL     1       4.302  -0.074  -0.096  1.00  0.00    -0.170 N 
ATOM      3  H2  UNL     1       5.153  -0.578   0.152  1.00  0.00     0.186 HD
HETATM    4  C2  UNL     1       3.152  -0.522   0.401  1.00  0.00     0.177 A 
HETATM    5  C4  UNL     1       1.953   0.137   0.091  1.00  0.00     0.118 A 
HETATM    6  C5  UNL     1       0.754  -0.313   0.597  1.00  0.00     0.264 A 
HETATM    7  O2  UNL     1       0.844  -1.353   1.349  1.00  0.00    -0.267 OA
HETATM    8  N3  UNL     1      -0.452   0.207   0.390  1.00  0.00    -0.302 N 
ATOM      9  H3  UNL     1      -1.232  -0.263   0.850  1.00  0.00     0.171 HD
HETATM   10  C6  UNL     1      -0.758   1.275  -0.352  1.00  0.00     0.168 A 
HETATM   11  N4  UNL     1      -1.953   1.716  -0.503  1.00  0.00    -0.277 N 
ATOM     12  H4  UNL     1      -2.082   2.540  -1.091  1.00  0.00     0.189 HD
HETATM   13  S1  UNL     1       0.590   2.008  -1.089  1.00  0.00    -0.033 SA
HETATM   14  C9  UNL     1       2.083   1.231  -0.734  1.00  0.00     0.114 A 
HETATM   15  N7  UNL     1       3.270   1.643  -1.211  1.00  0.00    -0.184 N 
ATOM     16  H7  UNL     1       3.306   2.461  -1.820  1.00  0.00     0.185 HD
ENDROOT
BRANCH  11  17
HETATM   17  N5  UNL     1      -3.074   1.160   0.069  1.00  0.00    -0.264 N 
HETATM   18  C7  UNL     1      -4.199   0.840  -0.722  1.00  0.00     0.292 C 
HETATM   19  O3  UNL     1      -4.189   1.062  -1.970  1.00  0.00    -0.267 OA
ATOM     20  H5  UNL     1      -3.093   0.978   1.072  1.00  0.00     0.190 HD
BRANCH  18  21
HETATM   21  C8  UNL     1      -5.438   0.240  -0.170  1.00  0.00     0.411 C 
BRANCH  21  22
HETATM   22  N6  UNL     1      -5.758  -1.027  -0.795  1.00  0.00    -0.044 N 
ATOM     23  H63 UNL     1      -5.813  -0.935  -1.809  1.00  0.00     0.278 HD
ATOM     24  H62 UNL     1      -4.974  -1.677  -0.734  1.00  0.00     0.278 HD
ATOM     25  H61 UNL     1      -6.610  -1.440  -0.415  1.00  0.00     0.278 HD
ENDBRANCH  21  22
BRANCH  21  26
HETATM   26  O4  UNL     1      -5.349   0.039   1.198  1.00  0.00    -0.363 OA
ATOM     27  H4  UNL     1      -6.143  -0.345   1.552  1.00  0.00     0.212 HD
ENDBRANCH  21  26
ENDBRANCH  18  21
ENDBRANCH  11  17
BRANCH   4  28
HETATM   28  O1  UNL     1       3.114  -1.648   1.236  1.00  0.00    -0.320 OA
BRANCH  28  29
HETATM   29  C3  UNL     1       4.277  -2.342   1.577  1.00  0.00     0.291 C 
HETATM   30 CL1  UNL     1       3.897  -3.706   2.637  1.00  0.00    -0.101 Cl
ENDBRANCH  28  29
ENDBRANCH   4  28
BRANCH   1  31
HETATM   31  N1  UNL     1       5.514   1.438  -1.386  1.00  0.00    -0.234 N 
ATOM     32  H12 UNL     1       6.380   0.951  -1.153  1.00  0.00     0.174 HD
ATOM     33  H11 UNL     1       5.605   2.250  -1.997  1.00  0.00     0.174 HD
ENDBRANCH   1  31
TORSDOF 7
