REMARK  8 active torsions:
REMARK  status: ('A' for Active; 'I' for Inactive)
REMARK    1  A    between atoms: C2_2  and  O1_3 
REMARK    2  A    between atoms: O1_3  and  C3_4 
REMARK    3  A    between atoms: C3_4  and  C4_6 
REMARK    4  A    between atoms: C5_8  and  N1_9 
REMARK    5  A    between atoms: N1_9  and  C6_11 
REMARK    6  A    between atoms: C6_11  and  C8_15 
REMARK    7  A    between atoms: C10_19  and  O3_20 
REMARK    8  A    between atoms: C11_22  and  O4_23 
ROOT
HETATM    1  C4  UNL     1       1.537   0.184  -0.270  1.00  0.00     0.118 A 
HETATM    2  S1  UNL     1       0.027   0.093   0.508  1.00  0.00    -0.060 SA
HETATM    3  C5  UNL     1      -0.982  -0.014  -0.859  1.00  0.00     0.113 A 
HETATM    4  C10 UNL     1      -0.093   0.026  -1.905  1.00  0.00     0.134 A 
HETATM    5  C11 UNL     1       1.207   0.128  -1.600  1.00  0.00     0.125 A 
ENDROOT
BRANCH   3   6
HETATM    6  N1  UNL     1      -2.424  -0.120  -0.937  1.00  0.00    -0.336 N 
ATOM      7  H1  UNL     1      -2.882  -0.174  -1.847  1.00  0.00     0.168 HD
BRANCH   6   8
HETATM    8  C6  UNL     1      -3.196  -0.148   0.244  1.00  0.00     0.117 C 
HETATM    9  N2  UNL     1      -3.361   0.887   0.982  1.00  0.00    -0.381 N 
HETATM   10  C7  UNL     1      -2.821   2.180   0.751  1.00  0.00     0.147 C 
ATOM     11  H2  UNL     1      -3.936   0.771   1.816  1.00  0.00     0.160 HD
BRANCH   8  12
HETATM   12  C8  UNL     1      -3.854  -1.398   0.678  1.00  0.00     0.167 C 
HETATM   13  C9  UNL     1      -4.619  -1.189   1.957  1.00  0.00     0.059 C 
HETATM   14 CL1  UNL     1      -5.073  -1.878  -0.557  1.00  0.00    -0.093 Cl
HETATM   15 CL2  UNL     1      -2.719  -2.751   0.809  1.00  0.00    -0.093 Cl
ENDBRANCH   8  12
ENDBRANCH   6   8
ENDBRANCH   3   6
BRANCH   4  16
HETATM   16  O3  UNL     1      -0.541  -0.040  -3.257  1.00  0.00    -0.356 OA
ATOM     17  H3  UNL     1       0.074  -0.012  -3.981  1.00  0.00     0.218 HD
ENDBRANCH   4  16
BRANCH   1  18
HETATM   18  C3  UNL     1       2.884   0.297   0.337  1.00  0.00     0.303 C 
HETATM   19  O2  UNL     1       2.981   0.335   1.581  1.00  0.00    -0.259 OA
BRANCH  18  20
HETATM   20  O1  UNL     1       3.992   0.359  -0.461  1.00  0.00    -0.317 OA
BRANCH  20  21
HETATM   21  C2  UNL     1       5.313   0.467   0.039  1.00  0.00     0.174 C 
HETATM   22  C1  UNL     1       5.691  -0.697   0.924  1.00  0.00     0.034 C 
ENDBRANCH  20  21
ENDBRANCH  18  20
ENDBRANCH   1  18
BRANCH   5  23
HETATM   23  O4  UNL     1       2.255   0.181  -2.565  1.00  0.00    -0.356 OA
ATOM     24  H4  UNL     1       2.026   0.142  -3.486  1.00  0.00     0.218 HD
ENDBRANCH   5  23
TORSDOF 8
