REMARK  7 active torsions:
REMARK  status: ('A' for Active; 'I' for Inactive)
REMARK    1  A    between atoms: O1_2  and  C2_3 
REMARK    2  A    between atoms: C2_3  and  C3_5 
REMARK    3  A    between atoms: C4_6  and  O3_7 
REMARK    4  A    between atoms: C5_9  and  O4_10 
REMARK    5  A    between atoms: C7_14  and  N1_15 
REMARK    6  A    between atoms: N2_17  and  N3_19 
REMARK    7  A    between atoms: C14_26  and  O5_27 
ROOT
HETATM    1  C3  UNL     1       3.493   0.293  -0.411  1.00  0.00     0.111 A 
HETATM    2  C4  UNL     1       3.861   1.070  -1.490  1.00  0.00     0.121 A 
HETATM    3  C5  UNL     1       2.951   1.739  -2.296  1.00  0.00     0.141 A 
HETATM    4  C6  UNL     1       1.613   1.593  -1.965  1.00  0.00     0.183 A 
HETATM    5  F1  UNL     1       0.701   2.235  -2.734  1.00  0.00    -0.200 F 
HETATM    6  C7  UNL     1       1.224   0.821  -0.890  1.00  0.00     0.125 A 
HETATM    7  C14 UNL     1       2.157   0.170  -0.111  1.00  0.00     0.116 A 
ENDROOT
BRANCH   6   8
HETATM    8  N1  UNL     1      -0.148   0.670  -0.549  1.00  0.00    -0.281 N 
HETATM    9  N2  UNL     1      -0.853  -0.292  -1.019  1.00  0.00    -0.244 N 
ATOM     10  H2  UNL     1      -0.443  -0.977  -1.654  1.00  0.00     0.208 HD
ATOM     11  H1  UNL     1      -0.581   1.342   0.084  1.00  0.00     0.188 HD
BRANCH   9  12
HETATM   12  N3  UNL     1      -2.191  -0.381  -0.643  1.00  0.00    -0.314 N 
HETATM   13  C8  UNL     1      -2.902  -1.610  -0.870  1.00  0.00     0.144 C 
HETATM   14  C9  UNL     1      -3.739  -1.986   0.334  1.00  0.00     0.021 C 
HETATM   15  C10 UNL     1      -4.861  -1.038   0.596  1.00  0.00     0.002 C 
HETATM   16  C11 UNL     1      -4.507   0.066   1.558  1.00  0.00     0.002 C 
HETATM   17  C12 UNL     1      -3.086   0.527   1.423  1.00  0.00     0.021 C 
HETATM   18  C13 UNL     1      -2.769   0.820  -0.033  1.00  0.00     0.144 C 
ENDBRANCH   9  12
ENDBRANCH   6   8
BRANCH   7  19
HETATM   19  O5  UNL     1       1.729  -0.611   0.979  1.00  0.00    -0.357 OA
ATOM     20  H5  UNL     1       0.806  -0.696   1.186  1.00  0.00     0.217 HD
ENDBRANCH   7  19
BRANCH   3  21
HETATM   21  O4  UNL     1       3.360   2.514  -3.376  1.00  0.00    -0.355 OA
ATOM     22  H4  UNL     1       2.737   2.972  -3.928  1.00  0.00     0.218 HD
ENDBRANCH   3  21
BRANCH   1  23
HETATM   23  C2  UNL     1       4.460  -0.394   0.414  1.00  0.00     0.298 C 
HETATM   24  O2  UNL     1       5.676  -0.289   0.150  1.00  0.00    -0.259 OA
BRANCH  23  25
HETATM   25  O1  UNL     1       4.052  -1.158   1.479  1.00  0.00    -0.322 OA
HETATM   26  C1  UNL     1       4.960  -1.859   2.327  1.00  0.00     0.213 C 
ENDBRANCH  23  25
ENDBRANCH   1  23
BRANCH   2  27
HETATM   27  O3  UNL     1       5.205   1.199  -1.798  1.00  0.00    -0.357 OA
ATOM     28  H3  UNL     1       5.458   1.734  -2.541  1.00  0.00     0.218 HD
ENDBRANCH   2  27
TORSDOF 7
