REMARK  5 active torsions:
REMARK  status: ('A' for Active; 'I' for Inactive)
REMARK    1  A    between atoms: C4_7  and  C5_8 
REMARK    2  A    between atoms: C5_8  and  C6_9 
REMARK    3  A    between atoms: C8_16  and  N3_17 
REMARK    4  A    between atoms: C10_21  and  C11_22 
REMARK    5  A    between atoms: C11_22  and  C12_24 
ROOT
HETATM    1  C1  UNL     1      -3.323  -0.988   1.982  1.00  0.00     0.069 C 
HETATM    2  C2  UNL     1      -1.935  -0.720   1.622  1.00  0.00     0.022 A 
HETATM    3  N1  UNL     1      -0.957  -1.586   2.038  1.00  0.00    -0.326 N 
ATOM      4  H1  UNL     1      -1.215  -2.390   2.610  1.00  0.00     0.169 HD
HETATM    5  C3  UNL     1       0.321  -1.403   1.714  1.00  0.00     0.256 A 
HETATM    6  O1  UNL     1       1.187  -2.204   2.106  1.00  0.00    -0.267 OA
HETATM    7  C4  UNL     1       0.752  -0.328   0.935  1.00  0.00     0.034 A 
HETATM    8  C9  UNL     1      -0.213   0.548   0.508  1.00  0.00     0.034 A 
HETATM    9  C10 UNL     1      -1.563   0.366   0.847  1.00  0.00     0.037 A 
ENDROOT
BRANCH   7  10
HETATM   10  C5  UNL     1       2.179  -0.136   0.700  1.00  0.00     0.038 C 
BRANCH  10  11
HETATM   11  C6  UNL     1       2.829  -0.027  -0.402  1.00  0.00     0.042 C 
HETATM   12  S1  UNL     1       4.627   0.220  -0.493  1.00  0.00    -0.063 SA
HETATM   13  C7  UNL     1       4.836   0.962  -2.095  1.00  0.00     0.112 C 
HETATM   14  N2  UNL     1       5.904   1.339  -2.624  1.00  0.00    -0.388 N 
HETATM   15  S2  UNL     1       3.202   1.068  -2.798  1.00  0.00    -0.047 SA
ATOM     16  H22 UNL     1       6.839   1.278  -2.222  1.00  0.00     0.157 HD
ATOM     17  H21 UNL     1       6.024   1.765  -3.543  1.00  0.00     0.157 HD
HETATM   18  C8  UNL     1       2.320  -0.127  -1.751  1.00  0.00     0.087 C 
BRANCH  18  19
HETATM   19  N3  UNL     1       1.429  -0.907  -2.219  1.00  0.00    -0.392 N 
ATOM     20  H32 UNL     1       0.934  -1.578  -1.631  1.00  0.00     0.156 HD
ATOM     21  H31 UNL     1       1.070  -0.978  -3.171  1.00  0.00     0.156 HD
ENDBRANCH  18  19
ENDBRANCH  10  11
ENDBRANCH   7  10
BRANCH   9  22
HETATM   22  C11 UNL     1      -2.548   1.374   0.514  1.00  0.00     0.189 C 
HETATM   23  O2  UNL     1      -3.130   1.925   1.537  1.00  0.00    -0.287 OA
BRANCH  22  24
HETATM   24  C12 UNL     1      -2.962   1.839  -0.762  1.00  0.00     0.129 C 
HETATM   25  C13 UNL     1      -2.604   1.475  -1.964  1.00  0.00     0.271 C 
HETATM   26  F1  UNL     1      -3.125   2.058  -3.069  1.00  0.00    -0.173 F 
HETATM   27  F2  UNL     1      -1.732   0.484  -2.151  1.00  0.00    -0.173 F 
ENDBRANCH  22  24
ENDBRANCH   9  22
TORSDOF 5
