REMARK  5 active torsions:
REMARK  status: ('A' for Active; 'I' for Inactive)
REMARK    1  A    between atoms: O1_2  and  C2_3 
REMARK    2  A    between atoms: C2_3  and  C3_5 
REMARK    3  A    between atoms: C4_8  and  C5_9 
REMARK    4  A    between atoms: C8_12  and  S1_13 
REMARK    5  A    between atoms: S1_13  and  N2_14 
ROOT
HETATM    1  C5  UNL     1       1.040  -0.430  -0.245  1.00  0.00     0.066 A 
HETATM    2  C6  UNL     1       2.029  -1.286  -0.633  1.00  0.00     0.024 A 
HETATM    3  C7  UNL     1       3.348  -0.940  -0.408  1.00  0.00     0.052 A 
HETATM    4  C8  UNL     1       3.608   0.267   0.202  1.00  0.00     0.192 A 
HETATM    5  O5  UNL     1       2.633   1.069   0.563  1.00  0.00    -0.280 OA
HETATM    6  C9  UNL     1       1.373   0.762   0.361  1.00  0.00     0.157 A 
HETATM    7  N3  UNL     1       0.399   1.537   0.708  1.00  0.00    -0.379 N 
ATOM      8  H31 UNL     1       0.645   2.419   1.157  1.00  0.00     0.158 HD
ATOM      9  H32 UNL     1      -0.580   1.298   0.551  1.00  0.00     0.158 HD
ENDROOT
BRANCH   1  10
HETATM   10  C4  UNL     1      -0.369  -0.774  -0.472  1.00  0.00     0.165 A 
HETATM   11  N1  UNL     1      -1.426  -0.015  -0.136  1.00  0.00    -0.328 N 
HETATM   12  C3  UNL     1      -2.553  -0.644  -0.494  1.00  0.00     0.159 A 
ATOM     13  H1  UNL     1      -1.378   0.896   0.320  1.00  0.00     0.168 HD
HETATM   14  C10 UNL     1      -2.155  -1.828  -1.067  1.00  0.00     0.192 A 
HETATM   15  O6  UNL     1      -0.845  -1.859  -1.031  1.00  0.00    -0.276 OA
HETATM   16  N4  UNL     1      -3.053  -2.809  -1.590  1.00  0.00    -0.072 NA
BRANCH  12  17
HETATM   17  C2  UNL     1      -3.937  -0.187  -0.321  1.00  0.00     0.313 C 
HETATM   18  O2  UNL     1      -4.878  -0.907  -0.716  1.00  0.00    -0.257 OA
BRANCH  17  19
HETATM   19  O1  UNL     1      -4.239   1.016   0.266  1.00  0.00    -0.321 OA
HETATM   20  C1  UNL     1      -5.591   1.466   0.437  1.00  0.00     0.213 C 
ENDBRANCH  17  19
ENDBRANCH  12  17
ENDBRANCH   1  10
BRANCH   4  21
HETATM   21  S1  UNL     1       5.274   0.702   0.485  1.00  0.00     0.279 S 
HETATM   22  O3  UNL     1       6.189  -0.370   0.035  1.00  0.00    -0.199 OA
HETATM   23  O4  UNL     1       5.410   0.996   1.956  1.00  0.00    -0.199 OA
BRANCH  21  24
HETATM   24  N2  UNL     1       5.568   2.182  -0.373  1.00  0.00    -0.323 N 
ATOM     25  H22 UNL     1       4.884   2.691  -0.934  1.00  0.00     0.169 HD
ATOM     26  H21 UNL     1       6.542   2.436  -0.208  1.00  0.00     0.169 HD
ENDBRANCH  21  24
ENDBRANCH   4  21
TORSDOF 5
