REMARK  2 active torsions:
REMARK  status: ('A' for Active; 'I' for Inactive)
REMARK    1  A    between atoms: C1_2  and  C2_4 
REMARK    2  A    between atoms: C11_16  and  N3_17 
ROOT
HETATM    1  C2  UNL     1       3.768   0.312   0.907  1.00  0.00     0.076 A 
HETATM    2  C3  UNL     1       3.574  -0.414  -0.255  1.00  0.00     0.062 A 
HETATM    3  C4  UNL     1       2.284  -0.307  -0.721  1.00  0.00     0.055 A 
HETATM    4  C5  UNL     1       1.677   0.569   0.277  1.00  0.00     0.043 A 
HETATM    5  N1  UNL     1       2.581   0.874   1.161  1.00  0.00    -0.356 N 
ATOM      6  H1  UNL     1       2.404   1.478   1.963  1.00  0.00     0.166 HD
HETATM    7  C6  UNL     1       0.221   0.804  -0.060  1.00  0.00     0.073 C 
HETATM    8  C7  UNL     1       0.136   1.453  -1.416  1.00  0.00     0.033 C 
HETATM    9  C8  UNL     1       0.826   0.579  -2.490  1.00  0.00     0.123 C 
HETATM   10  N2  UNL     1       1.232  -0.574  -1.621  1.00  0.00    -0.379 N 
HETATM   11  C9  UNL     1       0.325  -1.707  -1.702  1.00  0.00     0.125 C 
HETATM   12  C10 UNL     1      -0.998  -1.178  -1.019  1.00  0.00     0.056 C 
HETATM   13  C11 UNL     1      -0.636  -0.368   0.191  1.00  0.00     0.234 C 
ENDROOT
BRANCH  13  14
HETATM   14  N3  UNL     1      -1.743  -0.116   1.056  1.00  0.00     0.093 N 
HETATM   15  C12 UNL     1      -2.654  -1.179   1.247  1.00  0.00     0.273 C 
HETATM   16  C13 UNL     1      -3.887  -0.903   0.417  1.00  0.00     0.032 C 
HETATM   17  C14 UNL     1      -3.865   0.589   0.277  1.00  0.00     0.032 C 
HETATM   18  C15 UNL     1      -2.519   1.023   0.847  1.00  0.00     0.273 C 
ENDBRANCH  13  14
BRANCH   1  19
HETATM   19  C1  UNL     1       4.992   0.456   1.709  1.00  0.00     0.403 C 
HETATM   20  F1  UNL     1       6.008   1.104   0.992  1.00  0.00    -0.208 F 
HETATM   21  F2  UNL     1       5.525  -0.758   2.099  1.00  0.00    -0.208 F 
ENDBRANCH   1  19
TORSDOF 2
