REMARK  6 active torsions:
REMARK  status: ('A' for Active; 'I' for Inactive)
REMARK    1  A    between atoms: C2_2  and  C5_5 
REMARK    2  A    between atoms: C5_5  and  C6_6 
REMARK    3  A    between atoms: C6_6  and  N1_7 
REMARK    4  A    between atoms: C10_15  and  C11_16 
REMARK    5  A    between atoms: C11_16  and  O1_17 
REMARK    6  A    between atoms: C17_26  and  C18_27 
ROOT
HETATM    1  N1  UNL     1      -1.915   0.263   0.534  1.00  0.00    -0.368 N 
ATOM      2  H1  UNL     1      -1.603   1.220   0.698  1.00  0.00     0.165 HD
HETATM    3  C7  UNL     1      -0.940  -0.494   0.439  1.00  0.00     0.064 A 
HETATM    4  C8  UNL     1      -1.044  -1.848   0.217  1.00  0.00     0.050 A 
HETATM    5  C9  UNL     1       0.103  -2.586   0.124  1.00  0.00     0.110 A 
HETATM    6  N2  UNL     1       1.300  -2.010   0.245  1.00  0.00    -0.303 N 
ATOM      7  H2  UNL     1       2.135  -2.591   0.169  1.00  0.00     0.186 HD
HETATM    8  N3  UNL     1       1.446  -0.697   0.463  1.00  0.00    -0.237 N 
HETATM    9  C10 UNL     1       2.543   0.059   0.614  1.00  0.00     0.139 A 
HETATM   10  N4  UNL     1       2.087   1.314   0.808  1.00  0.00    -0.336 N 
ATOM     11  H4  UNL     1       2.690   2.123   0.955  1.00  0.00     0.167 HD
HETATM   12  C17 UNL     1       0.744   1.373   0.785  1.00  0.00     0.149 A 
HETATM   13  C19 UNL     1       0.337   0.063   0.560  1.00  0.00     0.116 A 
ENDROOT
BRANCH   1  14
HETATM   14  C6  UNL     1      -3.297   0.213   0.487  1.00  0.00     0.062 C 
BRANCH  14  15
HETATM   15  C5  UNL     1      -3.986  -0.244  -0.748  1.00  0.00     0.052 C 
BRANCH  15  16
HETATM   16  C2  UNL     1      -5.490  -0.197  -0.580  1.00  0.00    -0.047 C 
HETATM   17  C1  UNL     1      -5.985   1.207  -0.283  1.00  0.00     0.015 C 
HETATM   18  C3  UNL     1      -6.106  -0.701  -1.877  1.00  0.00     0.015 C 
HETATM   19  C4  UNL     1      -5.974  -1.078   0.541  1.00  0.00     0.015 C 
ENDBRANCH  15  16
ENDBRANCH  14  15
ENDBRANCH   1  14
BRANCH  12  20
HETATM   20  C18 UNL     1      -0.107   2.596   0.965  1.00  0.00     0.435 C 
HETATM   21  F1  UNL     1       0.798   3.661   1.161  1.00  0.00    -0.165 F 
HETATM   22  F2  UNL     1      -0.788   2.955  -0.163  1.00  0.00    -0.165 F 
HETATM   23  F3  UNL     1      -0.846   2.577   2.117  1.00  0.00    -0.165 F 
ENDBRANCH  12  20
BRANCH   9  24
HETATM   24  C11 UNL     1       3.981  -0.342   0.588  1.00  0.00     0.118 C 
HETATM   25  C12 UNL     1       4.560  -0.235  -0.802  1.00  0.00     0.046 C 
HETATM   26  C13 UNL     1       6.051  -0.364  -0.741  1.00  0.00     0.003 C 
HETATM   27  C14 UNL     1       6.710   0.803  -0.043  1.00  0.00     0.000 C 
HETATM   28  C15 UNL     1       5.646   1.548   0.712  1.00  0.00     0.003 C 
HETATM   29  C16 UNL     1       4.806   0.583   1.487  1.00  0.00     0.046 C 
BRANCH  24  30
HETATM   30  O1  UNL     1       4.187  -1.619   1.064  1.00  0.00    -0.382 OA
ATOM     31  H1  UNL     1       5.102  -1.874   1.047  1.00  0.00     0.211 HD
ENDBRANCH  24  30
ENDBRANCH   9  24
TORSDOF 6
