REMARK  7 active torsions:
REMARK  status: ('A' for Active; 'I' for Inactive)
REMARK    1  A    between atoms: C2_2  and  N1_4 
REMARK    2  A    between atoms: C4_5  and  C5_6 
REMARK    3  A    between atoms: C8_9  and  N2_10 
REMARK    4  A    between atoms: C11_13  and  N3_14 
REMARK    5  A    between atoms: C16_22  and  C17_23 
REMARK    6  A    between atoms: C17_23  and  N4_24 
REMARK    7  A    between atoms: C19_29  and  C21_31 
ROOT
HETATM    1  N1  UNL     1      -3.091   0.378   0.458  1.00  0.00    -0.358 N 
HETATM    2  C4  UNL     1      -2.116  -0.469  -0.105  1.00  0.00     0.046 C 
HETATM    3  C16 UNL     1      -2.698  -1.475  -0.768  1.00  0.00    -0.025 C 
HETATM    4  C18 UNL     1      -4.172  -1.325  -0.645  1.00  0.00     0.078 C 
HETATM    5  C19 UNL     1      -4.309   0.140  -0.348  1.00  0.00     0.131 C 
HETATM    6  C20 UNL     1      -5.547   0.402   0.482  1.00  0.00     0.048 C 
ENDROOT
BRANCH   2   7
HETATM    7  C5  UNL     1      -0.670  -0.317  -0.079  1.00  0.00    -0.009 A 
HETATM    8  C6  UNL     1       0.051  -0.264   1.081  1.00  0.00     0.016 A 
HETATM    9  C7  UNL     1       1.446  -0.081   1.052  1.00  0.00     0.030 A 
HETATM   10  C8  UNL     1       2.145   0.052  -0.113  1.00  0.00     0.030 A 
HETATM   11  C14 UNL     1       1.417  -0.001  -1.306  1.00  0.00     0.030 A 
HETATM   12  C15 UNL     1       0.061  -0.180  -1.261  1.00  0.00     0.016 A 
BRANCH  10  13
HETATM   13  N2  UNL     1       3.553   0.226  -0.138  1.00  0.00    -0.381 N 
HETATM   14  C9  UNL     1       4.387   0.146   1.033  1.00  0.00     0.125 C 
HETATM   15  C10 UNL     1       5.582  -0.746   0.679  1.00  0.00     0.052 C 
HETATM   16  C11 UNL     1       6.399  -0.010  -0.341  1.00  0.00     0.186 C 
HETATM   17  C12 UNL     1       5.601   1.076  -1.033  1.00  0.00     0.052 C 
HETATM   18  C13 UNL     1       4.238   0.507  -1.398  1.00  0.00     0.125 C 
BRANCH  16  19
HETATM   19  N3  UNL     1       7.510   0.594   0.329  1.00  0.00    -0.075 N 
ATOM     20  H33 UNL     1       7.225   1.188   1.108  1.00  0.00     0.274 HD
ATOM     21  H32 UNL     1       8.060  -0.078   0.863  1.00  0.00     0.274 HD
ATOM     22  H31 UNL     1       8.066   1.095  -0.365  1.00  0.00     0.274 HD
ENDBRANCH  16  19
ENDBRANCH  10  13
ENDBRANCH   2   7
BRANCH   1  23
HETATM   23  C2  UNL     1      -3.060   1.307   1.551  1.00  0.00     0.077 C 
HETATM   24  C1  UNL     1      -1.994   2.361   1.456  1.00  0.00     0.032 C 
HETATM   25  C3  UNL     1      -3.078   0.716   2.920  1.00  0.00     0.032 C 
ENDBRANCH   1  23
BRANCH   3  26
HETATM   26  C17 UNL     1      -2.053  -2.582  -1.501  1.00  0.00     0.266 C 
BRANCH  26  27
HETATM   27  N4  UNL     1      -2.466  -3.877  -0.924  1.00  0.00    -0.076 N 
ATOM     28  H43 UNL     1      -2.284  -3.925   0.078  1.00  0.00     0.274 HD
ATOM     29  H42 UNL     1      -3.481  -3.977  -0.896  1.00  0.00     0.274 HD
ATOM     30  H41 UNL     1      -2.020  -4.642  -1.431  1.00  0.00     0.274 HD
ENDBRANCH  26  27
ENDBRANCH   3  26
BRANCH   5  31
HETATM   31  C21 UNL     1      -4.313   0.930  -1.620  1.00  0.00     0.412 C 
HETATM   32  F1  UNL     1      -3.274   0.653  -2.453  1.00  0.00    -0.168 F 
HETATM   33  F2  UNL     1      -5.475   0.574  -2.301  1.00  0.00    -0.168 F 
HETATM   34  F3  UNL     1      -4.311   2.296  -1.389  1.00  0.00    -0.168 F 
ENDBRANCH   5  31
TORSDOF 7
