REMARK  2 active torsions:
REMARK  status: ('A' for Active; 'I' for Inactive)
REMARK    1  A    between atoms: C10_12  and  C11_13 
REMARK    2  A    between atoms: C14_16  and  C15_17 
ROOT
HETATM    1  C1  UNL     1      -0.792   2.230   1.411  1.00  0.00     0.017 C 
HETATM    2  C2  UNL     1      -1.117   0.985   1.148  1.00  0.00    -0.055 C 
HETATM    3  C3  UNL     1      -2.361   0.462   0.574  1.00  0.00     0.035 C 
HETATM    4  C4  UNL     1      -3.617   1.035   1.176  1.00  0.00     0.011 C 
HETATM    5  C5  UNL     1      -4.783   0.270   0.633  1.00  0.00     0.001 C 
HETATM    6  C6  UNL     1      -4.443  -0.857  -0.274  1.00  0.00     0.002 C 
HETATM    7  C7  UNL     1      -3.319  -1.735   0.222  1.00  0.00     0.021 C 
HETATM    8  C8  UNL     1      -2.323  -0.999   1.050  1.00  0.00     0.080 C 
HETATM    9  N1  UNL     1      -0.940  -1.324   0.761  1.00  0.00    -0.230 NA
HETATM   10  S1  UNL     1      -0.714  -1.102  -0.981  1.00  0.00    -0.033 SA
HETATM   11  C9  UNL     1       1.040  -0.673  -1.041  1.00  0.00     0.057 C 
HETATM   12  C10 UNL     1       1.883  -0.769  -2.042  1.00  0.00     0.064 C 
HETATM   13  S2  UNL     1       1.370  -0.075   0.622  1.00  0.00    -0.096 SA
HETATM   14  C16 UNL     1      -0.245  -0.208   1.393  1.00  0.00     0.166 C 
ENDROOT
BRANCH  12  15
HETATM   15  C11 UNL     1       3.270  -0.342  -1.806  1.00  0.00     0.078 A 
HETATM   16  C12 UNL     1       4.092   0.301  -2.707  1.00  0.00     0.040 A 
HETATM   17  C13 UNL     1       5.299   0.516  -2.086  1.00  0.00     0.047 A 
HETATM   18  C14 UNL     1       5.183   0.000  -0.824  1.00  0.00     0.152 A 
HETATM   19  O3  UNL     1       3.973  -0.493  -0.707  1.00  0.00    -0.304 OA
BRANCH  18  20
HETATM   20  C15 UNL     1       6.215  -0.013   0.234  1.00  0.00     0.234 C 
HETATM   21  O1  UNL     1       5.962  -0.523   1.345  1.00  0.00    -0.642 OA
HETATM   22  O2  UNL     1       7.447   0.552  -0.053  1.00  0.00    -0.642 OA
ENDBRANCH  18  20
ENDBRANCH  12  15
TORSDOF 2
