REMARK  4 active torsions:
REMARK  status: ('A' for Active; 'I' for Inactive)
REMARK    1  A    between atoms: C2_2  and  C9_17 
REMARK    2  A    between atoms: C3_3  and  C4_4 
REMARK    3  A    between atoms: N1_6  and  N2_8 
REMARK    4  A    between atoms: N2_8  and  C6_10 
ROOT
HETATM    1  C4  UNL     1       0.212   1.042  -1.770  1.00  0.00     0.022 C 
HETATM    2  C5  UNL     1       0.110   0.735  -3.190  1.00  0.00     0.069 C 
HETATM    3  N1  UNL     1       1.124   1.868  -1.391  1.00  0.00    -0.303 N 
ATOM      4  H1  UNL     1       1.755   2.291  -2.072  1.00  0.00     0.186 HD
ENDROOT
BRANCH   3   5
HETATM    5  N2  UNL     1       1.237   2.176  -0.039  1.00  0.00    -0.271 N 
ATOM      6  H2  UNL     1       0.673   2.934   0.346  1.00  0.00     0.190 HD
BRANCH   5   7
HETATM    7  C6  UNL     1       2.128   1.454   0.832  1.00  0.00     0.190 C 
HETATM    8  N3  UNL     1       2.582   1.901   1.956  1.00  0.00    -0.360 N 
HETATM    9  C7  UNL     1       3.449   0.947   2.593  1.00  0.00     0.142 C 
ATOM     10  H3  UNL     1       2.354   2.817   2.343  1.00  0.00     0.162 HD
HETATM   11  C8  UNL     1       3.084  -0.338   1.912  1.00  0.00     0.142 C 
HETATM   12  N4  UNL     1       2.645   0.151   0.599  1.00  0.00    -0.360 N 
ATOM     13  H4  UNL     1       2.700  -0.341  -0.293  1.00  0.00     0.162 HD
ENDBRANCH   5   7
ENDBRANCH   3   5
BRANCH   1  14
HETATM   14  C3  UNL     1      -0.659   0.468  -0.779  1.00  0.00     0.029 C 
HETATM   15  C2  UNL     1      -1.635  -0.364  -0.874  1.00  0.00    -0.079 C 
HETATM   16  C1  UNL     1      -2.108  -0.959  -2.131  1.00  0.00     0.044 C 
BRANCH  15  17
HETATM   17  C9  UNL     1      -2.376  -0.795   0.355  1.00  0.00     0.006 C 
HETATM   18  C10 UNL     1      -1.957  -0.083   1.600  1.00  0.00     0.014 C 
HETATM   19  C11 UNL     1      -2.266  -2.289   0.523  1.00  0.00     0.014 C 
ENDBRANCH  15  17
ENDBRANCH   1  14
TORSDOF 4
