REMARK  14 active torsions:
REMARK  status: ('A' for Active; 'I' for Inactive)
REMARK    1  A    between atoms: N1_2  and  C2_3 
REMARK    2  A    between atoms: N1_2  and  C23_35 
REMARK    3  A    between atoms: C2_3  and  C3_4 
REMARK    4  A    between atoms: C3_4  and  O1_5 
REMARK    5  A    between atoms: C3_4  and  C4_7 
REMARK    6  A    between atoms: C4_7  and  O2_8 
REMARK    7  A    between atoms: O2_8  and  C5_9 
REMARK    8  A    between atoms: C9_14  and  C10_15 
REMARK    9  A    between atoms: N2_16  and  N3_18 
REMARK       I    between atoms: N3_18  and  C11_20 
REMARK       I    between atoms: C11_20  and  N4_22 
REMARK   10  A    between atoms: N4_22  and  C12_24 
REMARK   11  A    between atoms: C23_35  and  C24_36 
REMARK   12  A    between atoms: C24_36  and  O4_37 
REMARK   13  A    between atoms: O4_37  and  N5_38 
REMARK   14  A    between atoms: N7_43  and  O5_45 
ROOT
HETATM    1  C5  UNL     1      -3.385   0.741   0.406  1.00  0.00     0.070 A 
HETATM    2  C6  UNL     1      -2.958  -0.372   1.118  1.00  0.00     0.055 A 
HETATM    3  C7  UNL     1      -1.649  -0.505   1.490  1.00  0.00     0.014 A 
HETATM    4 BR1  UNL     1      -1.131  -2.052   2.468  1.00  0.00    -0.051 Br
HETATM    5  C8  UNL     1      -0.746   0.487   1.146  1.00  0.00     0.032 A 
HETATM    6  C9  UNL     1      -1.101   1.601   0.451  1.00  0.00    -0.015 A 
HETATM    7  C22 UNL     1      -2.457   1.684   0.096  1.00  0.00     0.049 A 
ENDROOT
BRANCH   1   8
HETATM    8  O2  UNL     1      -4.714   0.866   0.034  1.00  0.00    -0.349 OA
BRANCH   8   9
HETATM    9  C4  UNL     1      -5.181   1.979  -0.686  1.00  0.00     0.208 C 
BRANCH   9  10
HETATM   10  C3  UNL     1      -6.683   1.754  -0.912  1.00  0.00     0.155 C 
BRANCH  10  11
HETATM   11  C2  UNL     1      -6.802   0.509  -1.731  1.00  0.00     0.130 C 
BRANCH  11  12
HETATM   12  N1  UNL     1      -8.141   0.081  -1.990  1.00  0.00    -0.271 NA
HETATM   13  C1  UNL     1      -8.134  -1.121  -2.794  1.00  0.00     0.118 C 
BRANCH  12  14
HETATM   14  C23 UNL     1      -8.953  -0.087  -0.860  1.00  0.00     0.105 C 
HETATM   15  N7  UNL     1      -9.926   0.756  -0.688  1.00  0.00    -0.260 N 
ATOM     16  H7  UNL     1     -10.045   1.492  -1.384  1.00  0.00     0.195 HD
BRANCH  14  17
HETATM   17  C24 UNL     1      -8.779  -1.157   0.138  1.00  0.00     0.274 C 
BRANCH  17  18
HETATM   18  O4  UNL     1      -8.945  -2.431  -0.487  1.00  0.00    -0.258 OA
BRANCH  18  19
HETATM   19  N5  UNL     1      -8.831  -3.594   0.231  1.00  0.00    -0.214 N 
HETATM   20  N6  UNL     1      -8.597  -3.648   1.471  1.00  0.00    -0.326 N 
ATOM     21  H62 UNL     1      -8.488  -2.757   1.956  1.00  0.00     0.178 HD
ATOM     22  H61 UNL     1      -8.512  -4.513   2.005  1.00  0.00     0.178 HD
ATOM     23  H5  UNL     1      -8.943  -4.475  -0.270  1.00  0.00     0.215 HD
ENDBRANCH  18  19
ENDBRANCH  17  18
ENDBRANCH  14  17
BRANCH  15  24
HETATM   24  O5  UNL     1     -10.797   0.726   0.355  1.00  0.00    -0.289 OA
ATOM     25  H5  UNL     1     -11.509   1.343   0.481  1.00  0.00     0.244 HD
ENDBRANCH  15  24
ENDBRANCH  12  14
ENDBRANCH  11  12
ENDBRANCH  10  11
BRANCH  10  26
HETATM   26  O1  UNL     1      -7.250   1.659   0.346  1.00  0.00    -0.392 OA
ATOM     27  H1  UNL     1      -7.174   2.450   0.866  1.00  0.00     0.210 HD
ENDBRANCH  10  26
ENDBRANCH   9  10
ENDBRANCH   8   9
ENDBRANCH   1   8
BRANCH   6  28
HETATM   28  C10 UNL     1      -0.204   2.660   0.082  1.00  0.00     0.118 C 
HETATM   29  N2  UNL     1       0.992   2.817   0.340  1.00  0.00    -0.307 N 
ATOM     30  H2  UNL     1       1.372   3.674  -0.063  1.00  0.00     0.186 HD
BRANCH  29  31
HETATM   31  N3  UNL     1       1.903   2.122   1.026  1.00  0.00    -0.252 N 
HETATM   32  C11 UNL     1       3.133   1.651   0.407  1.00  0.00     0.335 C 
HETATM   33  O3  UNL     1       3.278   1.972  -0.807  1.00  0.00    -0.246 OA
HETATM   34  N4  UNL     1       4.015   0.920   1.150  1.00  0.00    -0.334 N 
ATOM     35  H4  UNL     1       3.715   0.738   2.108  1.00  0.00     0.165 HD
ATOM     36  H3  UNL     1       1.732   1.916   2.010  1.00  0.00     0.191 HD
BRANCH  34  37
HETATM   37  C12 UNL     1       5.299   0.362   0.808  1.00  0.00     0.109 C 
HETATM   38  C13 UNL     1       5.655   0.878  -0.612  1.00  0.00     0.029 C 
HETATM   39  C14 UNL     1       7.142   0.818  -0.874  1.00  0.00     0.002 C 
HETATM   40  C15 UNL     1       7.636  -0.431  -1.527  1.00  0.00     0.000 C 
HETATM   41  C16 UNL     1       9.039  -0.723  -1.021  1.00  0.00     0.000 C 
HETATM   42  C17 UNL     1       9.062  -1.758   0.085  1.00  0.00     0.000 C 
HETATM   43  C18 UNL     1       8.864  -1.192   1.431  1.00  0.00     0.004 C 
HETATM   44  C19 UNL     1       7.570  -1.257   2.117  1.00  0.00     0.027 C 
HETATM   45  C20 UNL     1       6.413  -1.874   1.478  1.00  0.00    -0.029 C 
HETATM   46  C21 UNL     1       5.307  -1.096   0.906  1.00  0.00    -0.006 C 
ENDBRANCH  34  37
ENDBRANCH  29  31
ENDBRANCH   6  28
TORSDOF 14
