REMARK  14 active torsions:
REMARK  status: ('A' for Active; 'I' for Inactive)
REMARK    1  A    between atoms: C4_4  and  N1_5 
REMARK    2  A    between atoms: N1_5  and  S1_7 
REMARK    3  A    between atoms: S1_7  and  C5_10 
REMARK    4  A    between atoms: C10_15  and  C11_16 
REMARK    5  A    between atoms: C11_16  and  N2_17 
REMARK    6  A    between atoms: C17_31  and  N6_32 
REMARK    7  A    between atoms: N6_32  and  C18_34 
REMARK    8  A    between atoms: C18_34  and  C19_35 
REMARK    9  A    between atoms: C19_35  and  C20_36 
REMARK   10  A    between atoms: C20_36  and  C21_37 
REMARK   11  A    between atoms: C21_37  and  C22_38 
REMARK   12  A    between atoms: C22_38  and  C23_39 
REMARK   13  A    between atoms: C23_39  and  N7_40 
REMARK   14  A    between atoms: C27_44  and  N8_45 
ROOT
HETATM    1  C1  UNL     1      -0.252   4.014   1.293  1.00  0.00     0.069 C 
HETATM    2  C2  UNL     1       0.019   2.576   0.944  1.00  0.00     0.026 A 
HETATM    3  C3  UNL     1       1.249   2.075   0.914  1.00  0.00     0.074 A 
HETATM    4  C4  UNL     1       1.491   0.698   0.579  1.00  0.00     0.132 A 
HETATM    5  N5  UNL     1       0.350   0.038   0.312  1.00  0.00    -0.176 N 
ATOM      6  H5  UNL     1       0.440  -0.946   0.061  1.00  0.00     0.186 HD
HETATM    7  C17 UNL     1      -0.902   0.542   0.342  1.00  0.00     0.679 A 
HETATM    8  N9  UNL     1      -1.086   1.817   0.658  1.00  0.00    -0.196 N 
ATOM      9  H9  UNL     1      -2.022   2.221   0.687  1.00  0.00     0.184 HD
ENDROOT
BRANCH   4  10
HETATM   10  N1  UNL     1       2.660   0.324   0.624  1.00  0.00    -0.265 N 
ATOM     11  H1  UNL     1       3.299   1.070   0.898  1.00  0.00     0.180 HD
BRANCH  10  12
HETATM   12  S1  UNL     1       3.451  -1.130   0.340  1.00  0.00     0.264 S 
HETATM   13  O1  UNL     1       3.642  -1.516  -1.077  1.00  0.00    -0.200 OA
HETATM   14  O2  UNL     1       2.684  -2.263   1.015  1.00  0.00    -0.200 OA
BRANCH  12  15
HETATM   15  C5  UNL     1       4.997  -0.981   1.210  1.00  0.00     0.080 A 
HETATM   16  C6  UNL     1       5.110  -1.351   2.510  1.00  0.00     0.026 A 
HETATM   17  C7  UNL     1       6.284  -1.107   3.240  1.00  0.00     0.009 A 
HETATM   18  C8  UNL     1       7.352  -0.484   2.643  1.00  0.00    -0.054 A 
HETATM   19  C9  UNL     1       8.586  -0.141   3.428  1.00  0.00     0.049 C 
HETATM   20  C10 UNL     1       7.236  -0.117   1.320  1.00  0.00    -0.033 A 
HETATM   21  C16 UNL     1       6.065  -0.361   0.595  1.00  0.00     0.034 A 
BRANCH  20  22
HETATM   22  C11 UNL     1       8.362   0.648   0.701  1.00  0.00     0.160 C 
BRANCH  22  23
HETATM   23  N2  UNL     1       9.555  -0.141   0.804  1.00  0.00    -0.372 N 
HETATM   24  C12 UNL     1      10.643  -0.066   0.168  1.00  0.00     0.105 A 
HETATM   25  C13 UNL     1      10.883   0.854  -0.814  1.00  0.00     0.090 A 
HETATM   26  N4  UNL     1      11.619  -0.937   0.568  1.00  0.00    -0.339 N 
HETATM   27  C14 UNL     1      12.135   0.893  -1.401  1.00  0.00     0.107 A 
HETATM   28 CL1  UNL     1      12.503   2.031  -2.669  1.00  0.00    -0.064 Cl
HETATM   29  N3  UNL     1      13.053   0.014  -0.966  1.00  0.00    -0.343 N 
HETATM   30  C15 UNL     1      12.843  -0.905   0.002  1.00  0.00     0.183 A 
ATOM     31  H3  UNL     1      13.976   0.042  -1.398  1.00  0.00     0.167 HD
ATOM     32  H4  UNL     1      11.419  -1.617   1.301  1.00  0.00     0.168 HD
ATOM     33  H2  UNL     1       9.519  -0.882   1.504  1.00  0.00     0.161 HD
ENDBRANCH  22  23
ENDBRANCH  20  22
ENDBRANCH  12  15
ENDBRANCH  10  12
ENDBRANCH   4  10
BRANCH   7  34
HETATM   34  N6  UNL     1      -1.908  -0.276   0.054  1.00  0.00    -0.226 N 
ATOM     35  H6  UNL     1      -1.689  -1.244  -0.182  1.00  0.00     0.177 HD
BRANCH  34  36
HETATM   36  C18 UNL     1      -3.265   0.118   0.056  1.00  0.00     0.138 C 
BRANCH  36  37
HETATM   37  C19 UNL     1      -3.945  -0.150  -1.254  1.00  0.00     0.020 C 
BRANCH  37  38
HETATM   38  C20 UNL     1      -3.979  -1.608  -1.552  1.00  0.00     0.002 C 
BRANCH  38  39
HETATM   39  C21 UNL     1      -4.752  -1.816  -2.871  1.00  0.00     0.002 C 
BRANCH  39  40
HETATM   40  C22 UNL     1      -6.150  -1.191  -2.740  1.00  0.00     0.030 C 
BRANCH  40  41
HETATM   41  C23 UNL     1      -6.900  -1.762  -1.581  1.00  0.00     0.272 C 
BRANCH  41  42
HETATM   42  N7  UNL     1      -8.202  -1.132  -1.410  1.00  0.00     0.090 N 
HETATM   43  C24 UNL     1      -8.773  -1.823  -0.236  1.00  0.00     0.272 C 
HETATM   44  C25 UNL     1      -9.540  -0.896   0.652  1.00  0.00     0.032 C 
HETATM   45  C26 UNL     1     -10.335   0.102  -0.146  1.00  0.00     0.036 C 
HETATM   46  C27 UNL     1      -9.424   0.889  -1.039  1.00  0.00     0.211 C 
HETATM   47  C28 UNL     1      -8.048   0.275  -1.006  1.00  0.00     0.305 C 
BRANCH  46  48
HETATM   48  N8  UNL     1      -9.418   2.299  -0.677  1.00  0.00    -0.073 N 
ATOM     49  H83 UNL     1     -10.361   2.687  -0.668  1.00  0.00     0.274 HD
ATOM     50  H82 UNL     1      -9.185   2.432   0.307  1.00  0.00     0.274 HD
ATOM     51  H81 UNL     1      -8.798   2.835  -1.285  1.00  0.00     0.274 HD
ENDBRANCH  46  48
ENDBRANCH  41  42
ENDBRANCH  40  41
ENDBRANCH  39  40
ENDBRANCH  38  39
ENDBRANCH  37  38
ENDBRANCH  36  37
ENDBRANCH  34  36
ENDBRANCH   7  34
TORSDOF 14
