REMARK  8 active torsions:
REMARK  status: ('A' for Active; 'I' for Inactive)
REMARK    1  A    between atoms: C1_2  and  C2_4 
REMARK    2  A    between atoms: C2_4  and  O4_6 
REMARK    3  A    between atoms: O4_6  and  C3_7 
REMARK    4  A    between atoms: C7_11  and  C8_12 
REMARK    5  A    between atoms: C8_12  and  O5_13 
REMARK    6  A    between atoms: N1_15  and  O6_17 
REMARK    7  A    between atoms: C9_22  and  O7_23 
REMARK    8  A    between atoms: N3_26  and  O8_28 
ROOT
HETATM    1  C3  UNL     1      -0.398   2.159  -0.261  1.00  0.00     0.156 C 
HETATM    2  C4  UNL     1       0.414   1.760  -1.460  1.00  0.00     0.035 C 
HETATM    3  C5  UNL     1       1.823   1.462  -0.996  1.00  0.00     0.005 C 
HETATM    4  C6  UNL     1       2.161  -0.013  -1.182  1.00  0.00     0.042 C 
HETATM    5  C7  UNL     1       2.904  -0.555   0.038  1.00  0.00     0.265 C 
HETATM    6  N2  UNL     1       2.515  -1.922   0.320  1.00  0.00    -0.032 N 
ATOM      7  H21 UNL     1       3.307  -2.504   0.593  1.00  0.00     0.281 HD
ATOM      8  H22 UNL     1       2.248  -2.432  -0.522  1.00  0.00     0.281 HD
HETATM    9  C9  UNL     1       1.466  -1.914   1.317  1.00  0.00     0.368 C 
HETATM   10  C10 UNL     1       0.416  -2.935   1.070  1.00  0.00     0.067 C 
HETATM   11  N3  UNL     1       0.686  -4.028   0.477  1.00  0.00    -0.273 N 
ATOM     12  H3  UNL     1      -0.061  -4.705   0.324  1.00  0.00     0.193 HD
HETATM   13  C11 UNL     1      -0.980  -2.651   1.536  1.00  0.00     0.079 C 
HETATM   14  C12 UNL     1      -1.378  -1.332   0.966  1.00  0.00     0.126 C 
HETATM   15  N4  UNL     1      -2.808  -1.183   0.795  1.00  0.00    -0.387 N 
ATOM     16  H4  UNL     1      -3.378  -1.195   1.641  1.00  0.00     0.159 HD
HETATM   17  C13 UNL     1      -3.493  -1.021  -0.440  1.00  0.00     0.061 A 
HETATM   18  C14 UNL     1      -4.574  -1.848  -0.662  1.00  0.00     0.032 A 
HETATM   19  C15 UNL     1      -5.332  -1.837  -1.830  1.00  0.00     0.002 A 
HETATM   20  C16 UNL     1      -4.991  -0.957  -2.820  1.00  0.00     0.003 A 
HETATM   21  C17 UNL     1      -3.915  -0.129  -2.605  1.00  0.00     0.039 A 
HETATM   22  C18 UNL     1      -3.141  -0.127  -1.433  1.00  0.00     0.095 A 
HETATM   23  O9  UNL     1      -2.076   0.750  -1.304  1.00  0.00    -0.346 OA
HETATM   24  C19 UNL     1      -1.850   1.761  -0.375  1.00  0.00     0.208 C 
ENDROOT
BRANCH   5  25
HETATM   25  C8  UNL     1       4.370  -0.493  -0.226  1.00  0.00     0.167 C 
HETATM   26  N1  UNL     1       5.127   0.205   0.541  1.00  0.00    -0.249 N 
ATOM     27  H1  UNL     1       6.127   0.237   0.344  1.00  0.00     0.196 HD
BRANCH  25  28
HETATM   28  O5  UNL     1       4.935  -1.169  -1.280  1.00  0.00    -0.347 OA
ATOM     29  H5  UNL     1       5.869  -1.129  -1.448  1.00  0.00     0.219 HD
ENDBRANCH  25  28
BRANCH  26  30
HETATM   30  O6  UNL     1       4.650   0.903   1.604  1.00  0.00    -0.288 OA
ATOM     31  H6  UNL     1       5.210   1.419   2.172  1.00  0.00     0.244 HD
ENDBRANCH  26  30
ENDBRANCH   5  25
BRANCH   9  32
HETATM   32  O7  UNL     1       1.998  -2.193   2.598  1.00  0.00    -0.365 OA
ATOM     33  H7  UNL     1       1.309  -2.188   3.252  1.00  0.00     0.212 HD
ENDBRANCH   9  32
BRANCH   1  34
HETATM   34  O4  UNL     1      -0.318   3.517   0.042  1.00  0.00    -0.305 OA
BRANCH  34  35
HETATM   35  C2  UNL     1       0.177   4.069   1.191  1.00  0.00     0.360 C 
HETATM   36  O3  UNL     1       0.607   3.283   2.074  1.00  0.00    -0.252 OA
BRANCH  35  37
HETATM   37  C1  UNL     1       0.187   5.512   1.347  1.00  0.00     0.277 C 
HETATM   38  O1  UNL     1      -0.252   6.242   0.437  1.00  0.00    -0.640 OA
HETATM   39  O2  UNL     1       0.703   6.051   2.542  1.00  0.00    -0.640 OA
ENDBRANCH  35  37
ENDBRANCH  34  35
ENDBRANCH   1  34
BRANCH  11  40
HETATM   40  O8  UNL     1       1.944  -4.322   0.039  1.00  0.00    -0.290 OA
ATOM     41  H8  UNL     1       2.146  -5.138  -0.404  1.00  0.00     0.244 HD
ENDBRANCH  11  40
TORSDOF 8
