REMARK  5 active torsions:
REMARK  status: ('A' for Active; 'I' for Inactive)
REMARK    1  A    between atoms: C2_2  and  O1_4 
REMARK    2  A    between atoms: O1_4  and  C4_5 
REMARK    3  A    between atoms: C11_12  and  C12_13 
REMARK       I    between atoms: C12_13  and  N1_15 
REMARK    4  A    between atoms: N1_15  and  C13_17 
REMARK    5  A    between atoms: C13_17  and  C14_18 
ROOT
HETATM    1  C4  UNL     1       2.274   0.180   1.151  1.00  0.00     0.161 C 
HETATM    2  C5  UNL     1       2.486   1.687   1.316  1.00  0.00     0.112 C 
HETATM    3  C6  UNL     1       3.467   2.320   0.415  1.00  0.00     0.028 C 
HETATM    4  C7  UNL     1       3.696   1.705  -0.914  1.00  0.00     0.007 C 
HETATM    5  C8  UNL     1       3.070   0.365  -1.152  1.00  0.00    -0.006 C 
HETATM    6  C9  UNL     1       2.763   0.203  -2.634  1.00  0.00     0.011 C 
HETATM    7  C10 UNL     1       1.793   0.182  -0.336  1.00  0.00     0.076 C 
HETATM    8  C11 UNL     1       1.052   1.428  -0.414  1.00  0.00     0.081 C 
HETATM    9  N2  UNL     1       1.143   2.185   0.834  1.00  0.00    -0.381 N 
ATOM     10  H2  UNL     1       0.494   2.850   1.254  1.00  0.00     0.160 HD
ENDROOT
BRANCH   8  11
HETATM   11  C12 UNL     1      -0.274   1.431  -1.005  1.00  0.00     0.264 C 
HETATM   12  O2  UNL     1      -0.536   2.072  -2.064  1.00  0.00    -0.266 OA
HETATM   13  N1  UNL     1      -1.335   0.671  -0.342  1.00  0.00    -0.356 N 
ATOM     14  H1  UNL     1      -1.199   0.143   0.520  1.00  0.00     0.162 HD
BRANCH  13  15
HETATM   15  C13 UNL     1      -2.595   0.752  -1.043  1.00  0.00     0.127 C 
BRANCH  15  16
HETATM   16  C14 UNL     1      -3.786   0.212  -0.339  1.00  0.00     0.003 C 
HETATM   17  C15 UNL     1      -4.956   0.328  -1.286  1.00  0.00     0.006 C 
HETATM   18  C16 UNL     1      -6.221  -0.220  -0.686  1.00  0.00     0.000 C 
HETATM   19  C17 UNL     1      -6.022  -1.646  -0.215  1.00  0.00     0.000 C 
HETATM   20  C18 UNL     1      -4.595  -2.086  -0.350  1.00  0.00     0.000 C 
HETATM   21  C19 UNL     1      -3.709  -1.082   0.356  1.00  0.00     0.006 C 
ENDBRANCH  15  16
ENDBRANCH  13  15
ENDBRANCH   8  11
BRANCH   1  22
HETATM   22  O1  UNL     1       3.205  -0.644   1.475  1.00  0.00    -0.349 OA
BRANCH  22  23
HETATM   23  C2  UNL     1       3.985  -1.640   1.739  1.00  0.00     0.034 C 
HETATM   24  C1  UNL     1       4.440  -2.574   0.922  1.00  0.00     0.045 C 
HETATM   25  C3  UNL     1       4.544  -1.879   3.175  1.00  0.00     0.075 C 
ENDBRANCH  22  23
ENDBRANCH   1  22
TORSDOF 5
