REMARK  11 active torsions:
REMARK  status: ('A' for Active; 'I' for Inactive)
REMARK    1  A    between atoms: C1_4  and  C2_6 
REMARK    2  A    between atoms: C4_10  and  C5_11 
REMARK       I    between atoms: C5_11  and  N4_13 
REMARK    3  A    between atoms: N4_13  and  C6_15 
REMARK    4  A    between atoms: N6_19  and  C8_21 
REMARK    5  A    between atoms: C8_21  and  C9_22 
REMARK    6  A    between atoms: C9_22  and  O2_23 
REMARK    7  A    between atoms: O2_23  and  C10_24 
REMARK    8  A    between atoms: C10_24  and  C11_25 
REMARK    9  A    between atoms: C11_25  and  N7_26 
REMARK   10  A    between atoms: C18_38  and  N10_39 
REMARK   11  A    between atoms: C19_42  and  O3_43 
ROOT
HETATM    1  C6  UNL     1       3.738  -1.758  -1.482  1.00  0.00     0.150 C 
HETATM    2  N5  UNL     1       2.603  -1.181  -1.008  1.00  0.00    -0.174 N 
ATOM      3  H5  UNL     1       2.657  -0.843  -0.047  1.00  0.00     0.186 HD
HETATM    4  C7  UNL     1       1.397  -0.986  -1.628  1.00  0.00     0.679 C 
HETATM    5  N6  UNL     1       0.637  -0.129  -1.078  1.00  0.00    -0.224 N 
ATOM      6  H6  UNL     1       0.977   0.336  -0.236  1.00  0.00     0.177 HD
HETATM    7  N9  UNL     1       1.020  -1.642  -2.743  1.00  0.00    -0.202 N 
ATOM      8  H9  UNL     1       0.037  -1.908  -2.792  1.00  0.00     0.183 HD
HETATM    9  C16 UNL     1       1.787  -1.995  -3.815  1.00  0.00     0.108 C 
HETATM   10  C17 UNL     1       3.162  -2.135  -3.861  1.00  0.00     0.050 C 
HETATM   11  C18 UNL     1       4.016  -2.175  -2.768  1.00  0.00     0.072 C 
ENDROOT
BRANCH   1  12
HETATM   12  N4  UNL     1       4.689  -1.951  -0.634  1.00  0.00    -0.306 N 
HETATM   13  C5  UNL     1       4.553  -1.575   0.735  1.00  0.00     0.262 C 
HETATM   14  O1  UNL     1       3.866  -2.238   1.531  1.00  0.00    -0.267 OA
ATOM     15  H4  UNL     1       5.558  -2.382  -0.949  1.00  0.00     0.170 HD
BRANCH  13  16
HETATM   16  C4  UNL     1       5.262  -0.352   1.200  1.00  0.00     0.098 A 
HETATM   17  C3  UNL     1       5.147   0.034   2.515  1.00  0.00     0.106 A 
HETATM   18  S1  UNL     1       6.094   1.438   2.605  1.00  0.00    -0.068 SA
HETATM   19  N3  UNL     1       4.397  -0.603   3.576  1.00  0.00    -0.093 NA
HETATM   20  C2  UNL     1       6.627   1.516   0.963  1.00  0.00     0.081 A 
HETATM   21  C19 UNL     1       6.029   0.424   0.414  1.00  0.00     0.104 A 
BRANCH  20  22
HETATM   22  C1  UNL     1       7.509   2.540   0.370  1.00  0.00     0.130 C 
HETATM   23  N1  UNL     1       7.883   2.583  -0.820  1.00  0.00    -0.387 N 
ATOM     24  H12 UNL     1       8.493   3.291  -1.230  1.00  0.00     0.157 HD
ATOM     25  H11 UNL     1       7.551   1.849  -1.445  1.00  0.00     0.157 HD
HETATM   26  N2  UNL     1       7.980   3.580   1.256  1.00  0.00    -0.082 NA
ENDBRANCH  20  22
BRANCH  21  27
HETATM   27  O3  UNL     1       6.240   0.148  -0.969  1.00  0.00    -0.358 OA
ATOM     28  H3  UNL     1       5.822  -0.614  -1.352  1.00  0.00     0.217 HD
ENDBRANCH  21  27
ENDBRANCH  13  16
ENDBRANCH   1  12
BRANCH  11  29
HETATM   29  N10 UNL     1       5.191  -2.656  -2.991  1.00  0.00    -0.396 N 
ATOM     30 2H10 UNL     1       5.819  -2.685  -2.188  1.00  0.00     0.156 HD
ATOM     31 1H10 UNL     1       5.396  -2.964  -3.941  1.00  0.00     0.156 HD
ENDBRANCH  11  29
BRANCH   5  32
HETATM   32  C8  UNL     1      -0.654   0.227  -1.555  1.00  0.00     0.164 C 
BRANCH  32  33
HETATM   33  C9  UNL     1      -1.679  -0.104  -0.458  1.00  0.00     0.187 C 
BRANCH  33  34
HETATM   34  O2  UNL     1      -2.966   0.217  -0.850  1.00  0.00    -0.388 OA
BRANCH  34  35
HETATM   35  C10 UNL     1      -3.797  -0.117   0.234  1.00  0.00     0.187 C 
BRANCH  35  36
HETATM   36  C11 UNL     1      -5.243   0.192  -0.079  1.00  0.00     0.143 C 
BRANCH  36  37
HETATM   37  N7  UNL     1      -6.059  -0.153   1.032  1.00  0.00    -0.407 N 
HETATM   38  C12 UNL     1      -5.925   0.622   2.207  1.00  0.00     0.144 C 
HETATM   39  C13 UNL     1      -6.955   1.710   2.361  1.00  0.00     0.251 C 
HETATM   40  N8  UNL     1      -7.848   1.801   1.235  1.00  0.00    -0.072 N 
HETATM   41  C14 UNL     1      -8.406   0.541   0.843  1.00  0.00     0.251 C 
ATOM     42  H82 UNL     1      -8.586   2.482   1.414  1.00  0.00     0.277 HD
ATOM     43  H81 UNL     1      -7.387   2.253   0.445  1.00  0.00     0.277 HD
HETATM   44  C15 UNL     1      -7.394  -0.553   0.706  1.00  0.00     0.144 C 
ENDBRANCH  36  37
ENDBRANCH  35  36
ENDBRANCH  34  35
ENDBRANCH  33  34
ENDBRANCH  32  33
ENDBRANCH   5  32
TORSDOF 11
