REMARK  8 active torsions:
REMARK  status: ('A' for Active; 'I' for Inactive)
REMARK    1  A    between atoms: C2_2  and  C3_3 
REMARK    2  A    between atoms: C3_3  and  C4_4 
REMARK    3  A    between atoms: C4_4  and  N1_5 
REMARK    4  A    between atoms: N1_5  and  C6_7 
REMARK    5  A    between atoms: N1_5  and  C11_12 
REMARK    6  A    between atoms: C6_7  and  C7_8 
REMARK    7  A    between atoms: C12_14  and  C13_15 
REMARK    8  A    between atoms: C17_26  and  C18_27 
ROOT
HETATM    1  C11 UNL     1       0.775  -0.289  -0.241  1.00  0.00     0.290 C 
HETATM    2  S1  UNL     1       1.512   1.278   0.222  1.00  0.00    -0.094 SA
HETATM    3  C12 UNL     1       2.952   1.137  -0.911  1.00  0.00     0.301 C 
HETATM    4  N3  UNL     1       2.880  -0.205  -1.352  1.00  0.00    -0.043 N 
ATOM      5  H31 UNL     1       3.444  -0.819  -0.764  1.00  0.00     0.280 HD
ATOM      6  H32 UNL     1       3.373  -0.331  -2.236  1.00  0.00     0.280 HD
HETATM    7  C17 UNL     1       1.539  -0.664  -1.440  1.00  0.00     0.289 C 
ENDROOT
BRANCH   1   8
HETATM    8  N1  UNL     1      -0.668  -0.245  -0.366  1.00  0.00    -0.055 N 
HETATM    9  C5  UNL     1      -1.019  -0.148  -1.776  1.00  0.00     0.274 C 
BRANCH   8  10
HETATM   10  C4  UNL     1      -1.096   1.058   0.136  1.00  0.00     0.238 C 
BRANCH  10  11
HETATM   11  C3  UNL     1      -1.159   1.209   1.605  1.00  0.00     0.028 C 
BRANCH  11  12
HETATM   12  C2  UNL     1      -1.604   2.656   1.900  1.00  0.00    -0.003 C 
HETATM   13  C1  UNL     1      -2.960   2.927   1.295  1.00  0.00     0.005 C 
ENDBRANCH  11  12
ENDBRANCH  10  11
ENDBRANCH   8  10
BRANCH   8  14
HETATM   14  C6  UNL     1      -1.211  -1.335   0.321  1.00  0.00     0.246 C 
BRANCH  14  15
HETATM   15  C7  UNL     1      -2.484  -1.972  -0.006  1.00  0.00    -0.027 C 
HETATM   16  C8  UNL     1      -3.742  -1.189   0.027  1.00  0.00     0.016 C 
HETATM   17  C9  UNL     1      -2.644  -3.038   1.118  1.00  0.00     0.016 C 
HETATM   18  C10 UNL     1      -2.506  -2.829  -1.266  1.00  0.00     0.016 C 
ENDBRANCH  14  15
ENDBRANCH   8  14
ENDBRANCH   1   8
BRANCH   7  19
HETATM   19  C18 UNL     1       1.571  -2.128  -1.599  1.00  0.00     0.267 C 
HETATM   20  O1  UNL     1       2.633  -2.707  -1.621  1.00  0.00    -0.305 OA
ENDBRANCH   7  19
BRANCH   3  21
HETATM   21  C13 UNL     1       4.199   1.369  -0.180  1.00  0.00     0.069 A 
HETATM   22  N2  UNL     1       4.354   2.373   0.733  1.00  0.00    -0.347 N 
HETATM   23  C14 UNL     1       5.612   2.328   1.247  1.00  0.00     0.105 A 
ATOM     24  H2  UNL     1       3.637   3.052   0.990  1.00  0.00     0.167 HD
HETATM   25 CL1  UNL     1       6.290   3.409   2.454  1.00  0.00    -0.065 Cl
HETATM   26  C15 UNL     1       6.287   1.287   0.668  1.00  0.00     0.063 A 
HETATM   27  C16 UNL     1       5.394   0.705  -0.213  1.00  0.00     0.039 A 
HETATM   28 BR1  UNL     1       5.858  -0.808  -1.296  1.00  0.00    -0.049 Br
ENDBRANCH   3  21
TORSDOF 8
