REMARK  13 active torsions:
REMARK  status: ('A' for Active; 'I' for Inactive)
REMARK    1  A    between atoms: O1_2  and  C2_3 
REMARK    2  A    between atoms: C2_3  and  C3_4 
REMARK    3  A    between atoms: C3_4  and  C4_5 
REMARK    4  A    between atoms: C4_5  and  N1_6 
REMARK    5  A    between atoms: C6_10  and  N3_11 
REMARK    6  A    between atoms: C8_13  and  C9_14 
REMARK       I    between atoms: C9_14  and  N4_16 
REMARK    7  A    between atoms: N4_16  and  C10_18 
REMARK    8  A    between atoms: C14_22  and  C15_23 
REMARK       I    between atoms: C15_23  and  N5_25 
REMARK    9  A    between atoms: N5_25  and  C16_27 
REMARK   10  A    between atoms: C16_27  and  C17_28 
REMARK       I    between atoms: C17_28  and  N6_30 
REMARK   11  A    between atoms: C18_32  and  C19_33 
REMARK   12  A    between atoms: C28_42  and  C29_43 
REMARK   13  A    between atoms: C29_43  and  O5_44 
ROOT
HETATM    1  N3  UNL     1       3.334   0.013  -0.344  1.00  0.00    -0.363 N 
HETATM    2  C7  UNL     1       3.598  -1.339   0.081  1.00  0.00     0.139 C 
HETATM    3  C8  UNL     1       2.365  -2.078  -0.334  1.00  0.00     0.110 C 
HETATM    4  C14 UNL     1       1.998  -1.403  -1.644  1.00  0.00     0.110 C 
HETATM    5  C31 UNL     1       2.624  -0.042  -1.587  1.00  0.00     0.139 C 
ENDROOT
BRANCH   4   6
HETATM    6  C15 UNL     1       0.516  -1.267  -1.644  1.00  0.00     0.225 C 
HETATM    7  O3  UNL     1      -0.076  -1.771  -2.624  1.00  0.00    -0.273 OA
HETATM    8  N5  UNL     1      -0.105  -0.596  -0.567  1.00  0.00    -0.342 N 
ATOM      9  H5  UNL     1       0.501  -0.228   0.166  1.00  0.00     0.163 HD
BRANCH   8  10
HETATM   10  C16 UNL     1      -1.535  -0.386  -0.416  1.00  0.00     0.119 C 
HETATM   11  C25 UNL     1      -2.164   0.278  -1.582  1.00  0.00     0.041 C 
HETATM   12  C26 UNL     1      -3.192  -0.656  -2.145  1.00  0.00     0.004 C 
HETATM   13  C27 UNL     1      -3.439  -1.701  -1.093  1.00  0.00     0.010 C 
HETATM   14  C28 UNL     1      -2.143  -1.763  -0.346  1.00  0.00     0.047 C 
BRANCH  10  15
HETATM   15  C17 UNL     1      -1.795   0.415   0.812  1.00  0.00     0.250 C 
HETATM   16  O4  UNL     1      -0.786   0.724   1.524  1.00  0.00    -0.270 OA
HETATM   17  N6  UNL     1      -3.091   0.835   1.203  1.00  0.00    -0.338 N 
HETATM   18  C18 UNL     1      -3.382   2.074   1.421  1.00  0.00     0.068 C 
ATOM     19  H6  UNL     1      -3.821   0.132   1.316  1.00  0.00     0.167 HD
BRANCH  18  20
HETATM   20  C19 UNL     1      -4.743   2.429   1.822  1.00  0.00     0.024 C 
HETATM   21  C20 UNL     1      -5.020   3.895   1.514  1.00  0.00     0.010 C 
HETATM   22  C21 UNL     1      -6.546   4.040   1.579  1.00  0.00     0.001 C 
HETATM   23  C22 UNL     1      -7.050   3.440   0.267  1.00  0.00     0.000 C 
HETATM   24  C23 UNL     1      -6.552   2.044   0.122  1.00  0.00     0.001 C 
HETATM   25  C24 UNL     1      -5.800   1.515   1.299  1.00  0.00     0.010 C 
ENDBRANCH  18  20
ENDBRANCH  10  15
BRANCH  14  26
HETATM   26  C29 UNL     1      -2.345  -2.280   1.064  1.00  0.00     0.174 C 
BRANCH  26  27
HETATM   27  O5  UNL     1      -2.916  -3.569   0.889  1.00  0.00    -0.395 OA
HETATM   28  C30 UNL     1      -3.151  -4.149   2.131  1.00  0.00     0.201 C 
ENDBRANCH  26  27
ENDBRANCH  14  26
ENDBRANCH   8  10
ENDBRANCH   4   6
BRANCH   3  29
HETATM   29  C9  UNL     1       2.642  -3.523  -0.479  1.00  0.00     0.225 C 
HETATM   30  O2  UNL     1       3.799  -3.940  -0.247  1.00  0.00    -0.273 OA
HETATM   31  N4  UNL     1       1.651  -4.464  -0.871  1.00  0.00    -0.353 N 
ATOM     32  H4  UNL     1       0.711  -4.115  -1.060  1.00  0.00     0.163 HD
BRANCH  31  33
HETATM   33  C10 UNL     1       1.882  -5.863  -1.018  1.00  0.00     0.022 C 
HETATM   34  C11 UNL     1       0.596  -6.534  -1.453  1.00  0.00     0.037 C 
HETATM   35  C12 UNL     1       2.913  -6.187  -2.082  1.00  0.00     0.037 C 
HETATM   36  C13 UNL     1       2.323  -6.523   0.269  1.00  0.00     0.037 C 
ENDBRANCH  31  33
ENDBRANCH   3  29
BRANCH   1  37
HETATM   37  C6  UNL     1       3.725   1.174   0.376  1.00  0.00     0.136 A 
HETATM   38  C5  UNL     1       4.390   1.282   1.577  1.00  0.00     0.158 A 
HETATM   39  N2  UNL     1       4.537   2.593   1.862  1.00  0.00    -0.292 N 
HETATM   40  N1  UNL     1       3.983   3.300   0.872  1.00  0.00    -0.233 N 
ATOM     41  H2  UNL     1       4.992   2.978   2.690  1.00  0.00     0.188 HD
HETATM   42  N7  UNL     1       3.497   2.431  -0.018  1.00  0.00    -0.268 N 
ATOM     43  H7  UNL     1       3.018   2.691  -0.880  1.00  0.00     0.190 HD
BRANCH  40  44
HETATM   44  C4  UNL     1       3.931   4.742   0.808  1.00  0.00     0.171 C 
BRANCH  44  45
HETATM   45  C3  UNL     1       5.186   5.223   0.093  1.00  0.00     0.050 C 
BRANCH  45  46
HETATM   46  C2  UNL     1       5.221   6.711  -0.022  1.00  0.00     0.168 C 
BRANCH  46  47
HETATM   47  O1  UNL     1       6.363   7.127  -0.680  1.00  0.00    -0.396 OA
HETATM   48  C1  UNL     1       7.543   6.775  -0.058  1.00  0.00     0.201 C 
ENDBRANCH  46  47
ENDBRANCH  45  46
ENDBRANCH  44  45
ENDBRANCH  40  44
ENDBRANCH   1  37
TORSDOF 13
