REMARK  14 active torsions:
REMARK  status: ('A' for Active; 'I' for Inactive)
REMARK    1  A    between atoms: O1_2  and  C2_3 
REMARK    2  A    between atoms: C2_3  and  C3_4 
REMARK       I    between atoms: C3_4  and  N1_6 
REMARK    3  A    between atoms: C6_9  and  C7_10 
REMARK    4  A    between atoms: C9_12  and  O3_13 
REMARK    5  A    between atoms: O3_13  and  C10_14 
REMARK    6  A    between atoms: C13_17  and  N2_18 
REMARK    7  A    between atoms: N2_18  and  C14_20 
REMARK    8  A    between atoms: C17_27  and  N5_28 
REMARK    9  A    between atoms: N5_28  and  C18_30 
REMARK   10  A    between atoms: C18_30  and  C19_31 
REMARK   11  A    between atoms: C19_31  and  C20_32 
REMARK   12  A    between atoms: C20_32  and  N6_33 
REMARK   13  A    between atoms: C26_42  and  O4_43 
REMARK   14  A    between atoms: O4_43  and  C27_44 
ROOT
HETATM    1  C7  UNL     1      -4.550  -0.376  -0.585  1.00  0.00    -0.048 A 
HETATM    2  C8  UNL     1      -3.793  -0.613  -1.688  1.00  0.00     0.047 A 
HETATM    3  C9  UNL     1      -2.442  -1.024  -1.646  1.00  0.00     0.099 A 
HETATM    4  C13 UNL     1      -1.899  -1.179  -0.399  1.00  0.00     0.116 A 
HETATM    5  C26 UNL     1      -2.614  -0.958   0.779  1.00  0.00     0.100 A 
HETATM    6  C30 UNL     1      -3.968  -0.547   0.632  1.00  0.00     0.047 A 
ENDROOT
BRANCH   4   7
HETATM    7  N2  UNL     1      -0.508  -1.503  -0.323  1.00  0.00    -0.185 N 
ATOM      8  H2  UNL     1      -0.220  -2.481  -0.338  1.00  0.00     0.184 HD
BRANCH   7   9
HETATM    9  C14 UNL     1       0.393  -0.574  -0.235  1.00  0.00     0.698 A 
HETATM   10  N3  UNL     1       0.033   0.704  -0.212  1.00  0.00    -0.180 N 
HETATM   11  C15 UNL     1       1.009   1.636  -0.117  1.00  0.00     0.109 A 
ATOM     12  H3  UNL     1      -0.949   0.975  -0.264  1.00  0.00     0.185 HD
HETATM   13  C16 UNL     1       0.719   3.087  -0.086  1.00  0.00     0.090 C 
HETATM   14  N4  UNL     1       2.308   1.268  -0.048  1.00  0.00    -0.180 N 
HETATM   15  C17 UNL     1       2.681  -0.021  -0.071  1.00  0.00     0.694 A 
ATOM     16  H4  UNL     1       3.025   1.990   0.024  1.00  0.00     0.185 HD
HETATM   17  N8  UNL     1       1.675  -0.920  -0.166  1.00  0.00    -0.022 N 
ATOM     18  H8  UNL     1       1.911  -1.912  -0.186  1.00  0.00     0.203 HD
BRANCH  15  19
HETATM   19  N5  UNL     1       3.904  -0.395  -0.002  1.00  0.00    -0.225 N 
ATOM     20  H5  UNL     1       4.139  -1.387  -0.023  1.00  0.00     0.177 HD
BRANCH  19  21
HETATM   21  C18 UNL     1       4.947   0.596   0.106  1.00  0.00     0.143 C 
BRANCH  21  22
HETATM   22  C19 UNL     1       6.309  -0.095   0.275  1.00  0.00     0.065 C 
BRANCH  22  23
HETATM   23  C20 UNL     1       7.343   0.963   0.388  1.00  0.00     0.069 C 
BRANCH  23  24
HETATM   24  N6  UNL     1       8.667   0.542   0.553  1.00  0.00    -0.351 N 
HETATM   25  C21 UNL     1       9.328  -0.119  -0.497  1.00  0.00     0.098 C 
HETATM   26  C22 UNL     1      10.481  -0.991  -0.058  1.00  0.00     0.317 C 
HETATM   27  N7  UNL     1      10.519  -1.163   1.382  1.00  0.00     0.093 N 
HETATM   28  C23 UNL     1      11.705  -1.916   1.715  1.00  0.00     0.310 C 
HETATM   29  C24 UNL     1      10.639   0.177   1.960  1.00  0.00     0.317 C 
HETATM   30  C25 UNL     1       9.416   1.009   1.648  1.00  0.00     0.098 C 
ENDBRANCH  23  24
ENDBRANCH  22  23
ENDBRANCH  21  22
ENDBRANCH  19  21
ENDBRANCH  15  19
ENDBRANCH   7   9
ENDBRANCH   4   7
BRANCH   3  31
HETATM   31  O3  UNL     1      -1.889  -1.205  -2.853  1.00  0.00    -0.344 OA
BRANCH  31  32
HETATM   32  C10 UNL     1      -0.724  -1.634  -3.355  1.00  0.00     0.120 C 
HETATM   33  C11 UNL     1      -0.958  -2.699  -4.482  1.00  0.00     0.040 C 
HETATM   34  C12 UNL     1       0.036  -0.519  -4.097  1.00  0.00     0.040 C 
ENDBRANCH  31  32
ENDBRANCH   3  31
BRANCH   5  35
HETATM   35  O4  UNL     1      -2.140  -1.103   2.022  1.00  0.00    -0.344 OA
BRANCH  35  36
HETATM   36  C27 UNL     1      -1.120  -1.470   2.799  1.00  0.00     0.129 A 
HETATM   37  C28 UNL     1      -1.341  -2.072   4.176  1.00  0.00     0.035 A 
HETATM   38  C29 UNL     1      -0.685  -0.726   4.018  1.00  0.00     0.035 A 
ENDBRANCH  35  36
ENDBRANCH   5  35
BRANCH   1  39
HETATM   39  C6  UNL     1      -5.998   0.051  -0.701  1.00  0.00     0.022 C 
HETATM   40  C5  UNL     1      -6.897  -0.840   0.073  1.00  0.00     0.029 C 
HETATM   41  C4  UNL     1      -7.698  -0.130   1.135  1.00  0.00     0.126 C 
HETATM   42  N1  UNL     1      -8.385   0.973   0.515  1.00  0.00    -0.350 N 
HETATM   43  C3  UNL     1      -9.807   1.142   0.625  1.00  0.00     0.243 C 
HETATM   44  C32 UNL     1      -7.590   1.925  -0.235  1.00  0.00     0.126 C 
HETATM   45  O2  UNL     1     -10.425   0.301   1.285  1.00  0.00    -0.271 OA
HETATM   46  C31 UNL     1      -6.166   1.516  -0.374  1.00  0.00     0.029 C 
BRANCH  43  47
HETATM   47  C2  UNL     1     -10.491   2.273  -0.024  1.00  0.00     0.269 C 
BRANCH  47  48
HETATM   48  O1  UNL     1     -11.859   2.299   0.078  1.00  0.00    -0.387 OA
HETATM   49  C1  UNL     1     -12.562   1.292  -0.506  1.00  0.00     0.202 C 
ENDBRANCH  47  48
ENDBRANCH  43  47
ENDBRANCH   1  39
TORSDOF 14
