REMARK  12 active torsions:
REMARK  status: ('A' for Active; 'I' for Inactive)
REMARK    1  A    between atoms: C2_2  and  C3_3 
REMARK    2  A    between atoms: C3_3  and  C4_4 
REMARK    3  A    between atoms: C4_4  and  C5_5 
REMARK    4  A    between atoms: C5_5  and  C6_6 
REMARK    5  A    between atoms: C6_6  and  N1_7 
REMARK    6  A    between atoms: C9_10  and  N2_11 
REMARK       I    between atoms: N2_11  and  C10_13 
REMARK    7  A    between atoms: C10_13  and  C11_15 
REMARK    8  A    between atoms: C15_22  and  C16_23 
REMARK    9  A    between atoms: C16_23  and  C17_25 
REMARK       I    between atoms: C17_25  and  N4_27 
REMARK   10  A    between atoms: N4_27  and  C18_29 
REMARK   11  A    between atoms: C18_29  and  C19_30 
REMARK   12  A    between atoms: C19_30  and  C20_31 
REMARK       I    between atoms: C20_31  and  N5_33 
ROOT
HETATM    1  C11 UNL     1       0.138   0.744   1.062  1.00  0.00     0.066 A 
HETATM    2  C12 UNL     1       0.476   1.729   1.977  1.00  0.00     0.033 A 
HETATM    3  N3  UNL     1      -0.377   2.385   2.753  1.00  0.00    -0.316 N 
HETATM    4  C13 UNL     1      -1.702   2.069   2.643  1.00  0.00     0.266 A 
HETATM    5  O2  UNL     1      -2.592   2.612   3.313  1.00  0.00    -0.266 OA
HETATM    6  C14 UNL     1      -2.081   1.088   1.735  1.00  0.00     0.085 A 
HETATM    7  S1  UNL     1      -3.619   0.419   1.298  1.00  0.00    -0.080 SA
HETATM    8  C15 UNL     1      -3.118  -0.686   0.127  1.00  0.00     0.062 A 
HETATM    9  C25 UNL     1      -1.756  -0.525   0.090  1.00  0.00     0.037 A 
HETATM   10  C26 UNL     1      -1.221   0.390   0.919  1.00  0.00     0.006 A 
HETATM   11  C27 UNL     1       0.569   3.208   3.449  1.00  0.00     0.138 A 
HETATM   12  C28 UNL     1       1.583   2.545   2.576  1.00  0.00     0.078 A 
ENDROOT
BRANCH   1  13
HETATM   13  C10 UNL     1       1.199   0.085   0.306  1.00  0.00     0.254 C 
HETATM   14  N2  UNL     1       2.520   0.569   0.247  1.00  0.00    -0.352 N 
ATOM     15  H2  UNL     1       2.779   1.428   0.732  1.00  0.00     0.163 HD
HETATM   16  O1  UNL     1       1.004  -0.973  -0.362  1.00  0.00    -0.268 OA
BRANCH  14  17
HETATM   17  C9  UNL     1       3.520  -0.184  -0.526  1.00  0.00     0.088 C 
HETATM   18  C8  UNL     1       4.671  -0.552   0.425  1.00  0.00     0.055 C 
HETATM   19  C7  UNL     1       5.539   0.654   0.482  1.00  0.00     0.274 C 
HETATM   20  N1  UNL     1       6.322   0.827  -0.723  1.00  0.00     0.088 N 
HETATM   21  C30 UNL     1       5.489   0.669  -1.875  1.00  0.00     0.274 C 
HETATM   22  C29 UNL     1       4.007   0.711  -1.619  1.00  0.00     0.055 C 
BRANCH  20  23
HETATM   23  C6  UNL     1       7.400  -0.138  -0.801  1.00  0.00     0.272 C 
BRANCH  23  24
HETATM   24  C5  UNL     1       8.448   0.084   0.244  1.00  0.00     0.030 C 
BRANCH  24  25
HETATM   25  C4  UNL     1       9.502  -0.983   0.113  1.00  0.00     0.002 C 
BRANCH  25  26
HETATM   26  C3  UNL     1      10.200  -1.014  -1.201  1.00  0.00    -0.000 C 
BRANCH  26  27
HETATM   27  C2  UNL     1      11.204  -2.180  -1.111  1.00  0.00    -0.005 C 
HETATM   28  C1  UNL     1      12.171  -1.971   0.018  1.00  0.00     0.005 C 
ENDBRANCH  26  27
ENDBRANCH  25  26
ENDBRANCH  24  25
ENDBRANCH  23  24
ENDBRANCH  20  23
ENDBRANCH  14  17
ENDBRANCH   1  13
BRANCH   8  29
HETATM   29  C16 UNL     1      -3.944  -1.598  -0.695  1.00  0.00     0.256 C 
HETATM   30  O3  UNL     1      -3.423  -2.322  -1.532  1.00  0.00    -0.281 OA
BRANCH  29  31
HETATM   31  C17 UNL     1      -5.388  -1.593  -0.468  1.00  0.00     0.293 C 
HETATM   32  O4  UNL     1      -5.824  -0.900   0.504  1.00  0.00    -0.264 OA
HETATM   33  N4  UNL     1      -6.234  -2.327  -1.305  1.00  0.00    -0.354 N 
ATOM     34  H4  UNL     1      -5.810  -2.853  -2.069  1.00  0.00     0.162 HD
BRANCH  33  35
HETATM   35  C18 UNL     1      -7.662  -2.389  -1.159  1.00  0.00     0.132 C 
BRANCH  35  36
HETATM   36  C19 UNL     1      -8.310  -1.000  -1.244  1.00  0.00     0.122 C 
BRANCH  36  37
HETATM   37  C20 UNL     1      -9.772  -1.150  -1.095  1.00  0.00     0.221 C 
HETATM   38  O5  UNL     1     -10.296  -2.233  -1.459  1.00  0.00    -0.273 OA
HETATM   39  N5  UNL     1     -10.629  -0.122  -0.557  1.00  0.00    -0.348 N 
HETATM   40  C21 UNL     1     -10.051   1.140  -0.128  1.00  0.00     0.152 C 
HETATM   41  C24 UNL     1     -12.040  -0.350  -0.420  1.00  0.00     0.152 C 
HETATM   42  C22 UNL     1     -11.037   2.238  -0.254  1.00  0.00     0.187 C 
HETATM   43  O6  UNL     1     -12.102   1.956  -1.097  1.00  0.00    -0.388 OA
HETATM   44  C23 UNL     1     -12.847   0.916  -0.554  1.00  0.00     0.187 C 
ENDBRANCH  36  37
ENDBRANCH  35  36
ENDBRANCH  33  35
ENDBRANCH  29  31
ENDBRANCH   8  29
TORSDOF 12
