REMARK  16 active torsions:
REMARK  status: ('A' for Active; 'I' for Inactive)
REMARK    1  A    between atoms: C2_2  and  C3_3 
REMARK    2  A    between atoms: C3_3  and  C4_4 
REMARK    3  A    between atoms: C4_4  and  C5_5 
REMARK    4  A    between atoms: C4_4  and  C25_36 
REMARK    5  A    between atoms: C5_5  and  N1_6 
REMARK    6  A    between atoms: N2_10  and  C8_11 
REMARK    7  A    between atoms: N4_19  and  C14_20 
REMARK    8  A    between atoms: C17_24  and  C18_25 
REMARK    9  A    between atoms: C17_24  and  C20_27 
REMARK   10  A    between atoms: C20_27  and  O2_28 
REMARK   11  A    between atoms: C20_27  and  N6_30 
REMARK   12  A    between atoms: N6_30  and  C22_32 
REMARK   13  A    between atoms: C22_32  and  C23_33 
REMARK   14  A    between atoms: C23_33  and  O3_34 
REMARK       I    between atoms: C25_36  and  N7_38 
REMARK   15  A    between atoms: N7_38  and  C26_40 
REMARK   16  A    between atoms: C27_43  and  C28_44 
ROOT
HETATM    1  N1  UNL     1      -0.728   0.499  -0.769  1.00  0.00    -0.350 N 
HETATM    2  C6  UNL     1      -0.684  -0.164   0.479  1.00  0.00     0.229 C 
HETATM    3  C7  UNL     1      -1.709  -1.250   0.601  1.00  0.00     0.258 C 
HETATM    4  O1  UNL     1      -1.582  -2.055   1.536  1.00  0.00    -0.270 OA
HETATM    5  N2  UNL     1      -2.745  -1.299  -0.332  1.00  0.00    -0.223 N 
HETATM    6  N5  UNL     1      -2.681  -0.537  -1.455  1.00  0.00    -0.090 NA
HETATM    7  C17 UNL     1      -2.015   0.816  -1.240  1.00  0.00     0.189 C 
ENDROOT
BRANCH   1   8
HETATM    8  C5  UNL     1       0.367   1.311  -1.013  1.00  0.00     0.101 C 
BRANCH   8   9
HETATM    9  C4  UNL     1       1.741   0.800  -1.276  1.00  0.00     0.026 C 
BRANCH   9  10
HETATM   10  C3  UNL     1       1.924  -0.092  -2.447  1.00  0.00     0.045 C 
BRANCH  10  11
HETATM   11  C2  UNL     1       3.299  -0.597  -2.716  1.00  0.00     0.000 C 
HETATM   12  C1  UNL     1       4.330   0.472  -2.896  1.00  0.00     0.005 C 
ENDBRANCH  10  11
ENDBRANCH   9  10
BRANCH   9  13
HETATM   13  C25 UNL     1       2.629   0.613  -0.134  1.00  0.00     0.267 C 
HETATM   14  O4  UNL     1       3.073   1.647   0.477  1.00  0.00    -0.267 OA
HETATM   15  N7  UNL     1       3.046  -0.623   0.361  1.00  0.00    -0.154 N 
ATOM     16  H7  UNL     1       2.353  -1.372   0.360  1.00  0.00     0.187 HD
BRANCH  15  17
HETATM   17  C26 UNL     1       4.217  -0.920   0.821  1.00  0.00     0.707 A 
HETATM   18  N8  UNL     1       5.312  -0.164   0.943  1.00  0.00    -0.169 N 
HETATM   19  C27 UNL     1       6.289  -0.938   1.464  1.00  0.00     0.170 A 
ATOM     20  H8  UNL     1       5.395   0.820   0.689  1.00  0.00     0.186 HD
HETATM   21  O5  UNL     1       5.762  -2.118   1.639  1.00  0.00    -0.208 OA
HETATM   22  N9  UNL     1       4.528  -2.141   1.266  1.00  0.00    -0.089 N 
ATOM     23  H9  UNL     1       3.902  -2.946   1.304  1.00  0.00     0.213 HD
BRANCH  19  24
HETATM   24  C28 UNL     1       7.686  -0.574   1.787  1.00  0.00     0.017 C 
HETATM   25  C29 UNL     1       7.982  -0.822   3.238  1.00  0.00     0.023 C 
HETATM   26  C30 UNL     1       8.673  -1.374   0.950  1.00  0.00     0.023 C 
HETATM   27  C31 UNL     1       7.970   0.891   1.514  1.00  0.00     0.023 C 
ENDBRANCH  19  24
ENDBRANCH  15  17
ENDBRANCH   9  13
ENDBRANCH   8   9
ENDBRANCH   1   8
BRANCH   7  28
HETATM   28  C18 UNL     1      -2.079   1.323  -2.671  1.00  0.00     0.056 C 
HETATM   29  C19 UNL     1      -1.588   0.237  -3.597  1.00  0.00     0.009 C 
ENDBRANCH   7  28
BRANCH   7  30
HETATM   30  C20 UNL     1      -2.957   1.592  -0.437  1.00  0.00     0.161 C 
BRANCH  30  31
HETATM   31  O2  UNL     1      -3.968   0.899   0.092  1.00  0.00    -0.346 OA
ATOM     32  H2  UNL     1      -4.581   1.404   0.614  1.00  0.00     0.219 HD
ENDBRANCH  30  31
BRANCH  30  33
HETATM   33  N6  UNL     1      -3.048   2.934  -0.102  1.00  0.00    -0.364 N 
HETATM   34  C21 UNL     1      -4.250   3.387   0.704  1.00  0.00     0.151 C 
BRANCH  33  35
HETATM   35  C22 UNL     1      -2.130   3.991  -0.367  1.00  0.00     0.150 C 
BRANCH  35  36
HETATM   36  C23 UNL     1      -1.223   4.335   0.794  1.00  0.00     0.186 C 
BRANCH  36  37
HETATM   37  O3  UNL     1      -0.395   5.377   0.347  1.00  0.00    -0.394 OA
HETATM   38  C24 UNL     1       0.472   5.702   1.383  1.00  0.00     0.201 C 
ENDBRANCH  36  37
ENDBRANCH  35  36
ENDBRANCH  33  35
ENDBRANCH  30  33
ENDBRANCH   7  30
BRANCH   5  39
HETATM   39  C8  UNL     1      -3.865  -2.152  -0.137  1.00  0.00     0.072 A 
HETATM   40  C9  UNL     1      -4.509  -2.671  -1.273  1.00  0.00     0.048 A 
HETATM   41  C10 UNL     1      -5.604  -3.487  -1.153  1.00  0.00     0.010 A 
HETATM   42  C11 UNL     1      -6.447  -4.144  -2.041  1.00  0.00     0.101 A 
HETATM   43  C13 UNL     1      -6.121  -3.833   0.163  1.00  0.00     0.061 A 
HETATM   44  N3  UNL     1      -7.392  -4.830  -1.347  1.00  0.00    -0.372 N 
HETATM   45  C12 UNL     1      -7.215  -4.657  -0.028  1.00  0.00     0.118 A 
ATOM     46  H3  UNL     1      -8.130  -5.395  -1.768  1.00  0.00     0.164 HD
HETATM   47  N4  UNL     1      -5.477  -3.318   1.229  1.00  0.00    -0.353 N 
HETATM   48  C16 UNL     1      -4.401  -2.517   1.060  1.00  0.00     0.122 A 
BRANCH  47  49
HETATM   49  C14 UNL     1      -5.993  -3.659   2.533  1.00  0.00     0.124 C 
HETATM   50  C15 UNL     1      -7.048  -2.670   3.016  1.00  0.00     0.027 C 
ENDBRANCH  47  49
ENDBRANCH   5  39
TORSDOF 16
