REMARK  10 active torsions:
REMARK  status: ('A' for Active; 'I' for Inactive)
REMARK    1  A    between atoms: C2_2  and  C3_3 
REMARK    2  A    between atoms: C3_3  and  O2_5 
REMARK    3  A    between atoms: O2_5  and  C4_6 
REMARK    4  A    between atoms: C6_8  and  C7_9 
REMARK    5  A    between atoms: C7_9  and  C8_10 
REMARK    6  A    between atoms: C12_14  and  O3_15 
REMARK    7  A    between atoms: C18_24  and  O6_25 
REMARK    8  A    between atoms: C20_28  and  C21_29 
REMARK    9  A    between atoms: C21_29  and  O7_31 
REMARK   10  A    between atoms: O7_31  and  C23_32 
ROOT
HETATM    1  C4  UNL     1       0.112   1.709   0.808  1.00  0.00     0.114 A 
HETATM    2  C5  UNL     1       1.156   1.229   1.518  1.00  0.00     0.050 A 
HETATM    3  C6  UNL     1       1.070  -0.021   2.088  1.00  0.00    -0.018 A 
HETATM    4  C12 UNL     1      -0.078  -0.760   1.920  1.00  0.00     0.082 A 
HETATM    5  C13 UNL     1      -1.167  -0.293   1.189  1.00  0.00     0.024 A 
HETATM    6  C14 UNL     1      -1.053   0.938   0.652  1.00  0.00     0.120 A 
HETATM    7  O4  UNL     1      -2.066   1.560  -0.067  1.00  0.00    -0.304 OA
HETATM    8  C15 UNL     1      -3.245   0.840  -0.203  1.00  0.00     0.117 A 
HETATM    9  C16 UNL     1      -4.463   1.207  -0.809  1.00  0.00     0.086 A 
HETATM   10  C17 UNL     1      -4.629   2.524  -1.488  1.00  0.00     0.079 C 
HETATM   11  O5  UNL     1      -5.301   0.242  -0.653  1.00  0.00    -0.289 OA
HETATM   12  C18 UNL     1      -4.757  -0.759   0.008  1.00  0.00     0.193 A 
HETATM   13  C19 UNL     1      -3.443  -0.417   0.299  1.00  0.00     0.048 A 
HETATM   14  C20 UNL     1      -2.292  -1.177   0.855  1.00  0.00     0.094 C 
ENDROOT
BRANCH  14  15
HETATM   15  C21 UNL     1      -1.785  -2.263  -0.068  1.00  0.00     0.141 C 
HETATM   16  C22 UNL     1      -2.829  -3.242  -0.439  1.00  0.00     0.041 C 
BRANCH  15  17
HETATM   17  O7  UNL     1      -1.270  -1.724  -1.272  1.00  0.00    -0.316 OA
BRANCH  17  18
HETATM   18  C23 UNL     1       0.002  -1.933  -1.705  1.00  0.00     0.255 C 
HETATM   19  C24 UNL     1       0.502  -1.334  -2.991  1.00  0.00     0.126 C 
HETATM   20  O8  UNL     1       0.793  -2.625  -1.052  1.00  0.00    -0.266 OA
ENDBRANCH  17  18
ENDBRANCH  15  17
ENDBRANCH  14  15
BRANCH   4  21
HETATM   21  O3  UNL     1      -0.159  -1.984   2.488  1.00  0.00    -0.359 OA
ATOM     22  H3  UNL     1      -0.952  -2.494   2.372  1.00  0.00     0.217 HD
ENDBRANCH   4  21
BRANCH  12  23
HETATM   23  O6  UNL     1      -5.412  -1.935   0.349  1.00  0.00    -0.340 OA
ATOM     24  H6  UNL     1      -5.020  -2.657   0.826  1.00  0.00     0.220 HD
ENDBRANCH  12  23
BRANCH   3  25
HETATM   25  C7  UNL     1       2.223  -0.551   2.860  1.00  0.00     0.068 C 
BRANCH  25  26
HETATM   26  C8  UNL     1       3.033  -1.536   2.091  1.00  0.00    -0.020 C 
HETATM   27  C9  UNL     1       4.327  -1.311   1.844  1.00  0.00    -0.091 C 
HETATM   28  C10 UNL     1       5.104  -2.310   1.078  1.00  0.00     0.042 C 
HETATM   29  C11 UNL     1       5.011  -0.082   2.319  1.00  0.00     0.042 C 
ENDBRANCH  25  26
ENDBRANCH   3  25
BRANCH   1  30
HETATM   30  O2  UNL     1       0.204   2.974   0.235  1.00  0.00    -0.276 OA
BRANCH  30  31
HETATM   31  C3  UNL     1       0.730   3.060  -1.039  1.00  0.00     0.263 C 
HETATM   32  O1  UNL     1       1.099   2.028  -1.630  1.00  0.00    -0.265 OA
BRANCH  31  33
HETATM   33  C2  UNL     1       0.853   4.378  -1.699  1.00  0.00     0.107 C 
HETATM   34  C1  UNL     1       1.449   4.206  -3.072  1.00  0.00     0.015 C 
ENDBRANCH  31  33
ENDBRANCH  30  31
ENDBRANCH   1  30
TORSDOF 10
