REMARK  5 active torsions:
REMARK  status: ('A' for Active; 'I' for Inactive)
REMARK    1  A    between atoms: C1_2  and  C2_3 
REMARK    2  A    between atoms: C1_2  and  C6_17 
REMARK    3  A    between atoms: C2_3  and  N1_4 
REMARK    4  A    between atoms: C3_5  and  C4_6 
REMARK    5  A    between atoms: N2_10  and  O2_11 
ROOT
HETATM    1  N1  UNL     1      -1.855   0.242  -0.593  1.00  0.00    -0.273 N 
HETATM    2  C3  UNL     1      -2.836  -0.029   0.246  1.00  0.00     0.190 A 
HETATM    3  N2  UNL     1      -3.930  -0.306  -0.522  1.00  0.00    -0.142 N 
HETATM    4  N3  UNL     1      -3.620  -0.206  -1.772  1.00  0.00    -0.223 N 
ATOM      5  H3  UNL     1      -4.246  -0.360  -2.562  1.00  0.00     0.194 HD
HETATM    6  C5  UNL     1      -2.350   0.130  -1.840  1.00  0.00     0.345 A 
HETATM    7  O3  UNL     1      -1.698   0.318  -2.928  1.00  0.00    -0.245 OA
ENDROOT
BRANCH   1   8
HETATM    8  C2  UNL     1      -0.506   0.594  -0.304  1.00  0.00     0.219 C 
BRANCH   8   9
HETATM    9  C1  UNL     1       0.427  -0.551  -0.191  1.00  0.00     0.177 C 
HETATM   10  O1  UNL     1      -0.020  -1.704  -0.285  1.00  0.00    -0.291 OA
BRANCH   9  11
HETATM   11  C6  UNL     1       1.835  -0.303   0.025  1.00  0.00     0.011 A 
HETATM   12  C7  UNL     1       2.324   0.989   0.157  1.00  0.00     0.017 A 
HETATM   13  C8  UNL     1       3.662   1.251   0.345  1.00  0.00     0.025 A 
HETATM   14  C9  UNL     1       4.583   0.209   0.410  1.00  0.00     0.034 A 
HETATM   15 CL4  UNL     1       6.271   0.635   0.649  1.00  0.00    -0.084 Cl
HETATM   16  C10 UNL     1       4.131  -1.075   0.283  1.00  0.00     0.025 A 
HETATM   17  C11 UNL     1       2.781  -1.314   0.095  1.00  0.00     0.017 A 
ENDBRANCH   9  11
ENDBRANCH   8   9
ENDBRANCH   1   8
BRANCH   2  18
HETATM   18  C4  UNL     1      -2.921  -0.086   1.703  1.00  0.00     0.251 C 
HETATM   19 CL1  UNL     1      -4.534   0.598   2.161  1.00  0.00    -0.075 Cl
HETATM   20 CL2  UNL     1      -3.003  -1.799   2.276  1.00  0.00    -0.075 Cl
HETATM   21 CL3  UNL     1      -1.765   0.832   2.617  1.00  0.00    -0.075 Cl
ENDBRANCH   2  18
BRANCH   3  22
HETATM   22  O2  UNL     1      -5.202  -0.647  -0.088  1.00  0.00    -0.266 OA
ATOM     23  H2  UNL     1      -5.963  -0.840  -0.622  1.00  0.00     0.247 HD
ENDBRANCH   3  22
TORSDOF 5
