REMARK  4 active torsions:
REMARK  status: ('A' for Active; 'I' for Inactive)
REMARK    1  A    between atoms: C2_3  and  N2_4 
REMARK    2  A    between atoms: C8_12  and  N3_13 
REMARK    3  A    between atoms: N3_13  and  C9_15 
REMARK    4  A    between atoms: C15_22  and  C16_23 
ROOT
HETATM    1  N1  UNL     1      -4.558   2.714   1.872  1.00  0.00    -0.195 NA
HETATM    2  C1  UNL     1      -3.518   2.294   1.580  1.00  0.00     0.089 C 
HETATM    3  C2  UNL     1      -2.175   1.772   1.216  1.00  0.00     0.396 C 
ENDROOT
BRANCH   3   4
HETATM    4  N2  UNL     1      -2.387   0.553   0.507  1.00  0.00     0.112 N 
HETATM    5  C3  UNL     1      -2.931  -0.396   1.497  1.00  0.00     0.300 C 
HETATM    6  C4  UNL     1      -2.779  -1.793   0.951  1.00  0.00     0.198 C 
HETATM    7  O1  UNL     1      -2.903  -1.738  -0.433  1.00  0.00    -0.379 OA
HETATM    8  C5  UNL     1      -1.803  -1.144  -1.015  1.00  0.00     0.191 C 
HETATM    9  C6  UNL     1      -2.294  -0.247  -2.138  1.00  0.00     0.203 C 
HETATM   10  C17 UNL     1      -1.242  -0.080  -0.052  1.00  0.00     0.278 C 
HETATM   11  F1  UNL     1      -3.493   0.341  -1.778  1.00  0.00    -0.247 F 
HETATM   12  C7  UNL     1      -1.248   0.806  -2.274  1.00  0.00     0.067 C 
HETATM   13  C8  UNL     1      -0.419   0.790  -0.980  1.00  0.00     0.120 C 
BRANCH  13  14
HETATM   14  N3  UNL     1       0.871   0.171  -1.255  1.00  0.00    -0.382 N 
ATOM     15  H3  UNL     1       1.014  -0.245  -2.175  1.00  0.00     0.160 HD
BRANCH  14  16
HETATM   16  C9  UNL     1       1.938   0.110  -0.328  1.00  0.00     0.043 A 
HETATM   17  C10 UNL     1       1.819   0.697   0.941  1.00  0.00     0.031 A 
HETATM   18  C11 UNL     1       2.834   0.648   1.869  1.00  0.00     0.025 A 
HETATM   19  C12 UNL     1       4.019   0.011   1.578  1.00  0.00     0.045 A 
HETATM   20  C13 UNL     1       5.085  -0.046   2.540  1.00  0.00     0.099 C 
HETATM   21  C14 UNL     1       4.158  -0.569   0.344  1.00  0.00     0.041 A 
HETATM   22  N4  UNL     1       5.956  -0.089   3.304  1.00  0.00    -0.191 NA
HETATM   23  C15 UNL     1       3.128  -0.514  -0.586  1.00  0.00     0.075 A 
BRANCH  23  24
HETATM   24  C16 UNL     1       3.366  -1.147  -1.901  1.00  0.00     0.419 C 
HETATM   25  F2  UNL     1       3.310  -0.190  -2.877  1.00  0.00    -0.166 F 
HETATM   26  F3  UNL     1       4.652  -1.692  -1.974  1.00  0.00    -0.166 F 
HETATM   27  F4  UNL     1       2.519  -2.214  -2.128  1.00  0.00    -0.166 F 
ENDBRANCH  23  24
ENDBRANCH  14  16
ENDBRANCH  13  14
ENDBRANCH   3   4
TORSDOF 4
