REMARK  5 active torsions:
REMARK  status: ('A' for Active; 'I' for Inactive)
REMARK       I    between atoms: C2_2  and  N1_4 
REMARK    1  A    between atoms: N1_4  and  N2_6 
REMARK    2  A    between atoms: N2_6  and  S1_8 
REMARK    3  A    between atoms: S1_8  and  C3_11 
REMARK    4  A    between atoms: C6_14  and  N3_15 
REMARK       I    between atoms: N3_15  and  C7_17 
REMARK    5  A    between atoms: C7_17  and  C8_19 
ROOT
HETATM    1  C3  UNL     1      -1.462   0.803  -0.963  1.00  0.00     0.081 A 
HETATM    2  C4  UNL     1      -0.950   0.961   0.304  1.00  0.00     0.027 A 
HETATM    3  C5  UNL     1       0.375   0.719   0.600  1.00  0.00     0.031 A 
HETATM    4  C6  UNL     1       1.248   0.296  -0.409  1.00  0.00     0.035 A 
HETATM    5  C12 UNL     1       0.752   0.135  -1.672  1.00  0.00     0.031 A 
HETATM    6  C13 UNL     1      -0.606   0.392  -1.935  1.00  0.00     0.027 A 
ENDROOT
BRANCH   1   7
HETATM    7  S1  UNL     1      -3.153   1.134  -1.234  1.00  0.00     0.276 S 
HETATM    8  O2  UNL     1      -3.547   2.239  -0.292  1.00  0.00    -0.199 OA
HETATM    9  O3  UNL     1      -3.286   1.647  -2.646  1.00  0.00    -0.199 OA
BRANCH   7  10
HETATM   10  N2  UNL     1      -4.136  -0.275  -1.015  1.00  0.00    -0.220 N 
ATOM     11  H2  UNL     1      -4.394  -0.952  -1.733  1.00  0.00     0.200 HD
BRANCH  10  12
HETATM   12  N1  UNL     1      -4.510  -0.309   0.333  1.00  0.00    -0.261 N 
HETATM   13  C2  UNL     1      -5.824   0.034   0.719  1.00  0.00     0.232 C 
HETATM   14  C1  UNL     1      -6.196  -0.011   2.165  1.00  0.00     0.119 C 
HETATM   15  O1  UNL     1      -6.710   0.380  -0.095  1.00  0.00    -0.272 OA
ATOM     16  H1  UNL     1      -3.829  -0.583   1.041  1.00  0.00     0.190 HD
ENDBRANCH  10  12
ENDBRANCH   7  10
ENDBRANCH   1   7
BRANCH   4  17
HETATM   17  N3  UNL     1       2.610   0.091  -0.022  1.00  0.00    -0.322 N 
HETATM   18  C7  UNL     1       3.555  -0.681  -0.679  1.00  0.00     0.264 C 
HETATM   19  O4  UNL     1       3.194  -1.284  -1.729  1.00  0.00    -0.267 OA
ATOM     20  H3  UNL     1       2.918   0.563   0.828  1.00  0.00     0.169 HD
BRANCH  18  21
HETATM   21  C8  UNL     1       4.931  -0.863  -0.270  1.00  0.00     0.090 A 
HETATM   22  S2  UNL     1       6.076  -1.863  -1.156  1.00  0.00    -0.095 SA
HETATM   23  C9  UNL     1       7.445  -1.655  -0.191  1.00  0.00     0.052 A 
HETATM   24  C10 UNL     1       7.003  -0.829   0.787  1.00  0.00     0.028 A 
HETATM   25  C11 UNL     1       5.714  -0.420   0.751  1.00  0.00     0.034 A 
HETATM   26 BR1  UNL     1       5.028   0.775   2.143  1.00  0.00    -0.049 Br
ENDBRANCH  18  21
ENDBRANCH   4  17
TORSDOF 5
