REMARK  8 active torsions:
REMARK  status: ('A' for Active; 'I' for Inactive)
REMARK    1  A    between atoms: C3_5  and  O3_6 
REMARK    2  A    between atoms: O3_6  and  C4_7 
REMARK    3  A    between atoms: C4_7  and  C5_9 
REMARK    4  A    between atoms: C6_10  and  C7_11 
REMARK    5  A    between atoms: C12_17  and  C13_18 
REMARK    6  A    between atoms: C17_22  and  O5_23 
REMARK    7  A    between atoms: C18_25  and  O6_26 
REMARK    8  A    between atoms: C19_28  and  O7_29 
ROOT
HETATM    1  O3  UNL     1       1.295  -0.157   0.696  1.00  0.00    -0.281 OA
ENDROOT
BRANCH   1   2
HETATM    2  C3  UNL     1       2.679   0.147   0.658  1.00  0.00     0.338 C 
HETATM    3  O2  UNL     1       2.907   1.469   1.090  1.00  0.00    -0.199 OA
HETATM    4  O1  UNL     1       3.470   2.185   0.110  1.00  0.00    -0.198 OA
HETATM    5  C2  UNL     1       4.746   2.078  -0.423  1.00  0.00     0.106 C 
HETATM    6  C1  UNL     1       5.294   3.183  -0.891  1.00  0.00     0.052 C 
HETATM    7  C19 UNL     1       5.604   0.874  -0.547  1.00  0.00     0.208 C 
HETATM    8  C18 UNL     1       4.757  -0.378  -0.496  1.00  0.00     0.187 C 
HETATM    9  C17 UNL     1       3.292  -0.101  -0.692  1.00  0.00     0.208 C 
BRANCH   7  10
HETATM   10  O7  UNL     1       6.560   0.842   0.470  1.00  0.00    -0.386 OA
ATOM     11  H7  UNL     1       7.109   0.071   0.391  1.00  0.00     0.210 HD
ENDBRANCH   7  10
BRANCH   8  12
HETATM   12  O6  UNL     1       5.237  -1.244  -1.500  1.00  0.00    -0.390 OA
ATOM     13  H6  UNL     1       6.162  -1.419  -1.376  1.00  0.00     0.210 HD
ENDBRANCH   8  12
BRANCH   9  14
HETATM   14  O5  UNL     1       2.670  -1.228  -1.252  1.00  0.00    -0.388 OA
ATOM     15  H5  UNL     1       3.057  -1.385  -2.105  1.00  0.00     0.210 HD
ENDBRANCH   9  14
ENDBRANCH   1   2
BRANCH   1  16
HETATM   16  C4  UNL     1       0.766  -1.115   1.550  1.00  0.00     0.285 C 
HETATM   17  O4  UNL     1       1.585  -1.704   2.293  1.00  0.00    -0.260 OA
BRANCH  16  18
HETATM   18  C5  UNL     1      -0.629  -1.466   1.632  1.00  0.00     0.083 C 
HETATM   19  C6  UNL     1      -1.576  -0.896   0.882  1.00  0.00     0.018 C 
BRANCH  19  20
HETATM   20  C7  UNL     1      -2.969  -1.203   0.921  1.00  0.00    -0.028 A 
HETATM   21  C8  UNL     1      -3.416  -2.181   1.797  1.00  0.00     0.031 A 
HETATM   22  C9  UNL     1      -4.763  -2.493   1.844  1.00  0.00     0.011 A 
HETATM   23 BR1  UNL     1      -5.338  -3.854   3.072  1.00  0.00    -0.051 Br
HETATM   24  C10 UNL     1      -5.658  -1.848   1.036  1.00  0.00     0.019 A 
HETATM   25  C11 UNL     1      -5.176  -0.878   0.175  1.00  0.00     0.010 A 
HETATM   26  C12 UNL     1      -3.843  -0.523   0.084  1.00  0.00    -0.040 A 
BRANCH  26  27
HETATM   27  C13 UNL     1      -3.478   0.514  -0.854  1.00  0.00    -0.023 C 
HETATM   28  C14 UNL     1      -4.733   0.991  -1.580  1.00  0.00     0.019 C 
HETATM   29  C15 UNL     1      -2.851   1.749  -0.293  1.00  0.00     0.019 C 
HETATM   30  C16 UNL     1      -2.576  -0.026  -1.970  1.00  0.00     0.019 C 
ENDBRANCH  26  27
ENDBRANCH  19  20
ENDBRANCH  16  18
ENDBRANCH   1  16
TORSDOF 8
