REMARK  8 active torsions:
REMARK  status: ('A' for Active; 'I' for Inactive)
REMARK    1  A    between atoms: C3_3  and  C4_4 
REMARK    2  A    between atoms: C3_3  and  N2_12 
REMARK    3  A    between atoms: C4_4  and  C5_5 
REMARK    4  A    between atoms: C5_5  and  C6_6 
REMARK    5  A    between atoms: C6_6  and  C7_7 
REMARK    6  A    between atoms: C7_7  and  N1_8 
REMARK    7  A    between atoms: N2_12  and  C8_14 
REMARK    8  A    between atoms: C12_20  and  C13_21 
ROOT
HETATM    1  C1  UNL     1       0.180   3.455  -0.263  1.00  0.00     0.014 C 
HETATM    2  C2  UNL     1       0.587   2.320  -0.136  1.00  0.00    -0.091 C 
HETATM    3  C3  UNL     1       1.093   0.951  -0.003  1.00  0.00     0.178 C 
ENDROOT
BRANCH   3   4
HETATM    4  C4  UNL     1       2.597   1.024   0.055  1.00  0.00     0.039 C 
BRANCH   4   5
HETATM    5  C5  UNL     1       3.241  -0.329   0.193  1.00  0.00     0.004 C 
BRANCH   5   6
HETATM    6  C6  UNL     1       4.744  -0.166   0.241  1.00  0.00     0.027 C 
BRANCH   6   7
HETATM    7  C7  UNL     1       5.215   0.678   1.388  1.00  0.00     0.229 C 
BRANCH   7   8
HETATM    8  N1  UNL     1       4.803   0.072   2.641  1.00  0.00    -0.079 N 
ATOM      9  H13 UNL     1       3.797  -0.096   2.675  1.00  0.00     0.274 HD
ATOM     10  H12 UNL     1       5.116  -0.895   2.721  1.00  0.00     0.274 HD
ATOM     11  H11 UNL     1       5.123   0.646   3.421  1.00  0.00     0.274 HD
ENDBRANCH   7   8
ENDBRANCH   6   7
ENDBRANCH   5   6
ENDBRANCH   4   5
ENDBRANCH   3   4
BRANCH   3  12
HETATM   12  N2  UNL     1       0.621   0.199  -1.137  1.00  0.00    -0.211 N 
ATOM     13  H2  UNL     1       1.280  -0.005  -1.888  1.00  0.00     0.179 HD
BRANCH  12  14
HETATM   14  C8  UNL     1      -0.591  -0.231  -1.254  1.00  0.00     0.679 A 
HETATM   15  N3  UNL     1      -0.895  -0.918  -2.363  1.00  0.00    -0.196 N 
HETATM   16  C9  UNL     1      -2.134  -1.387  -2.538  1.00  0.00     0.025 A 
ATOM     17  H3  UNL     1      -0.182  -1.083  -3.073  1.00  0.00     0.184 HD
HETATM   18  C10 UNL     1      -2.449  -2.149  -3.781  1.00  0.00     0.068 C 
HETATM   19  C11 UNL     1      -3.090  -1.161  -1.575  1.00  0.00     0.058 A 
HETATM   20  C12 UNL     1      -2.788  -0.455  -0.430  1.00  0.00     0.085 A 
HETATM   21  N4  UNL     1      -1.532  -0.016  -0.321  1.00  0.00    -0.189 N 
ATOM     22  H4  UNL     1      -1.274   0.510   0.514  1.00  0.00     0.184 HD
BRANCH  20  23
HETATM   23  C13 UNL     1      -3.809  -0.218   0.590  1.00  0.00     0.102 A 
HETATM   24  C14 UNL     1      -5.104  -0.642   0.530  1.00  0.00     0.041 A 
HETATM   25  C15 UNL     1      -5.761  -0.232   1.666  1.00  0.00     0.027 A 
HETATM   26  C16 UNL     1      -4.792   0.454   2.398  1.00  0.00     0.142 A 
HETATM   27  O1  UNL     1      -3.674   0.423   1.708  1.00  0.00    -0.321 OA
ENDBRANCH  20  23
ENDBRANCH  12  14
ENDBRANCH   3  12
TORSDOF 8
