REMARK  5 active torsions:
REMARK  status: ('A' for Active; 'I' for Inactive)
REMARK    1  A    between atoms: N1_1  and  N2_4 
REMARK    2  A    between atoms: N2_4  and  N3_5 
REMARK    3  A    between atoms: N3_5  and  C1_7 
REMARK    4  A    between atoms: C1_7  and  O1_8 
REMARK    5  A    between atoms: C3_14  and  N4_15 
REMARK       I    between atoms: N4_15  and  C4_17 
ROOT
HETATM    1  C1  UNL     1      -2.419  -0.037   0.022  1.00  0.00     0.255 C 
HETATM    2  C2  UNL     1      -1.811  -1.407   0.240  1.00  0.00     0.232 C 
HETATM    3  S1  UNL     1      -0.225  -1.545  -0.518  1.00  0.00     0.190 S 
HETATM    4  O2  UNL     1      -0.313  -1.183  -1.960  1.00  0.00    -0.224 OA
HETATM    5  O3  UNL     1       0.192  -2.997  -0.431  1.00  0.00    -0.224 OA
HETATM    6  C3  UNL     1       1.022  -0.594   0.268  1.00  0.00     0.313 C 
HETATM    7  N7  UNL     1       0.692   0.765   0.510  1.00  0.00    -0.309 N 
ATOM      8  H7  UNL     1       1.442   1.421   0.290  1.00  0.00     0.167 HD
HETATM    9  C5  UNL     1      -0.488   1.379   1.001  1.00  0.00     0.322 C 
HETATM   10  O4  UNL     1      -0.357   2.538   1.528  1.00  0.00    -0.247 OA
HETATM   11  N8  UNL     1      -1.804   0.856   0.976  1.00  0.00    -0.291 N 
ATOM     12  H8  UNL     1      -2.405   1.154   1.744  1.00  0.00     0.169 HD
ENDROOT
BRANCH   1  13
HETATM   13  N3  UNL     1      -3.837  -0.016   0.186  1.00  0.00    -0.197 N 
ATOM     14  H3  UNL     1      -4.374  -0.883   0.161  1.00  0.00     0.202 HD
BRANCH  13  15
HETATM   15  N2  UNL     1      -4.400   1.061   0.357  1.00  0.00    -0.244 NA
BRANCH  15  16
HETATM   16  N1  UNL     1      -4.876   2.189   0.608  1.00  0.00    -0.261 N 
ATOM     17  H12 UNL     1      -4.032   2.261   1.177  1.00  0.00     0.193 HD
ATOM     18  H11 UNL     1      -5.344   3.084   0.750  1.00  0.00     0.193 HD
ENDBRANCH  15  16
ENDBRANCH  13  15
ENDBRANCH   1  13
BRANCH   1  19
HETATM   19  O1  UNL     1      -2.085   0.327  -1.300  1.00  0.00    -0.351 OA
ATOM     20  H1  UNL     1      -1.141   0.313  -1.409  1.00  0.00     0.214 HD
ENDBRANCH   1  19
BRANCH   6  21
HETATM   21  N4  UNL     1       2.195  -0.635  -0.586  1.00  0.00    -0.331 N 
HETATM   22  C4  UNL     1       3.396   0.042  -0.235  1.00  0.00     0.184 C 
HETATM   23  N5  UNL     1       4.029  -0.272   0.842  1.00  0.00    -0.374 N 
HETATM   24  N6  UNL     1       3.862   1.060  -1.105  1.00  0.00    -0.064 NA
ATOM     25  H52 UNL     1       3.694  -1.004   1.468  1.00  0.00     0.158 HD
ATOM     26  H51 UNL     1       4.890   0.213   1.094  1.00  0.00     0.158 HD
ATOM     27  H4  UNL     1       2.157  -1.162  -1.459  1.00  0.00     0.165 HD
ENDBRANCH   6  21
TORSDOF 5
