REMARK  7 active torsions:
REMARK  status: ('A' for Active; 'I' for Inactive)
REMARK    1  A    between atoms: C2_2  and  C3_3 
REMARK    2  A    between atoms: C3_3  and  C4_4 
REMARK    3  A    between atoms: C3_3  and  C13_19 
REMARK    4  A    between atoms: C4_4  and  C5_5 
REMARK    5  A    between atoms: C5_5  and  O1_6 
REMARK    6  A    between atoms: C5_5  and  C6_8 
REMARK    7  A    between atoms: C6_8  and  C7_9 
ROOT
HETATM    1  C6  UNL     1      -0.393  -0.793  -0.732  1.00  0.00     0.048 C 
ENDROOT
BRANCH   1   2
HETATM    2  C5  UNL     1       1.048  -0.664  -1.046  1.00  0.00     0.120 C 
BRANCH   2   3
HETATM    3  C4  UNL     1       1.857   0.234  -0.204  1.00  0.00     0.047 C 
BRANCH   3   4
HETATM    4  C3  UNL     1       3.336   0.212  -0.580  1.00  0.00     0.089 C 
BRANCH   4   5
HETATM    5  C2  UNL     1       4.076   1.158   0.345  1.00  0.00     0.011 C 
HETATM    6  C1  UNL     1       3.986   0.829   1.789  1.00  0.00     0.006 C 
ENDBRANCH   4   5
BRANCH   4   7
HETATM    7  C13 UNL     1       3.944  -1.102  -0.679  1.00  0.00     0.177 C 
HETATM    8  O2  UNL     1       4.369  -1.787   0.302  1.00  0.00    -0.648 OA
HETATM    9  O3  UNL     1       4.118  -1.747  -1.925  1.00  0.00    -0.648 OA
ENDBRANCH   4   7
ENDBRANCH   3   4
ENDBRANCH   2   3
BRANCH   2  10
HETATM   10  O1  UNL     1       1.562  -1.989  -0.864  1.00  0.00    -0.396 OA
ATOM     11  H1  UNL     1       1.040  -2.568  -1.407  1.00  0.00     0.210 HD
ENDBRANCH   2  10
ENDBRANCH   1   2
BRANCH   1  12
HETATM   12  C7  UNL     1      -1.259   0.388  -0.773  1.00  0.00     0.067 C 
HETATM   13  S1  UNL     1      -0.842   1.714   0.399  1.00  0.00    -0.092 SA
HETATM   14  S2  UNL     1      -2.782   2.676   0.205  1.00  0.00    -0.091 SA
HETATM   15  C8  UNL     1      -3.494   1.310  -0.811  1.00  0.00     0.074 C 
HETATM   16  C9  UNL     1      -4.937   1.180  -0.614  1.00  0.00     0.090 C 
HETATM   17  C12 UNL     1      -2.695   0.077  -0.450  1.00  0.00     0.035 C 
HETATM   18  S3  UNL     1      -5.501  -0.398   0.015  1.00  0.00    -0.166 SA
HETATM   19  C10 UNL     1      -4.199  -1.364   0.787  1.00  0.00     0.094 C 
HETATM   20  C11 UNL     1      -2.969  -0.447   0.901  1.00  0.00     0.098 C 
HETATM   21 CL1  UNL     1      -3.330   0.780   2.130  1.00  0.00    -0.124 Cl
ENDBRANCH   1  12
TORSDOF 7
