REMARK  9 active torsions:
REMARK  status: ('A' for Active; 'I' for Inactive)
REMARK    1  A    between atoms: C4_4  and  C5_5 
REMARK    2  A    between atoms: C5_5  and  C6_6 
REMARK    3  A    between atoms: C6_6  and  C7_7 
REMARK    4  A    between atoms: C10_11  and  O2_12 
REMARK    5  A    between atoms: C11_14  and  C12_15 
REMARK    6  A    between atoms: C12_15  and  O3_16 
REMARK    7  A    between atoms: C19_24  and  C20_25 
REMARK    8  A    between atoms: C20_25  and  O4_26 
REMARK    9  A    between atoms: C21_28  and  C22_29 
ROOT
HETATM    1  C7  UNL     1      -1.123   0.090   0.163  1.00  0.00     0.066 C 
HETATM    2  C8  UNL     1      -1.694  -0.094   1.603  1.00  0.00     0.046 C 
HETATM    3  O1  UNL     1      -0.520  -1.070  -0.126  1.00  0.00    -0.367 OA
HETATM    4  C9  UNL     1       0.885  -0.911  -0.098  1.00  0.00     0.190 C 
HETATM    5  C10 UNL     1       1.483  -1.928  -0.952  1.00  0.00     0.081 C 
HETATM    6  C11 UNL     1       2.494  -2.723  -0.836  1.00  0.00    -0.003 C 
HETATM    7  C13 UNL     1       3.472  -2.903   0.228  1.00  0.00     0.018 C 
HETATM    8  C14 UNL     1       3.499  -2.128   1.417  1.00  0.00    -0.065 C 
HETATM    9  C15 UNL     1       3.488  -2.862   2.754  1.00  0.00     0.048 C 
HETATM   10  C16 UNL     1       3.533  -0.823   1.473  1.00  0.00    -0.020 C 
HETATM   11  C17 UNL     1       3.546   0.018   0.255  1.00  0.00     0.028 C 
HETATM   12  C18 UNL     1       2.360   0.956   0.365  1.00  0.00     0.019 C 
HETATM   13  C19 UNL     1       1.129   0.545  -0.413  1.00  0.00     0.023 C 
HETATM   14  C21 UNL     1      -0.057   1.128   0.254  1.00  0.00     0.067 C 
ENDROOT
BRANCH  14  15
HETATM   15  C22 UNL     1      -0.496   2.536   0.122  1.00  0.00     0.065 C 
HETATM   16  C23 UNL     1       0.666   3.467   0.505  1.00  0.00     0.046 C 
HETATM   17  C24 UNL     1      -0.943   3.096  -1.173  1.00  0.00     0.038 C 
HETATM   18  C25 UNL     1      -2.054   4.093  -1.145  1.00  0.00     0.006 C 
HETATM   19  C26 UNL     1      -2.356   4.710   0.159  1.00  0.00     0.032 C 
HETATM   20  C27 UNL     1      -2.198   3.736   1.274  1.00  0.00     0.118 C 
HETATM   21  C28 UNL     1      -2.040   4.561   2.547  1.00  0.00     0.039 C 
HETATM   22  O5  UNL     1      -1.392   2.705   1.139  1.00  0.00    -0.375 OA
ENDBRANCH  14  15
BRANCH   1  23
HETATM   23  C6  UNL     1      -2.233   0.269  -0.795  1.00  0.00     0.042 C 
BRANCH  23  24
HETATM   24  C5  UNL     1      -3.226  -0.896  -0.834  1.00  0.00     0.030 C 
BRANCH  24  25
HETATM   25  C4  UNL     1      -2.673  -2.172  -1.216  1.00  0.00    -0.025 C 
HETATM   26  C2  UNL     1      -2.823  -3.261  -0.511  1.00  0.00    -0.091 C 
HETATM   27  C1  UNL     1      -3.582  -3.297   0.754  1.00  0.00     0.042 C 
HETATM   28  C3  UNL     1      -2.206  -4.542  -0.984  1.00  0.00     0.042 C 
ENDBRANCH  24  25
ENDBRANCH  23  24
ENDBRANCH   1  23
BRANCH  13  29
HETATM   29  C20 UNL     1       1.333   0.862  -1.835  1.00  0.00     0.177 C 
BRANCH  29  30
HETATM   30  O4  UNL     1       2.370   0.289  -2.512  1.00  0.00    -0.400 OA
ATOM     31  H4  UNL     1       2.502   0.494  -3.430  1.00  0.00     0.209 HD
ENDBRANCH  29  30
ENDBRANCH  13  29
BRANCH   5  32
HETATM   32  O2  UNL     1       0.784  -2.063  -2.187  1.00  0.00    -0.362 OA
ATOM     33  H2  UNL     1       1.174  -2.726  -2.744  1.00  0.00     0.217 HD
ENDBRANCH   5  32
BRANCH   6  34
HETATM   34  C12 UNL     1       2.812  -3.680  -1.987  1.00  0.00     0.205 C 
BRANCH  34  35
HETATM   35  O3  UNL     1       4.104  -3.353  -2.408  1.00  0.00    -0.396 OA
ATOM     36  H3  UNL     1       4.301  -3.947  -3.123  1.00  0.00     0.209 HD
ENDBRANCH  34  35
ENDBRANCH   6  34
TORSDOF 9
