REMARK  6 active torsions:
REMARK  status: ('A' for Active; 'I' for Inactive)
REMARK    1  A    between atoms: O1_2  and  C2_3 
REMARK    2  A    between atoms: C7_8  and  O2_9 
REMARK    3  A    between atoms: O2_9  and  C8_10 
REMARK    4  A    between atoms: C8_10  and  C9_11 
REMARK    5  A    between atoms: C19_23  and  C20_24 
REMARK    6  A    between atoms: N2_28  and  C22_30 
ROOT
HETATM    1  C2  UNL     1      -0.514   0.920   0.743  1.00  0.00     0.104 A 
HETATM    2  C3  UNL     1      -1.246   0.236  -0.213  1.00  0.00     0.054 A 
HETATM    3  C4  UNL     1      -0.703  -0.978  -0.663  1.00  0.00     0.007 A 
HETATM    4  C5  UNL     1       0.473  -1.382  -0.135  1.00  0.00     0.016 A 
HETATM    5  C6  UNL     1       1.222  -0.753   0.796  1.00  0.00     0.077 A 
HETATM    6  C7  UNL     1       0.699   0.466   1.259  1.00  0.00     0.129 A 
HETATM    7  N1  UNL     1       2.338  -1.581   0.990  1.00  0.00    -0.374 N 
ATOM      8  H1  UNL     1       3.102  -1.371   1.633  1.00  0.00     0.161 HD
HETATM    9  C15 UNL     1       2.271  -2.799   0.145  1.00  0.00     0.052 A 
HETATM   10  C16 UNL     1       2.162  -4.023   0.974  1.00  0.00     0.043 C 
HETATM   11  C17 UNL     1       3.430  -2.762  -0.790  1.00  0.00     0.043 C 
HETATM   12  C18 UNL     1       0.982  -2.626  -0.616  1.00  0.00     0.002 A 
HETATM   13  C19 UNL     1       0.098  -3.050  -1.501  1.00  0.00     0.077 A 
HETATM   14  C21 UNL     1      -1.024  -2.042  -1.597  1.00  0.00     0.057 A 
HETATM   15  N2  UNL     1      -1.970  -2.143  -2.404  1.00  0.00    -0.384 N 
ATOM     16  H2  UNL     1      -1.973  -3.004  -2.951  1.00  0.00     0.160 HD
ENDROOT
BRANCH  13  17
HETATM   17  C20 UNL     1       0.173  -4.267  -2.261  1.00  0.00     0.212 C 
HETATM   18  O3  UNL     1       1.106  -5.094  -2.171  1.00  0.00    -0.644 OA
HETATM   19  O4  UNL     1      -0.846  -4.597  -3.179  1.00  0.00    -0.644 OA
ENDBRANCH  13  17
BRANCH  15  20
HETATM   20  C22 UNL     1      -3.027  -1.270  -2.683  1.00  0.00     0.082 C 
HETATM   21  C23 UNL     1      -4.296  -1.464  -1.931  1.00  0.00     0.031 C 
HETATM   22  C24 UNL     1      -5.190  -2.567  -2.395  1.00  0.00     0.081 C 
HETATM   23  C25 UNL     1      -5.337  -2.536  -3.887  1.00  0.00     0.243 C 
HETATM   24  F1  UNL     1      -4.584  -3.610  -4.395  1.00  0.00    -0.206 F 
HETATM   25  F2  UNL     1      -6.652  -2.708  -4.234  1.00  0.00    -0.206 F 
HETATM   26  C26 UNL     1      -4.732  -1.269  -4.469  1.00  0.00     0.081 C 
HETATM   27  C27 UNL     1      -3.239  -1.268  -4.213  1.00  0.00     0.031 C 
ENDBRANCH  15  20
BRANCH   1  28
HETATM   28  O1  UNL     1      -0.954   2.120   1.262  1.00  0.00    -0.353 OA
HETATM   29  C1  UNL     1      -2.174   2.684   0.843  1.00  0.00     0.210 C 
ENDBRANCH   1  28
BRANCH   6  30
HETATM   30  O2  UNL     1       1.434   1.128   2.195  1.00  0.00    -0.346 OA
BRANCH  30  31
HETATM   31  C8  UNL     1       2.444   2.073   1.867  1.00  0.00     0.180 C 
BRANCH  31  32
HETATM   32  C9  UNL     1       3.013   2.590   3.173  1.00  0.00     0.010 C 
HETATM   33  C10 UNL     1       4.116   3.607   2.915  1.00  0.00     0.007 C 
HETATM   34  C11 UNL     1       4.122   4.605   4.044  1.00  0.00     0.000 C 
HETATM   35  C12 UNL     1       2.936   5.536   3.830  1.00  0.00     0.000 C 
HETATM   36  C13 UNL     1       1.708   4.678   3.563  1.00  0.00     0.000 C 
HETATM   37  C14 UNL     1       1.925   3.249   4.015  1.00  0.00     0.007 C 
ENDBRANCH  31  32
ENDBRANCH  30  31
ENDBRANCH   6  30
TORSDOF 6
