REMARK  8 active torsions:
REMARK  status: ('A' for Active; 'I' for Inactive)
REMARK    1  A    between atoms: C2_2  and  C5_5 
REMARK    2  A    between atoms: C5_5  and  O1_6 
REMARK    3  A    between atoms: O1_6  and  C6_7 
REMARK       I    between atoms: C6_7  and  N1_9 
REMARK    4  A    between atoms: N1_9  and  C7_10 
REMARK    5  A    between atoms: N1_9  and  C13_19 
REMARK    6  A    between atoms: C13_19  and  C14_20 
REMARK    7  A    between atoms: C13_19  and  C15_23 
REMARK    8  A    between atoms: C16_24  and  C17_25 
ROOT
HETATM    1  C6  UNL     1       1.222   0.901   0.332  1.00  0.00     0.368 C 
HETATM    2  O2  UNL     1       1.633   1.885   1.065  1.00  0.00    -0.238 OA
HETATM    3  N1  UNL     1       0.144   1.114  -0.517  1.00  0.00    -0.276 N 
ENDROOT
BRANCH   3   4
HETATM    4  C7  UNL     1      -0.312   2.511  -0.550  1.00  0.00     0.044 A 
HETATM    5  C8  UNL     1       0.361   3.359  -1.380  1.00  0.00     0.055 A 
HETATM    6  C9  UNL     1      -0.024   4.694  -1.434  1.00  0.00     0.062 A 
HETATM    7 CL1  UNL     1       0.870   5.745  -2.514  1.00  0.00    -0.082 Cl
HETATM    8  C10 UNL     1      -1.067   5.129  -0.654  1.00  0.00     0.089 A 
HETATM    9  N2  UNL     1      -1.430   6.495  -0.729  1.00  0.00    -0.099 NA
HETATM   10  C11 UNL     1      -1.753   4.264   0.193  1.00  0.00     0.062 A 
HETATM   11 CL2  UNL     1      -3.070   4.881   1.160  1.00  0.00    -0.082 Cl
HETATM   12  C12 UNL     1      -1.353   2.931   0.232  1.00  0.00     0.055 A 
ENDBRANCH   3   4
BRANCH   3  13
HETATM   13  C13 UNL     1      -0.600   0.179  -1.322  1.00  0.00     0.214 C 
BRANCH  13  14
HETATM   14  C14 UNL     1       0.313  -0.529  -2.235  1.00  0.00     0.258 C 
HETATM   15  N3  UNL     1       1.680  -0.314  -2.413  1.00  0.00    -0.060 NA
HETATM   16  O3  UNL     1      -0.202  -1.449  -2.955  1.00  0.00    -0.274 OA
ENDBRANCH  13  14
BRANCH  13  17
HETATM   17  C15 UNL     1      -1.388  -0.723  -0.434  1.00  0.00    -0.038 C 
HETATM   18  C16 UNL     1      -2.714  -0.854  -0.423  1.00  0.00    -0.003 C 
HETATM   19  C19 UNL     1      -3.097  -1.817   0.684  1.00  0.00     0.066 C 
HETATM   20  C20 UNL     1      -1.901  -2.661   0.852  1.00  0.00     0.041 C 
HETATM   21  C21 UNL     1      -1.860  -3.760  -0.163  1.00  0.00     0.033 C 
HETATM   22 CL3  UNL     1      -1.713  -3.280   2.513  1.00  0.00    -0.119 Cl
HETATM   23  C22 UNL     1      -0.782  -1.650   0.557  1.00  0.00     0.062 C 
BRANCH  18  24
HETATM   24  C17 UNL     1      -3.783  -0.228  -1.202  1.00  0.00     0.264 C 
HETATM   25  C18 UNL     1      -4.621   0.633  -0.272  1.00  0.00     0.095 C 
HETATM   26  F1  UNL     1      -4.667  -1.303  -1.523  1.00  0.00    -0.202 F 
HETATM   27  F2  UNL     1      -3.499   0.331  -2.386  1.00  0.00    -0.202 F 
ENDBRANCH  18  24
ENDBRANCH  13  17
ENDBRANCH   3  13
BRANCH   1  28
HETATM   28  O1  UNL     1       1.949  -0.247   0.509  1.00  0.00    -0.303 OA
BRANCH  28  29
HETATM   29  C5  UNL     1       3.045  -0.321   1.413  1.00  0.00     0.189 C 
BRANCH  29  30
HETATM   30  C2  UNL     1       3.644  -1.679   1.356  1.00  0.00    -0.029 C 
HETATM   31  C1  UNL     1       4.141  -1.984  -0.060  1.00  0.00     0.016 C 
HETATM   32  C3  UNL     1       2.696  -2.747   1.777  1.00  0.00     0.016 C 
HETATM   33  C4  UNL     1       4.880  -1.792   2.245  1.00  0.00     0.016 C 
ENDBRANCH  29  30
ENDBRANCH  28  29
ENDBRANCH   1  28
TORSDOF 8
