REMARK  1 active torsions:
REMARK  status: ('A' for Active; 'I' for Inactive)
REMARK    1  A    between atoms: C6_7  and  C7_8 
ROOT
HETATM    1  C7  UNL     1      -0.384  -0.343  -0.502  1.00  0.00     0.028 C 
HETATM    2  C8  UNL     1      -1.240  -1.286   0.283  1.00  0.00    -0.007 C 
HETATM    3  C9  UNL     1      -2.626  -1.273  -0.344  1.00  0.00     0.010 C 
HETATM    4  C10 UNL     1      -3.195   0.115  -0.444  1.00  0.00    -0.013 C 
HETATM    5  C11 UNL     1      -3.198   0.811   0.918  1.00  0.00     0.010 C 
HETATM    6  C12 UNL     1      -1.684   0.834   1.174  1.00  0.00    -0.009 C 
HETATM    7  C13 UNL     1      -1.346  -0.594   1.621  1.00  0.00     0.010 C 
HETATM    8  C14 UNL     1      -1.061   0.996  -0.190  1.00  0.00    -0.004 C 
HETATM    9  C15 UNL     1      -2.235   1.060  -1.178  1.00  0.00     0.010 C 
ENDROOT
BRANCH   1  10
HETATM   10  C6  UNL     1       1.033  -0.272  -0.057  1.00  0.00     0.233 C 
HETATM   11  C3  UNL     1       1.810   0.709  -0.916  1.00  0.00     0.048 C 
HETATM   12  C2  UNL     1       2.942   1.228  -0.068  1.00  0.00     0.010 C 
HETATM   13  C4  UNL     1       2.285  -0.499  -1.690  1.00  0.00     0.279 C 
HETATM   14  C1  UNL     1       3.419   0.131   0.832  1.00  0.00     0.031 C 
HETATM   15  C5  UNL     1       3.107  -1.244   0.356  1.00  0.00     0.273 C 
HETATM   16  N1  UNL     1       1.924  -1.297  -0.505  1.00  0.00     0.094 N 
ENDBRANCH   1  10
TORSDOF 1
