REMARK  2 active torsions:
REMARK  status: ('A' for Active; 'I' for Inactive)
REMARK    1  A    between atoms: O1_2  and  C2_3 
REMARK    2  A    between atoms: C3_8  and  N3_9 
REMARK       I    between atoms: N4_12  and  C4_13 
ROOT
HETATM    1  C2  UNL     1       0.559   0.262  -0.439  1.00  0.00     0.264 A 
HETATM    2  N1  UNL     1       1.113   1.476  -0.306  1.00  0.00    -0.250 N 
ATOM      3  H1  UNL     1       2.071   1.705  -0.570  1.00  0.00     0.191 HD
HETATM    4  N2  UNL     1       0.257   2.335   0.210  1.00  0.00    -0.129 N 
ATOM      5  H2  UNL     1       0.430   3.320   0.411  1.00  0.00     0.205 HD
HETATM    6  C3  UNL     1      -0.887   1.665   0.420  1.00  0.00     0.704 A 
HETATM    7  N4  UNL     1      -0.696   0.398   0.020  1.00  0.00    -0.058 N 
HETATM    8  C4  UNL     1      -1.671  -0.638   0.075  1.00  0.00     0.356 C 
HETATM    9  N5  UNL     1      -1.424  -1.957  -0.360  1.00  0.00    -0.039 NA
HETATM   10  O2  UNL     1      -2.832  -0.368   0.540  1.00  0.00    -0.249 OA
ENDROOT
BRANCH   6  11
HETATM   11  N3  UNL     1      -1.953   2.193   0.919  1.00  0.00    -0.233 N 
ATOM     12  H32 UNL     1      -2.098   3.156   1.223  1.00  0.00     0.174 HD
ATOM     13  H31 UNL     1      -2.822   1.684   1.079  1.00  0.00     0.174 HD
ENDBRANCH   6  11
BRANCH   1  14
HETATM   14  O1  UNL     1       1.164  -0.904  -0.951  1.00  0.00    -0.325 OA
HETATM   15  C1  UNL     1       1.951  -1.760  -0.169  1.00  0.00     0.213 C 
ENDBRANCH   1  14
TORSDOF 2
