REMARK  12 active torsions:
REMARK  status: ('A' for Active; 'I' for Inactive)
REMARK    1  A    between atoms: C2_2  and  C3_3 
REMARK    2  A    between atoms: C3_3  and  N1_4 
REMARK       I    between atoms: N1_4  and  C4_6 
REMARK       I    between atoms: C4_6  and  N2_8 
REMARK    3  A    between atoms: N2_8  and  C5_9 
REMARK    4  A    between atoms: N2_8  and  C13_25 
REMARK    5  A    between atoms: C5_9  and  C6_10 
REMARK    6  A    between atoms: C6_10  and  C7_11 
REMARK    7  A    between atoms: C8_13  and  C9_14 
REMARK    8  A    between atoms: C10_16  and  O3_17 
REMARK    9  A    between atoms: C11_19  and  O4_20 
REMARK   10  A    between atoms: C12_22  and  O5_23 
REMARK   11  A    between atoms: C13_25  and  C15_27 
REMARK   12  A    between atoms: C13_25  and  C21_33 
ROOT
HETATM    1  N1  UNL     1      -0.827   2.863  -0.648  1.00  0.00    -0.340 N 
ATOM      2  H1  UNL     1       0.169   2.644  -0.668  1.00  0.00     0.164 HD
HETATM    3  C4  UNL     1      -1.763   1.823  -0.474  1.00  0.00     0.319 C 
HETATM    4  O1  UNL     1      -2.939   2.220  -0.463  1.00  0.00    -0.247 OA
HETATM    5  N2  UNL     1      -1.457   0.452  -0.319  1.00  0.00    -0.320 N 
ENDROOT
BRANCH   5   6
HETATM    6  C5  UNL     1       0.005   0.221  -0.462  1.00  0.00     0.131 C 
BRANCH   6   7
HETATM    7  C6  UNL     1       0.778   0.442   0.800  1.00  0.00     0.054 C 
BRANCH   7   8
HETATM    8  C7  UNL     1       2.257   0.306   0.687  1.00  0.00     0.155 C 
HETATM    9  O2  UNL     1       2.834   1.161  -0.210  1.00  0.00    -0.374 OA
HETATM   10  C8  UNL     1       4.188   1.143  -0.203  1.00  0.00     0.167 C 
HETATM   11  C10 UNL     1       4.840  -0.203  -0.254  1.00  0.00     0.179 C 
HETATM   12  C11 UNL     1       4.229  -1.210   0.699  1.00  0.00     0.180 C 
HETATM   13  C12 UNL     1       2.703  -1.113   0.644  1.00  0.00     0.178 C 
BRANCH  10  14
HETATM   14  C9  UNL     1       4.813   1.977   0.899  1.00  0.00     0.149 C 
HETATM   15 CL1  UNL     1       6.585   1.842   0.746  1.00  0.00    -0.128 Cl
ENDBRANCH  10  14
BRANCH  11  16
HETATM   16  O3  UNL     1       4.753  -0.752  -1.553  1.00  0.00    -0.390 OA
ATOM     17  H3  UNL     1       5.167  -1.606  -1.585  1.00  0.00     0.210 HD
ENDBRANCH  11  16
BRANCH  12  18
HETATM   18  O4  UNL     1       4.702  -1.092   2.001  1.00  0.00    -0.390 OA
ATOM     19  H4  UNL     1       4.319  -1.723   2.599  1.00  0.00     0.210 HD
ENDBRANCH  12  18
BRANCH  13  20
HETATM   20  O5  UNL     1       2.268  -1.802  -0.490  1.00  0.00    -0.390 OA
ATOM     21  H5  UNL     1       2.553  -2.708  -0.517  1.00  0.00     0.210 HD
ENDBRANCH  13  20
ENDBRANCH   7   8
ENDBRANCH   6   7
ENDBRANCH   5   6
BRANCH   5  22
HETATM   22  C13 UNL     1      -2.383  -0.624  -0.120  1.00  0.00     0.067 C 
HETATM   23  C14 UNL     1      -3.333  -0.419  -1.342  1.00  0.00     0.045 C 
BRANCH  22  24
HETATM   24  C15 UNL     1      -1.733  -1.950  -0.500  1.00  0.00    -0.029 A 
HETATM   25  C16 UNL     1      -1.126  -2.799   0.373  1.00  0.00     0.010 A 
HETATM   26  C17 UNL     1      -0.555  -4.024   0.012  1.00  0.00     0.001 A 
HETATM   27  C18 UNL     1      -0.597  -4.409  -1.303  1.00  0.00     0.000 A 
HETATM   28  C19 UNL     1      -1.189  -3.599  -2.223  1.00  0.00     0.001 A 
HETATM   29  C20 UNL     1      -1.734  -2.410  -1.816  1.00  0.00     0.010 A 
ENDBRANCH  22  24
BRANCH  22  30
HETATM   30  C21 UNL     1      -3.259  -0.738   1.037  1.00  0.00    -0.022 C 
HETATM   31  C22 UNL     1      -4.114  -2.051   0.964  1.00  0.00     0.017 C 
HETATM   32  C23 UNL     1      -2.639  -0.827   2.417  1.00  0.00     0.017 C 
HETATM   33  C24 UNL     1      -4.375   0.285   1.228  1.00  0.00     0.017 C 
ENDBRANCH  22  30
ENDBRANCH   5  22
BRANCH   1  34
HETATM   34  C3  UNL     1      -1.257   4.231  -0.798  1.00  0.00     0.150 C 
BRANCH  34  35
HETATM   35  C2  UNL     1      -0.108   5.143  -0.978  1.00  0.00    -0.018 C 
HETATM   36  C1  UNL     1       0.031   5.886  -2.056  1.00  0.00     0.008 C 
ENDBRANCH  34  35
ENDBRANCH   1  34
TORSDOF 12
