REMARK  20 active torsions:
REMARK  status: ('A' for Active; 'I' for Inactive)
REMARK    1  A    between atoms: C2_2  and  C3_3 
REMARK    2  A    between atoms: C3_3  and  N1_4 
REMARK       I    between atoms: N1_4  and  C4_6 
REMARK    3  A    between atoms: C4_6  and  O2_8 
REMARK    4  A    between atoms: O2_8  and  C5_9 
REMARK    5  A    between atoms: C6_10  and  O3_11 
REMARK    6  A    between atoms: C10_17  and  N2_18 
REMARK       I    between atoms: N2_18  and  C11_20 
REMARK    7  A    between atoms: C11_20  and  C12_22 
REMARK    8  A    between atoms: C12_22  and  N3_24 
REMARK       I    between atoms: N3_24  and  C14_26 
REMARK    9  A    between atoms: C14_26  and  C15_28 
REMARK   10  A    between atoms: C15_28  and  C16_29 
REMARK   11  A    between atoms: C16_29  and  C17_30 
REMARK   12  A    between atoms: C16_29  and  N4_34 
REMARK   13  A    between atoms: C17_30  and  C18_31 
REMARK   14  A    between atoms: N4_34  and  C21_36 
REMARK   15  A    between atoms: C21_36  and  O6_37 
REMARK   16  A    between atoms: C21_36  and  C22_39 
REMARK   17  A    between atoms: C22_39  and  C23_40 
REMARK   18  A    between atoms: C22_39  and  N5_43 
REMARK   19  A    between atoms: C28_46  and  C29_47 
REMARK   20  A    between atoms: C29_47  and  N6_48 
ROOT
HETATM    1  N3  UNL     1      -1.558  -0.300   1.927  1.00  0.00    -0.345 N 
ATOM      2  H3  UNL     1      -1.968  -1.170   1.587  1.00  0.00     0.163 HD
HETATM    3  C14 UNL     1      -0.158  -0.022   1.718  1.00  0.00     0.240 C 
HETATM    4  O5  UNL     1       0.241   1.059   2.187  1.00  0.00    -0.269 OA
ENDROOT
BRANCH   3   5
HETATM    5  C15 UNL     1       0.726  -0.927   1.017  1.00  0.00     0.072 C 
BRANCH   5   6
HETATM    6  C16 UNL     1       2.138  -1.104   1.397  1.00  0.00     0.112 C 
BRANCH   6   7
HETATM    7  C17 UNL     1       2.381  -1.701   2.720  1.00  0.00     0.033 C 
BRANCH   7   8
HETATM    8  C18 UNL     1       1.999  -1.087   3.984  1.00  0.00    -0.021 C 
HETATM    9  C19 UNL     1       2.660   0.229   4.327  1.00  0.00     0.009 C 
HETATM   10  C20 UNL     1       2.326  -2.096   5.115  1.00  0.00     0.009 C 
ENDBRANCH   7   8
ENDBRANCH   6   7
BRANCH   6  11
HETATM   11  N4  UNL     1       2.796  -1.868   0.321  1.00  0.00    -0.365 N 
ATOM     12  H4  UNL     1       2.438  -2.782   0.043  1.00  0.00     0.162 HD
BRANCH  11  13
HETATM   13  C21 UNL     1       3.914  -1.326  -0.312  1.00  0.00     0.146 C 
BRANCH  13  14
HETATM   14  O6  UNL     1       4.268  -0.160   0.142  1.00  0.00    -0.348 OA
ATOM     15  H6  UNL     1       5.030   0.209  -0.289  1.00  0.00     0.219 HD
ENDBRANCH  13  14
BRANCH  13  16
HETATM   16  C22 UNL     1       4.729  -1.878  -1.397  1.00  0.00     0.299 C 
BRANCH  16  17
HETATM   17  C23 UNL     1       5.031  -3.328  -1.353  1.00  0.00     0.019 C 
HETATM   18  C24 UNL     1       5.757  -3.769  -0.102  1.00  0.00     0.012 C 
HETATM   19  C25 UNL     1       3.834  -4.187  -1.570  1.00  0.00     0.012 C 
ENDBRANCH  16  17
BRANCH  16  20
HETATM   20  N5  UNL     1       5.875  -1.032  -1.634  1.00  0.00     0.101 N 
HETATM   21  C26 UNL     1       5.486   0.270  -2.070  1.00  0.00     0.274 C 
HETATM   22  C27 UNL     1       6.168   0.661  -3.383  1.00  0.00     0.036 C 
HETATM   23  C28 UNL     1       7.643   0.731  -3.087  1.00  0.00     0.014 C 
HETATM   24  C30 UNL     1       8.057  -0.589  -2.531  1.00  0.00     0.036 C 
HETATM   25  C31 UNL     1       6.916  -1.594  -2.417  1.00  0.00     0.274 C 
BRANCH  23  26
HETATM   26  C29 UNL     1       7.989   1.808  -2.071  1.00  0.00     0.234 C 
BRANCH  26  27
HETATM   27  N6  UNL     1       7.606   3.128  -2.502  1.00  0.00    -0.079 N 
ATOM     28  H63 UNL     1       8.007   3.345  -3.414  1.00  0.00     0.274 HD
ATOM     29  H62 UNL     1       6.616   3.160  -2.744  1.00  0.00     0.274 HD
ATOM     30  H61 UNL     1       7.838   3.850  -1.820  1.00  0.00     0.274 HD
ENDBRANCH  26  27
ENDBRANCH  23  26
ENDBRANCH  16  20
ENDBRANCH  13  16
ENDBRANCH  11  13
ENDBRANCH   6  11
ENDBRANCH   5   6
ENDBRANCH   3   5
BRANCH   1  31
HETATM   31  C12 UNL     1      -2.372   0.667   2.623  1.00  0.00     0.172 C 
HETATM   32  C13 UNL     1      -2.612   0.110   4.050  1.00  0.00     0.042 C 
BRANCH  31  33
HETATM   33  C11 UNL     1      -3.712   0.793   2.028  1.00  0.00     0.240 C 
HETATM   34  N2  UNL     1      -4.506   1.975   2.063  1.00  0.00    -0.351 N 
ATOM     35  H2  UNL     1      -4.143   2.813   2.518  1.00  0.00     0.163 HD
HETATM   36  O4  UNL     1      -4.184  -0.232   1.443  1.00  0.00    -0.271 OA
BRANCH  34  37
HETATM   37  C10 UNL     1      -5.823   2.001   1.460  1.00  0.00     0.131 C 
HETATM   38  C5  UNL     1      -5.570   2.476  -0.009  1.00  0.00     0.186 C 
HETATM   39  C6  UNL     1      -5.412   3.963   0.072  1.00  0.00     0.150 C 
HETATM   40  C7  UNL     1      -6.789   4.581   0.246  1.00  0.00     0.035 C 
HETATM   41  C8  UNL     1      -7.572   3.776   1.231  1.00  0.00     0.021 C 
HETATM   42  C9  UNL     1      -6.702   2.954   2.174  1.00  0.00     0.084 C 
HETATM   43  S1  UNL     1      -7.823   2.082   3.310  1.00  0.00    -0.090 SA
BRANCH  38  44
HETATM   44  O2  UNL     1      -6.634   2.062  -0.807  1.00  0.00    -0.294 OA
BRANCH  44  45
HETATM   45  C4  UNL     1      -6.544   1.131  -1.854  1.00  0.00     0.361 C 
HETATM   46  N1  UNL     1      -7.684   0.774  -2.605  1.00  0.00    -0.337 N 
ATOM     47  H1  UNL     1      -8.580   1.211  -2.391  1.00  0.00     0.164 HD
HETATM   48  O1  UNL     1      -5.393   0.667  -2.043  1.00  0.00    -0.239 OA
BRANCH  46  49
HETATM   49  C3  UNL     1      -7.608  -0.188  -3.661  1.00  0.00     0.124 C 
BRANCH  49  50
HETATM   50  C2  UNL     1      -7.183  -1.525  -3.113  1.00  0.00     0.015 C 
HETATM   51  C1  UNL     1      -7.104  -2.584  -4.203  1.00  0.00     0.006 C 
ENDBRANCH  49  50
ENDBRANCH  46  49
ENDBRANCH  44  45
ENDBRANCH  38  44
BRANCH  39  52
HETATM   52  O3  UNL     1      -4.802   4.450  -1.095  1.00  0.00    -0.393 OA
ATOM     53  H3  UNL     1      -4.702   5.393  -1.044  1.00  0.00     0.210 HD
ENDBRANCH  39  52
ENDBRANCH  34  37
ENDBRANCH  31  33
ENDBRANCH   1  31
TORSDOF 20
