REMARK  3 active torsions:
REMARK  status: ('A' for Active; 'I' for Inactive)
REMARK    1  A    between atoms: N1_1  and  C1_4 
REMARK    2  A    between atoms: C2_7  and  N3_8 
REMARK    3  A    between atoms: N3_8  and  N4_10 
ROOT
HETATM    1  C1  UNL     1       0.104   2.367   0.263  1.00  0.00     0.678 A 
HETATM    2  N2  UNL     1       1.314   1.739   0.326  1.00  0.00    -0.173 N 
ATOM      3  H2  UNL     1       2.161   2.287   0.475  1.00  0.00     0.186 HD
HETATM    4  C2  UNL     1       1.397   0.405   0.193  1.00  0.00     0.165 A 
HETATM    5  C3  UNL     1       0.237  -0.314  -0.007  1.00  0.00     0.121 A 
HETATM    6  N5  UNL     1       0.313  -1.652  -0.141  1.00  0.00    -0.292 N 
ATOM      7  H5  UNL     1       1.233  -2.089  -0.089  1.00  0.00     0.187 HD
HETATM    8  N6  UNL     1      -0.738  -2.432  -0.336  1.00  0.00    -0.266 N 
ATOM      9  H6  UNL     1      -0.644  -3.443  -0.433  1.00  0.00     0.190 HD
HETATM   10  C4  UNL     1      -1.935  -1.825  -0.400  1.00  0.00     0.262 A 
HETATM   11  O1  UNL     1      -2.961  -2.526  -0.584  1.00  0.00    -0.267 OA
HETATM   12  C5  UNL     1      -2.116  -0.463  -0.275  1.00  0.00     0.108 A 
HETATM   13  C6  UNL     1      -1.006   0.328  -0.072  1.00  0.00     0.086 A 
HETATM   14  N7  UNL     1      -1.031   1.655   0.066  1.00  0.00    -0.190 N 
ATOM     15  H7  UNL     1      -1.925   2.144   0.022  1.00  0.00     0.184 HD
ENDROOT
BRANCH   4  16
HETATM   16  N3  UNL     1       2.499  -0.230   0.244  1.00  0.00    -0.290 N 
ATOM     17  H3  UNL     1       3.339   0.330   0.393  1.00  0.00     0.188 HD
BRANCH  16  18
HETATM   18  N4  UNL     1       2.681  -1.579   0.121  1.00  0.00    -0.344 N 
ATOM     19  H42 UNL     1       1.830  -2.122  -0.027  1.00  0.00     0.176 HD
ATOM     20  H41 UNL     1       3.564  -2.088   0.162  1.00  0.00     0.176 HD
ENDBRANCH  16  18
ENDBRANCH   4  16
BRANCH   1  21
HETATM   21  N1  UNL     1       0.077   3.657   0.396  1.00  0.00    -0.234 N 
ATOM     22  H12 UNL     1       0.932   4.193   0.544  1.00  0.00     0.174 HD
ATOM     23  H11 UNL     1      -0.827   4.126   0.349  1.00  0.00     0.174 HD
ENDBRANCH   1  21
TORSDOF 3
