REMARK  3 active torsions:
REMARK  status: ('A' for Active; 'I' for Inactive)
REMARK    1  A    between atoms: O1_1  and  C1_3 
REMARK    2  A    between atoms: C7_14  and  C8_15 
REMARK    3  A    between atoms: C9_16  and  C10_17 
ROOT
HETATM    1  C1  UNL     1      -2.762   0.545   0.199  1.00  0.00     0.198 A 
HETATM    2  O2  UNL     1      -4.000   0.554  -0.206  1.00  0.00    -0.263 OA
HETATM    3  C2  UNL     1      -4.762  -0.400  -0.590  1.00  0.00     0.201 A 
HETATM    4  N1  UNL     1      -5.973  -0.168  -0.955  1.00  0.00    -0.294 N 
ATOM      5  H1  UNL     1      -6.578  -0.930  -1.261  1.00  0.00     0.177 HD
HETATM    6  S1  UNL     1      -6.567   1.485  -0.917  1.00  0.00     0.044 SA
HETATM    7  S2  UNL     1      -4.009  -1.922  -0.556  1.00  0.00    -0.045 SA
HETATM    8  C3  UNL     1      -2.377  -1.839  -0.008  1.00  0.00     0.024 A 
HETATM    9  C4  UNL     1      -1.582  -2.968   0.071  1.00  0.00     0.020 A 
HETATM   10  C5  UNL     1      -0.280  -2.852   0.494  1.00  0.00     0.002 A 
HETATM   11  C6  UNL     1       0.160  -1.598   0.819  1.00  0.00     0.012 A 
HETATM   12  C7  UNL     1      -0.597  -0.441   0.755  1.00  0.00    -0.020 A 
HETATM   13  C16 UNL     1      -1.937  -0.553   0.318  1.00  0.00     0.050 A 
ENDROOT
BRANCH  12  14
HETATM   14  C8  UNL     1      -0.014   0.813   1.080  1.00  0.00     0.013 C 
HETATM   15  C9  UNL     1       1.114   1.414   0.844  1.00  0.00     0.012 C 
BRANCH  15  16
HETATM   16  C10 UNL     1       2.307   1.138   0.147  1.00  0.00    -0.036 A 
HETATM   17  C11 UNL     1       2.508   0.214  -0.849  1.00  0.00     0.011 A 
HETATM   18  C12 UNL     1       3.736  -0.056  -1.432  1.00  0.00     0.001 A 
HETATM   19  C13 UNL     1       4.845   0.627  -1.013  1.00  0.00     0.000 A 
HETATM   20  C14 UNL     1       4.697   1.562  -0.022  1.00  0.00     0.001 A 
HETATM   21  C15 UNL     1       3.475   1.822   0.551  1.00  0.00     0.011 A 
ENDBRANCH  15  16
ENDBRANCH  12  14
BRANCH   1  22
HETATM   22  O1  UNL     1      -2.268   1.705   0.516  1.00  0.00    -0.340 OA
ATOM     23  H1  UNL     1      -1.365   1.698   0.811  1.00  0.00     0.220 HD
ENDBRANCH   1  22
TORSDOF 3
