REMARK  4 active torsions:
REMARK  status: ('A' for Active; 'I' for Inactive)
REMARK    1  A    between atoms: C1_4  and  N2_5 
REMARK    2  A    between atoms: C1_4  and  C11_18 
REMARK    3  A    between atoms: N2_5  and  C2_7 
REMARK    4  A    between atoms: C15_22  and  N3_23 
ROOT
HETATM    1  N1  UNL     1      -1.294  -0.609   2.366  1.00  0.00    -0.385 N 
ATOM      2  H11 UNL     1      -2.165  -0.274   2.777  1.00  0.00     0.157 HD
ATOM      3  H12 UNL     1      -0.594  -1.002   2.995  1.00  0.00     0.157 HD
HETATM    4  C1  UNL     1      -1.074  -0.548   1.131  1.00  0.00     0.109 C 
ENDROOT
BRANCH   4   5
HETATM    5  N2  UNL     1       0.163  -1.024   0.547  1.00  0.00    -0.341 N 
ATOM      6  H2  UNL     1       0.186  -1.926   0.072  1.00  0.00     0.167 HD
BRANCH   5   7
HETATM    7  C2  UNL     1       1.324  -0.253   0.631  1.00  0.00     0.052 A 
HETATM    8  C3  UNL     1       1.255   0.981   1.289  1.00  0.00     0.113 A 
HETATM    9  C4  UNL     1       2.415   1.711   1.352  1.00  0.00     0.290 A 
HETATM   10  O1  UNL     1       2.338   2.833   1.955  1.00  0.00    -0.260 OA
HETATM   11  O2  UNL     1       3.536   1.284   0.825  1.00  0.00    -0.275 OA
HETATM   12  C5  UNL     1       3.633   0.136   0.203  1.00  0.00     0.091 A 
HETATM   13  C6  UNL     1       4.820  -0.307  -0.350  1.00  0.00     0.038 A 
HETATM   14  C10 UNL     1       2.520  -0.702   0.072  1.00  0.00     0.025 A 
HETATM   15  C7  UNL     1       4.962  -1.508  -1.012  1.00  0.00     0.003 A 
HETATM   16  C8  UNL     1       3.826  -2.302  -1.114  1.00  0.00     0.001 A 
HETATM   17  C9  UNL     1       2.627  -1.904  -0.581  1.00  0.00     0.016 A 
ENDBRANCH   5   7
ENDBRANCH   4   5
BRANCH   4  18
HETATM   18  C11 UNL     1      -2.083   0.018   0.225  1.00  0.00     0.010 A 
HETATM   19  C12 UNL     1      -1.778   0.055  -1.122  1.00  0.00     0.015 A 
HETATM   20  C13 UNL     1      -2.645   0.561  -2.052  1.00  0.00     0.003 A 
HETATM   21  C14 UNL     1      -3.865   1.053  -1.650  1.00  0.00     0.036 A 
HETATM   22  C15 UNL     1      -4.181   1.018  -0.289  1.00  0.00     0.103 A 
HETATM   23  C16 UNL     1      -3.286   0.501   0.632  1.00  0.00     0.051 A 
BRANCH  22  24
HETATM   24  N3  UNL     1      -5.430   1.517   0.155  1.00  0.00    -0.116 N 
HETATM   25  O3  UNL     1      -6.280   1.995  -0.621  1.00  0.00    -0.532 OA
HETATM   26  O4  UNL     1      -5.714   1.471   1.494  1.00  0.00    -0.532 OA
ENDBRANCH  22  24
ENDBRANCH   4  18
TORSDOF 4
