REMARK  2 active torsions:
REMARK  status: ('A' for Active; 'I' for Inactive)
REMARK       I    between atoms: N1_2  and  C2_4 
REMARK       I    between atoms: N3_6  and  C3_8 
REMARK    1  A    between atoms: C3_8  and  C4_10 
REMARK    2  A    between atoms: C5_11  and  C6_12 
ROOT
HETATM    1  C4  UNL     1       2.146  -0.575   0.076  1.00  0.00     0.074 C 
HETATM    2  C5  UNL     1       0.937  -0.182  -0.073  1.00  0.00     0.008 C 
ENDROOT
BRANCH   2   3
HETATM    3  C6  UNL     1       0.399   1.131   0.227  1.00  0.00     0.032 C 
HETATM    4  C7  UNL     1      -0.917   1.386   0.009  1.00  0.00     0.047 C 
HETATM    5  C8  UNL     1      -1.611   2.670   0.264  1.00  0.00     0.067 C 
HETATM    6  O2  UNL     1      -1.884   0.529  -0.489  1.00  0.00    -0.344 OA
HETATM    7  C9  UNL     1      -3.038   2.206   0.579  1.00  0.00     0.045 C 
HETATM    8  C10 UNL     1      -3.153   0.816   0.073  1.00  0.00     0.068 C 
HETATM    9  C11 UNL     1      -4.270   0.625  -0.908  1.00  0.00     0.038 C 
HETATM   10  C15 UNL     1      -3.297  -0.108   1.280  1.00  0.00     0.038 C 
HETATM   11  C12 UNL     1      -4.548  -0.785  -1.245  1.00  0.00     0.003 C 
HETATM   12  C13 UNL     1      -4.423  -1.752  -0.105  1.00  0.00     0.000 C 
HETATM   13  C14 UNL     1      -3.176  -1.511   0.721  1.00  0.00     0.003 C 
ENDBRANCH   2   3
BRANCH   1  14
HETATM   14  C3  UNL     1       3.245   0.180   0.570  1.00  0.00     0.247 C 
HETATM   15  N3  UNL     1       4.572  -0.392   0.689  1.00  0.00    -0.298 N 
HETATM   16  C2  UNL     1       5.173  -0.885  -0.339  1.00  0.00     0.190 C 
ATOM     17  H3  UNL     1       5.036  -0.404   1.597  1.00  0.00     0.171 HD
HETATM   18  N1  UNL     1       6.474  -1.453  -0.263  1.00  0.00    -0.369 N 
HETATM   19  N2  UNL     1       4.494  -0.848  -1.585  1.00  0.00    -0.063 NA
HETATM   20  C1  UNL     1       7.599  -0.562  -0.386  1.00  0.00     0.148 C 
ATOM     21  H1  UNL     1       6.606  -2.455  -0.126  1.00  0.00     0.161 HD
HETATM   22  O1  UNL     1       3.170   1.368   0.937  1.00  0.00    -0.268 OA
ENDBRANCH   1  14
TORSDOF 2
