REMARK  10 active torsions:
REMARK  status: ('A' for Active; 'I' for Inactive)
REMARK    1  A    between atoms: O1_2  and  C2_3 
REMARK    2  A    between atoms: C2_3  and  O2_4 
REMARK    3  A    between atoms: C3_6  and  N2_9 
REMARK    4  A    between atoms: N2_9  and  O3_10 
REMARK    5  A    between atoms: O3_10  and  C5_11 
REMARK    6  A    between atoms: C5_11  and  C6_12 
REMARK    7  A    between atoms: C6_12  and  O4_13 
REMARK    8  A    between atoms: C6_12  and  C7_15 
REMARK    9  A    between atoms: C7_15  and  N3_16 
REMARK   10  A    between atoms: N3_16  and  N4_18 
ROOT
HETATM    1  C2  UNL     1       6.385  -0.241   0.454  1.00  0.00     0.234 C 
HETATM    2  C3  UNL     1       5.569  -1.383   0.107  1.00  0.00     0.276 C 
HETATM    3  C4  UNL     1       5.905  -2.649   0.832  1.00  0.00     0.141 C 
HETATM    4  N1  UNL     1       6.147  -3.629   1.357  1.00  0.00    -0.188 NA
ENDROOT
BRANCH   2   5
HETATM    5  N2  UNL     1       4.646  -1.417  -0.612  1.00  0.00    -0.265 NA
BRANCH   5   6
HETATM    6  O3  UNL     1       3.685  -1.127  -1.448  1.00  0.00    -0.205 OA
BRANCH   6   7
HETATM    7  C5  UNL     1       2.522  -0.395  -0.782  1.00  0.00     0.254 C 
BRANCH   7   8
HETATM    8  C6  UNL     1       1.396  -1.398  -0.977  1.00  0.00     0.184 C 
BRANCH   8   9
HETATM    9  O4  UNL     1       2.018  -2.653  -0.486  1.00  0.00    -0.388 OA
ATOM     10  H4  UNL     1       1.314  -3.280  -0.608  1.00  0.00     0.210 HD
ENDBRANCH   8   9
BRANCH   8  11
HETATM   11  C7  UNL     1       0.344  -1.196   0.066  1.00  0.00     0.108 C 
BRANCH  11  12
HETATM   12  N3  UNL     1      -0.487  -0.110  -0.212  1.00  0.00    -0.330 N 
ATOM     13  H3  UNL     1      -0.280   0.547  -0.964  1.00  0.00     0.179 HD
BRANCH  12  14
HETATM   14  N4  UNL     1      -1.631   0.029   0.605  1.00  0.00    -0.213 NA
HETATM   15  C8  UNL     1      -1.921   1.436   0.716  1.00  0.00     0.173 C 
HETATM   16  C9  UNL     1      -3.338   1.593   0.507  1.00  0.00     0.055 A 
HETATM   17  N5  UNL     1      -4.168   2.641   0.677  1.00  0.00    -0.194 N 
HETATM   18  C12 UNL     1      -3.866   0.398   0.134  1.00  0.00     0.059 A 
HETATM   19  C10 UNL     1      -5.534   2.580   0.483  1.00  0.00     0.679 A 
ATOM     20  H5  UNL     1      -3.764   3.532   0.966  1.00  0.00     0.184 HD
HETATM   21  N6  UNL     1      -6.303   3.612   0.648  1.00  0.00    -0.234 N 
HETATM   22  N7  UNL     1      -5.973   1.386   0.121  1.00  0.00    -0.156 N 
ATOM     23  H62 UNL     1      -5.964   4.533   0.927  1.00  0.00     0.174 HD
ATOM     24  H61 UNL     1      -7.312   3.567   0.505  1.00  0.00     0.174 HD
HETATM   25  C11 UNL     1      -5.228   0.270  -0.072  1.00  0.00     0.270 A 
ATOM     26  H7  UNL     1      -6.978   1.295  -0.029  1.00  0.00     0.187 HD
HETATM   27  O5  UNL     1      -5.747  -0.809  -0.414  1.00  0.00    -0.267 OA
HETATM   28  C13 UNL     1      -2.769  -0.571  -0.034  1.00  0.00     0.060 C 
HETATM   29  C14 UNL     1      -2.493  -0.737  -1.535  1.00  0.00     0.039 C 
HETATM   30  C15 UNL     1      -3.115  -1.933   0.477  1.00  0.00     0.039 C 
ENDBRANCH  12  14
ENDBRANCH  11  12
ENDBRANCH   8  11
ENDBRANCH   7   8
ENDBRANCH   6   7
ENDBRANCH   5   6
ENDBRANCH   2   5
BRANCH   1  31
HETATM   31  O1  UNL     1       6.185   1.001  -0.010  1.00  0.00    -0.333 OA
HETATM   32  C1  UNL     1       6.958   2.105   0.369  1.00  0.00     0.212 C 
ENDBRANCH   1  31
BRANCH   1  33
HETATM   33  O2  UNL     1       7.372  -0.479   1.279  1.00  0.00    -0.338 OA
ATOM     34  H2  UNL     1       7.514  -1.359   1.608  1.00  0.00     0.220 HD
ENDBRANCH   1  33
TORSDOF 10
