REMARK  3 active torsions:
REMARK  status: ('A' for Active; 'I' for Inactive)
REMARK       I    between atoms: C2_2  and  N1_4 
REMARK       I    between atoms: C3_6  and  N2_7 
REMARK       I    between atoms: C3_6  and  N5_17 
REMARK    1  A    between atoms: N2_7  and  C4_9 
REMARK    2  A    between atoms: C4_9  and  C5_10 
REMARK       I    between atoms: C5_10  and  N3_12 
REMARK    3  A    between atoms: N3_12  and  N4_14 
ROOT
HETATM    1  C1  UNL     1      -1.075   3.635  -0.577  1.00  0.00     0.118 C 
HETATM    2  C2  UNL     1      -0.503   2.483  -1.319  1.00  0.00     0.231 C 
HETATM    3  O1  UNL     1      -1.005   2.226  -2.445  1.00  0.00    -0.273 OA
HETATM    4  N1  UNL     1       0.542   1.676  -0.856  1.00  0.00    -0.160 N 
ATOM      5  H1  UNL     1       1.488   2.017  -1.025  1.00  0.00     0.187 HD
HETATM    6  C3  UNL     1       0.441   0.574  -0.253  1.00  0.00     0.679 C 
HETATM    7  N2  UNL     1       1.653  -0.106   0.143  1.00  0.00    -0.217 N 
ATOM      8  H2  UNL     1       1.872  -0.302   1.120  1.00  0.00     0.178 HD
HETATM    9  N5  UNL     1      -0.777  -0.072   0.077  1.00  0.00    -0.218 N 
HETATM   10  C6  UNL     1      -1.333   0.179   1.368  1.00  0.00     0.141 C 
HETATM   11  C7  UNL     1      -2.629  -0.468   1.660  1.00  0.00     0.020 C 
HETATM   12  C8  UNL     1      -3.541  -0.709   0.512  1.00  0.00     0.003 C 
HETATM   13  C9  UNL     1      -2.905  -0.531  -0.842  1.00  0.00     0.020 C 
HETATM   14  C10 UNL     1      -1.454  -0.960  -0.842  1.00  0.00     0.141 C 
ENDROOT
BRANCH   7  15
HETATM   15  C4  UNL     1       2.523  -0.485  -0.924  1.00  0.00     0.242 C 
BRANCH  15  16
HETATM   16  C5  UNL     1       3.746  -1.169  -0.543  1.00  0.00     0.253 C 
HETATM   17  O2  UNL     1       4.536  -1.516  -1.480  1.00  0.00    -0.270 OA
HETATM   18  N3  UNL     1       4.109  -1.470   0.774  1.00  0.00    -0.275 N 
ATOM     19  H3  UNL     1       3.491  -1.202   1.539  1.00  0.00     0.189 HD
BRANCH  18  20
HETATM   20  N4  UNL     1       5.299  -2.129   1.055  1.00  0.00    -0.343 N 
ATOM     21  H42 UNL     1       5.906  -2.390   0.278  1.00  0.00     0.176 HD
ATOM     22  H41 UNL     1       5.564  -2.348   2.015  1.00  0.00     0.176 HD
ENDBRANCH  18  20
ENDBRANCH  15  16
ENDBRANCH   7  15
TORSDOF 3
