REMARK  4 active torsions:
REMARK  status: ('A' for Active; 'I' for Inactive)
REMARK    1  A    between atoms: C1_2  and  C2_3 
REMARK       I    between atoms: C1_2  and  N1_6 
REMARK    2  A    between atoms: C7_9  and  C8_10 
REMARK    3  A    between atoms: C8_10  and  C9_11 
REMARK    4  A    between atoms: C9_11  and  C10_12 
REMARK       I    between atoms: N2_17  and  C13_18 
REMARK       I    between atoms: C13_18  and  N3_20 
ROOT
HETATM    1  C9  UNL     1       0.390   0.810   0.038  1.00  0.00     0.022 C 
HETATM    2  C11 UNL     1       0.456  -0.608  -0.406  1.00  0.00     0.035 C 
HETATM    3  C12 UNL     1       1.617  -0.880  -1.368  1.00  0.00     0.128 C 
HETATM    4  N2  UNL     1       2.846  -0.451  -0.676  1.00  0.00    -0.334 N 
HETATM    5  C13 UNL     1       3.824  -1.395  -0.343  1.00  0.00     0.320 C 
HETATM    6  O2  UNL     1       3.531  -2.611  -0.662  1.00  0.00    -0.247 OA
HETATM    7  N3  UNL     1       5.063  -1.223   0.277  1.00  0.00    -0.331 N 
HETATM    8  C14 UNL     1       5.892  -2.418   0.521  1.00  0.00     0.155 C 
HETATM    9  C15 UNL     1       7.225  -2.300  -0.202  1.00  0.00     0.252 C 
HETATM   10  N4  UNL     1       7.815  -0.993   0.027  1.00  0.00    -0.072 N 
ATOM     11  H41 UNL     1       7.858  -0.446  -0.833  1.00  0.00     0.277 HD
ATOM     12  H42 UNL     1       8.814  -1.062   0.219  1.00  0.00     0.277 HD
HETATM   13  C16 UNL     1       7.125  -0.283   1.070  1.00  0.00     0.252 C 
HETATM   14  C17 UNL     1       5.666   0.012   0.715  1.00  0.00     0.155 C 
HETATM   15  C18 UNL     1       2.880   0.973  -0.426  1.00  0.00     0.128 C 
HETATM   16  C19 UNL     1       1.545   1.610  -0.636  1.00  0.00     0.035 C 
ENDROOT
BRANCH   1  17
HETATM   17  C8  UNL     1      -0.845   1.469  -0.483  1.00  0.00     0.020 C 
BRANCH  17  18
HETATM   18  C7  UNL     1      -2.164   1.162   0.072  1.00  0.00    -0.011 C 
HETATM   19  C6  UNL     1      -3.181   2.012  -0.718  1.00  0.00     0.024 C 
HETATM   20  C5  UNL     1      -4.353   1.206  -1.196  1.00  0.00     0.126 C 
HETATM   21  N1  UNL     1      -4.934   0.421  -0.132  1.00  0.00    -0.352 N 
HETATM   22  C1  UNL     1      -6.313   0.297   0.022  1.00  0.00     0.224 C 
HETATM   23  C21 UNL     1      -4.026  -0.233   0.770  1.00  0.00     0.126 C 
HETATM   24  O1  UNL     1      -7.084   0.870  -0.777  1.00  0.00    -0.273 OA
HETATM   25  C20 UNL     1      -2.669  -0.239   0.024  1.00  0.00     0.024 C 
BRANCH  22  26
HETATM   26  C2  UNL     1      -6.879  -0.505   1.121  1.00  0.00     0.078 A 
HETATM   27  C3  UNL     1      -8.048   0.198   1.818  1.00  0.00     0.015 A 
HETATM   28  C4  UNL     1      -8.256  -1.051   1.039  1.00  0.00     0.015 A 
ENDBRANCH  22  26
ENDBRANCH  17  18
ENDBRANCH   1  17
BRANCH   1  29
HETATM   29  C10 UNL     1       0.579   1.059   1.499  1.00  0.00     0.361 C 
HETATM   30  F1  UNL     1      -0.435   0.605   2.313  1.00  0.00    -0.214 F 
HETATM   31  F2  UNL     1       1.727   0.431   2.013  1.00  0.00    -0.214 F 
ENDBRANCH   1  29
TORSDOF 4
