REMARK  0 active torsions:
REMARK  status: ('A' for Active; 'I' for Inactive)
ROOT
HETATM    1  C1  UNL     1      -2.579   0.239   0.384  1.00  0.00     0.143 C 
HETATM    2  N1  UNL     1      -1.219  -0.019   0.166  1.00  0.00    -0.415 N 
HETATM    3  C2  UNL     1      -0.482  -0.594   1.228  1.00  0.00     0.137 C 
HETATM    4  C3  UNL     1       0.910   0.025   1.141  1.00  0.00     0.133 C 
HETATM    5  C4  UNL     1       0.756   1.442   1.481  1.00  0.00     0.067 C 
HETATM    6  N2  UNL     1       0.640   2.565   1.731  1.00  0.00    -0.197 NA
HETATM    7  C5  UNL     1       1.507  -0.166  -0.198  1.00  0.00     0.072 A 
HETATM    8  C6  UNL     1       2.801  -0.894  -0.182  1.00  0.00     0.071 C 
HETATM    9  N3  UNL     1       3.799  -1.478  -0.170  1.00  0.00    -0.196 NA
HETATM   10  C7  UNL     1       1.358   0.861  -1.269  1.00  0.00     0.034 A 
HETATM   11  C8  UNL     1       0.642  -0.436  -1.322  1.00  0.00     0.029 A 
HETATM   12  C9  UNL     1      -0.824  -0.450  -1.120  1.00  0.00     0.122 C 
ENDROOT
TORSDOF 0
