REMARK  4 active torsions:
REMARK  status: ('A' for Active; 'I' for Inactive)
REMARK    1  A    between atoms: N1_1  and  N2_4 
REMARK    2  A    between atoms: C2_12  and  C3_13 
REMARK    3  A    between atoms: C4_14  and  S1_15 
REMARK    4  A    between atoms: S1_15  and  N5_16 
ROOT
HETATM    1  N2  UNL     1       4.319  -0.387   0.110  1.00  0.00    -0.137 N 
ATOM      2  H2  UNL     1       4.674  -1.341   0.173  1.00  0.00     0.205 HD
HETATM    3  C1  UNL     1       3.055  -0.171   0.261  1.00  0.00     0.721 C 
HETATM    4  N3  UNL     1       2.566   1.163   0.173  1.00  0.00    -0.070 N 
ATOM      5  H3  UNL     1       3.280   1.872   0.003  1.00  0.00     0.215 HD
HETATM    6  O1  UNL     1       1.271   1.652   0.282  1.00  0.00    -0.141 OA
HETATM    7  N4  UNL     1       0.112   0.927   0.120  1.00  0.00    -0.236 N 
ATOM      8  H4  UNL     1      -0.705   1.508  -0.069  1.00  0.00     0.197 HD
HETATM    9  C2  UNL     1      -0.153  -0.323   0.157  1.00  0.00     0.125 C 
HETATM   10  C5  UNL     1       0.794  -1.409   0.402  1.00  0.00     0.288 C 
HETATM   11  O4  UNL     1       0.282  -2.540   0.530  1.00  0.00    -0.265 OA
HETATM   12  N6  UNL     1       2.231  -1.305   0.509  1.00  0.00    -0.151 N 
ATOM     13  H6  UNL     1       2.718  -2.153   0.800  1.00  0.00     0.188 HD
ENDROOT
BRANCH   9  14
HETATM   14  C3  UNL     1      -1.541  -0.716  -0.069  1.00  0.00     0.050 C 
HETATM   15  C4  UNL     1      -2.453   0.215  -0.297  1.00  0.00     0.133 C 
BRANCH  15  16
HETATM   16  S1  UNL     1      -4.111  -0.290  -0.564  1.00  0.00     0.246 S 
HETATM   17  O2  UNL     1      -4.492  -1.392   0.410  1.00  0.00    -0.202 OA
HETATM   18  O3  UNL     1      -4.276  -0.811  -1.971  1.00  0.00    -0.202 OA
BRANCH  16  19
HETATM   19  N5  UNL     1      -5.191   1.027  -0.278  1.00  0.00    -0.325 N 
ATOM     20  H52 UNL     1      -4.892   1.960   0.005  1.00  0.00     0.169 HD
ATOM     21  H51 UNL     1      -6.155   0.733  -0.433  1.00  0.00     0.169 HD
ENDBRANCH  16  19
ENDBRANCH  15  16
ENDBRANCH   9  14
BRANCH   1  22
HETATM   22  N1  UNL     1       5.200   0.647  -0.135  1.00  0.00    -0.331 N 
ATOM     23  H12 UNL     1       4.829   1.595  -0.195  1.00  0.00     0.177 HD
ATOM     24  H11 UNL     1       6.199   0.476  -0.254  1.00  0.00     0.177 HD
ENDBRANCH   1  22
TORSDOF 4
