REMARK  14 active torsions:
REMARK  status: ('A' for Active; 'I' for Inactive)
REMARK    1  A    between atoms: C1_2  and  C2_7 
REMARK    2  A    between atoms: N2_3  and  O1_5 
REMARK    3  A    between atoms: C4_11  and  N4_12 
REMARK    4  A    between atoms: C5_15  and  N6_16 
REMARK    5  A    between atoms: N6_16  and  C6_18 
REMARK    6  A    between atoms: C6_18  and  O2_19 
REMARK    7  A    between atoms: C6_18  and  C7_21 
REMARK    8  A    between atoms: C12_33  and  C13_34 
REMARK       I    between atoms: C13_34  and  N10_36 
REMARK    9  A    between atoms: N10_36  and  C14_38 
REMARK   10  A    between atoms: C14_38  and  C15_39 
REMARK   11  A    between atoms: C14_38  and  C16_42 
REMARK   12  A    between atoms: C15_39  and  O6_40 
REMARK   13  A    between atoms: C16_42  and  O7_43 
REMARK   14  A    between atoms: C16_42  and  O8_45 
ROOT
HETATM    1  N4  UNL     1      -0.062   0.371   0.533  1.00  0.00    -0.232 N 
HETATM    2  N5  UNL     1       1.130   0.921   0.775  1.00  0.00    -0.277 N 
ATOM      3  H5  UNL     1       1.261   1.904   1.014  1.00  0.00     0.189 HD
HETATM    4  C5  UNL     1       2.128   0.048   0.670  1.00  0.00     0.120 A 
HETATM    5  C11 UNL     1       1.536  -1.144   0.338  1.00  0.00     0.087 A 
HETATM    6  C12 UNL     1       0.158  -0.912   0.258  1.00  0.00     0.129 A 
ENDROOT
BRANCH   4   7
HETATM    7  N6  UNL     1       3.540   0.294   0.862  1.00  0.00    -0.345 N 
ATOM      8  H6  UNL     1       3.882   1.223   1.109  1.00  0.00     0.164 HD
BRANCH   7   9
HETATM    9  C6  UNL     1       4.445  -0.804   0.696  1.00  0.00     0.262 C 
BRANCH   9  10
HETATM   10  O2  UNL     1       4.141  -1.749   1.675  1.00  0.00    -0.372 OA
ATOM     11  H2  UNL     1       4.741  -2.477   1.565  1.00  0.00     0.212 HD
ENDBRANCH   9  10
BRANCH   9  12
HETATM   12  C7  UNL     1       5.849  -0.378   0.686  1.00  0.00     0.099 A 
HETATM   13  C8  UNL     1       6.253   0.680  -0.068  1.00  0.00     0.136 A 
HETATM   14  N7  UNL     1       5.355   1.420  -0.917  1.00  0.00    -0.082 NA
HETATM   15  N8  UNL     1       7.532   1.073  -0.061  1.00  0.00    -0.296 N 
HETATM   16  C9  UNL     1       8.398   0.394   0.708  1.00  0.00     0.328 A 
ATOM     17  H8  UNL     1       7.840   1.866  -0.624  1.00  0.00     0.171 HD
HETATM   18  O3  UNL     1       9.604   0.781   0.702  1.00  0.00    -0.247 OA
HETATM   19  N9  UNL     1       8.031  -0.647   1.458  1.00  0.00    -0.275 N 
HETATM   20  C10 UNL     1       6.753  -1.056   1.464  1.00  0.00     0.263 A 
ATOM     21  H9  UNL     1       8.723  -1.133   2.028  1.00  0.00     0.173 HD
HETATM   22  O4  UNL     1       6.421  -2.042   2.178  1.00  0.00    -0.267 OA
ENDBRANCH   9  12
ENDBRANCH   7   9
ENDBRANCH   4   7
BRANCH   1  23
HETATM   23  C4  UNL     1      -1.301   1.116   0.585  1.00  0.00     0.144 A 
HETATM   24  C3  UNL     1      -2.004   1.272   1.764  1.00  0.00     0.139 A 
HETATM   25  N3  UNL     1      -3.128   2.007   1.706  1.00  0.00    -0.357 N 
HETATM   26  C2  UNL     1      -3.577   2.579   0.572  1.00  0.00     0.117 A 
ATOM     27  H3  UNL     1      -3.667   2.138   2.562  1.00  0.00     0.165 HD
HETATM   28  C17 UNL     1      -2.860   2.416  -0.617  1.00  0.00     0.148 A 
HETATM   29  N11 UNL     1      -1.736   1.680  -0.557  1.00  0.00    -0.326 N 
HETATM   30  N12 UNL     1      -3.337   3.018  -1.805  1.00  0.00    -0.080 NA
ATOM     31  H11 UNL     1      -1.193   1.544  -1.409  1.00  0.00     0.168 HD
BRANCH  26  32
HETATM   32  C1  UNL     1      -4.794   3.371   0.525  1.00  0.00     0.166 C 
HETATM   33  N1  UNL     1      -5.251   3.964  -0.675  1.00  0.00    -0.078 NA
HETATM   34  N2  UNL     1      -5.463   3.529   1.609  1.00  0.00    -0.253 N 
ATOM     35  H2  UNL     1      -5.098   3.084   2.451  1.00  0.00     0.195 HD
BRANCH  34  36
HETATM   36  O1  UNL     1      -6.613   4.236   1.732  1.00  0.00    -0.288 OA
ATOM     37  H1  UNL     1      -7.108   4.353   2.534  1.00  0.00     0.244 HD
ENDBRANCH  34  36
ENDBRANCH  26  32
ENDBRANCH   1  23
BRANCH   6  38
HETATM   38  C13 UNL     1      -0.779  -1.968  -0.076  1.00  0.00     0.271 C 
HETATM   39  O5  UNL     1      -0.296  -3.139  -0.295  1.00  0.00    -0.266 OA
HETATM   40  N10 UNL     1      -2.175  -1.877  -0.195  1.00  0.00    -0.344 N 
ATOM     41  H10 UNL     1      -2.656  -0.991  -0.041  1.00  0.00     0.163 HD
BRANCH  40  42
HETATM   42  C14 UNL     1      -2.933  -3.100  -0.550  1.00  0.00     0.163 C 
BRANCH  42  43
HETATM   43  C15 UNL     1      -3.907  -3.371   0.593  1.00  0.00     0.194 C 
BRANCH  43  44
HETATM   44  O6  UNL     1      -4.731  -2.245   0.677  1.00  0.00    -0.399 OA
ATOM     45  H6  UNL     1      -5.337  -2.414   1.389  1.00  0.00     0.209 HD
ENDBRANCH  43  44
ENDBRANCH  42  43
BRANCH  42  46
HETATM   46  C16 UNL     1      -3.664  -2.783  -1.824  1.00  0.00     0.278 C 
BRANCH  46  47
HETATM   47  O7  UNL     1      -4.528  -1.713  -1.650  1.00  0.00    -0.369 OA
ATOM     48  H7  UNL     1      -4.990  -1.513  -2.455  1.00  0.00     0.212 HD
ENDBRANCH  46  47
BRANCH  46  49
HETATM   49  O8  UNL     1      -2.695  -2.438  -2.776  1.00  0.00    -0.369 OA
ATOM     50  H8  UNL     1      -3.157  -2.238  -3.581  1.00  0.00     0.212 HD
ENDBRANCH  46  49
ENDBRANCH  42  46
ENDBRANCH  40  42
ENDBRANCH   6  38
TORSDOF 14
