REMARK  10 active torsions:
REMARK  status: ('A' for Active; 'I' for Inactive)
REMARK    1  A    between atoms: C2_3  and  C3_4 
REMARK    2  A    between atoms: C3_4  and  O1_5 
REMARK    3  A    between atoms: C3_4  and  C13_32 
REMARK    4  A    between atoms: O1_5  and  C4_6 
REMARK    5  A    between atoms: C4_6  and  N2_7 
REMARK    6  A    between atoms: C8_16  and  N4_17 
REMARK    7  A    between atoms: C11_25  and  N6_26 
REMARK    8  A    between atoms: C13_32  and  O6_33 
REMARK    9  A    between atoms: C13_32  and  C14_35 
REMARK   10  A    between atoms: C14_35  and  O7_36 
ROOT
HETATM    1  N1  UNL     1       5.001   1.937  -1.015  1.00  0.00    -0.197 NA
HETATM    2  C1  UNL     1       3.885   1.768  -1.257  1.00  0.00     0.061 C 
HETATM    3  C2  UNL     1       2.492   1.587  -1.554  1.00  0.00     0.159 C 
ENDROOT
BRANCH   3   4
HETATM    4  C3  UNL     1       1.790   0.562  -0.668  1.00  0.00     0.173 C 
BRANCH   4   5
HETATM    5  O1  UNL     1       1.785   0.783   0.609  1.00  0.00    -0.337 OA
BRANCH   5   6
HETATM    6  C4  UNL     1       0.825   1.168   1.454  1.00  0.00     0.240 C 
BRANCH   6   7
HETATM    7  N2  UNL     1      -0.347   0.401   1.598  1.00  0.00    -0.238 N 
HETATM    8  C5  UNL     1      -0.383  -0.596   2.543  1.00  0.00     0.336 C 
HETATM    9  O2  UNL     1       0.506  -0.339   3.411  1.00  0.00    -0.246 OA
HETATM   10  N3  UNL     1      -1.076  -1.718   2.783  1.00  0.00    -0.272 N 
HETATM   11  C6  UNL     1      -1.812  -2.530   2.014  1.00  0.00     0.302 C 
ATOM     12  H3  UNL     1      -1.034  -2.016   3.758  1.00  0.00     0.174 HD
HETATM   13  O3  UNL     1      -1.965  -3.686   2.496  1.00  0.00    -0.264 OA
HETATM   14  C7  UNL     1      -2.461  -2.394   0.785  1.00  0.00     0.266 C 
HETATM   15  O4  UNL     1      -2.971  -3.442   0.328  1.00  0.00    -0.280 OA
HETATM   16  C8  UNL     1      -2.660  -1.325  -0.048  1.00  0.00     0.102 C 
HETATM   17  C9  UNL     1      -2.314   0.009   0.044  1.00  0.00     0.108 A 
HETATM   18  C10 UNL     1      -3.180   0.702  -0.762  1.00  0.00     0.276 A 
HETATM   19  C12 UNL     1      -1.344   0.735   0.740  1.00  0.00     0.151 A 
HETATM   20  O5  UNL     1      -4.046   0.041  -1.382  1.00  0.00    -0.267 OA
HETATM   21  N5  UNL     1      -3.045   2.036  -0.834  1.00  0.00    -0.155 N 
HETATM   22  C11 UNL     1      -2.111   2.713  -0.160  1.00  0.00     0.680 A 
ATOM     23  H5  UNL     1      -3.686   2.557  -1.432  1.00  0.00     0.187 HD
HETATM   24  N7  UNL     1      -1.248   2.063   0.637  1.00  0.00    -0.175 N 
ATOM     25  H7  UNL     1      -0.532   2.574   1.154  1.00  0.00     0.186 HD
BRANCH  16  26
HETATM   26  N4  UNL     1      -3.289  -1.544  -1.149  1.00  0.00    -0.395 N 
ATOM     27  H42 UNL     1      -3.545  -2.529  -1.217  1.00  0.00     0.156 HD
ATOM     28  H41 UNL     1      -3.437  -0.748  -1.769  1.00  0.00     0.156 HD
ENDBRANCH  16  26
BRANCH  22  29
HETATM   29  N6  UNL     1      -2.025   3.983  -0.266  1.00  0.00    -0.234 N 
ATOM     30  H62 UNL     1      -2.681   4.477  -0.872  1.00  0.00     0.174 HD
ATOM     31  H61 UNL     1      -1.312   4.500   0.249  1.00  0.00     0.174 HD
ENDBRANCH  22  29
ENDBRANCH   6   7
ENDBRANCH   5   6
ENDBRANCH   4   5
BRANCH   4  32
HETATM   32  C13 UNL     1       2.040  -0.848  -1.158  1.00  0.00     0.172 C 
BRANCH  32  33
HETATM   33  O6  UNL     1       1.016  -1.654  -0.635  1.00  0.00    -0.391 OA
ATOM     34  H6  UNL     1       1.173  -2.539  -0.943  1.00  0.00     0.210 HD
ENDBRANCH  32  33
BRANCH  32  35
HETATM   35  C14 UNL     1       3.353  -1.457  -0.849  1.00  0.00     0.198 C 
BRANCH  35  36
HETATM   36  O7  UNL     1       3.326  -2.739  -1.456  1.00  0.00    -0.398 OA
ATOM     37  H7  UNL     1       4.169  -3.130  -1.258  1.00  0.00     0.209 HD
ENDBRANCH  35  36
ENDBRANCH  32  35
ENDBRANCH   4  32
ENDBRANCH   3   4
TORSDOF 10
