REMARK  11 active torsions:
REMARK  status: ('A' for Active; 'I' for Inactive)
REMARK    1  A    between atoms: O1_2  and  C2_3 
REMARK    2  A    between atoms: C2_3  and  C3_5 
REMARK    3  A    between atoms: C3_5  and  O3_6 
REMARK    4  A    between atoms: C3_5  and  C4_14 
REMARK    5  A    between atoms: O3_6  and  N1_7 
REMARK    6  A    between atoms: N1_7  and  N2_8 
REMARK    7  A    between atoms: N1_7  and  N3_11 
REMARK    8  A    between atoms: C4_14  and  O4_15 
REMARK    9  A    between atoms: C4_14  and  C5_17 
REMARK   10  A    between atoms: C5_17  and  C6_18 
REMARK   11  A    between atoms: C5_17  and  N4_21 
ROOT
HETATM    1  C5  UNL     1       0.206  -0.501  -0.319  1.00  0.00     0.222 C 
ENDROOT
BRANCH   1   2
HETATM    2  C4  UNL     1      -0.779   0.608  -0.012  1.00  0.00     0.192 C 
BRANCH   2   3
HETATM    3  C3  UNL     1      -2.120   0.185   0.489  1.00  0.00     0.280 C 
BRANCH   3   4
HETATM    4  C2  UNL     1      -2.949   1.404   0.846  1.00  0.00     0.292 C 
HETATM    5  O2  UNL     1      -2.474   2.333   1.546  1.00  0.00    -0.262 OA
BRANCH   4   6
HETATM    6  O1  UNL     1      -4.260   1.544   0.414  1.00  0.00    -0.324 OA
HETATM    7  C1  UNL     1      -5.070   2.649   0.715  1.00  0.00     0.213 C 
ENDBRANCH   4   6
ENDBRANCH   3   4
BRANCH   3   8
HETATM    8  O3  UNL     1      -2.838  -0.688  -0.269  1.00  0.00    -0.248 OA
BRANCH   8   9
HETATM    9  N1  UNL     1      -3.356  -1.724   0.438  1.00  0.00    -0.015 NA
BRANCH   9  10
HETATM   10  N2  UNL     1      -4.279  -1.302   1.402  1.00  0.00    -0.322 NA
ATOM     11  H22 UNL     1      -3.762  -0.718   2.059  1.00  0.00     0.175 HD
ATOM     12  H21 UNL     1      -4.668  -2.081   1.933  1.00  0.00     0.175 HD
ENDBRANCH   9  10
BRANCH   9  13
HETATM   13  N3  UNL     1      -4.066  -2.526  -0.464  1.00  0.00    -0.322 NA
ATOM     14  H32 UNL     1      -3.393  -2.834  -1.166  1.00  0.00     0.175 HD
ATOM     15  H31 UNL     1      -4.455  -3.305   0.067  1.00  0.00     0.175 HD
ENDBRANCH   9  13
ENDBRANCH   8   9
ENDBRANCH   3   8
ENDBRANCH   2   3
BRANCH   2  16
HETATM   16  O4  UNL     1      -0.271   1.491   0.951  1.00  0.00    -0.390 OA
ATOM     17  H4  UNL     1       0.582   1.760   0.632  1.00  0.00     0.210 HD
ENDBRANCH   2  16
ENDBRANCH   1   2
BRANCH   1  18
HETATM   18  C6  UNL     1      -0.395  -1.334  -1.388  1.00  0.00     0.200 C 
HETATM   19  O5  UNL     1      -0.547  -2.559  -1.387  1.00  0.00    -0.646 OA
HETATM   20  O6  UNL     1      -0.830  -0.616  -2.523  1.00  0.00    -0.646 OA
ENDBRANCH   1  18
BRANCH   1  21
HETATM   21  N4  UNL     1       1.416   0.167  -0.756  1.00  0.00    -0.334 N 
HETATM   22  C7  UNL     1       1.424   1.265  -1.532  1.00  0.00     0.093 A 
HETATM   23  C8  UNL     1       2.733   1.638  -1.751  1.00  0.00     0.037 A 
HETATM   24  C9  UNL     1       3.549   0.750  -1.096  1.00  0.00     0.066 A 
HETATM   25  C10 UNL     1       4.939   0.770  -1.058  1.00  0.00     0.272 C 
HETATM   26  C13 UNL     1       2.691  -0.146  -0.493  1.00  0.00     0.120 A 
HETATM   27  O7  UNL     1       5.442   1.548  -1.894  1.00  0.00    -0.267 OA
HETATM   28  N5  UNL     1       5.768   0.060  -0.239  1.00  0.00    -0.156 N 
HETATM   29  C11 UNL     1       5.448  -0.812   0.743  1.00  0.00     0.681 C 
ATOM     30  H5  UNL     1       6.766   0.208  -0.388  1.00  0.00     0.187 HD
HETATM   31  N6  UNL     1       6.409  -1.091   1.561  1.00  0.00    -0.234 N 
HETATM   32  N7  UNL     1       4.247  -1.401   0.938  1.00  0.00    -0.154 N 
ATOM     33  H62 UNL     1       7.315  -0.647   1.414  1.00  0.00     0.174 HD
ATOM     34  H61 UNL     1       6.168  -1.749   2.302  1.00  0.00     0.174 HD
HETATM   35  C12 UNL     1       3.088  -1.235   0.281  1.00  0.00     0.287 C 
ATOM     36  H7  UNL     1       4.217  -2.076   1.702  1.00  0.00     0.187 HD
HETATM   37  O8  UNL     1       2.283  -2.154   0.374  1.00  0.00    -0.265 OA
ENDBRANCH   1  21
TORSDOF 11
