REMARK  4 active torsions:
REMARK  status: ('A' for Active; 'I' for Inactive)
REMARK    1  A    between atoms: C2_2  and  C4_4 
REMARK    2  A    between atoms: N1_7  and  O2_8 
REMARK    3  A    between atoms: C8_12  and  S1_13 
REMARK    4  A    between atoms: S1_13  and  N2_14 
ROOT
HETATM    1  C4  UNL     1      -1.178  -0.539  -0.329  1.00  0.00     0.043 A 
HETATM    2  C5  UNL     1      -0.905  -1.866   0.040  1.00  0.00     0.280 A 
HETATM    3  O1  UNL     1      -1.847  -2.670   0.038  1.00  0.00    -0.265 OA
HETATM    4  N1  UNL     1       0.303  -2.310   0.391  1.00  0.00    -0.198 N 
HETATM    5  C6  UNL     1       1.350  -1.479   0.406  1.00  0.00     0.142 A 
HETATM    6  C7  UNL     1       1.189  -0.156   0.059  1.00  0.00     0.035 A 
HETATM    7  C8  UNL     1       2.110   0.859  -0.030  1.00  0.00     0.127 A 
HETATM    8  C9  UNL     1       1.393   1.941  -0.458  1.00  0.00     0.104 A 
HETATM    9 BR1  UNL     1       2.080   3.689  -0.788  1.00  0.00    -0.029 Br
HETATM   10  N3  UNL     1       0.082   1.587  -0.620  1.00  0.00    -0.348 N 
ATOM     11  H3  UNL     1      -0.659   2.214  -0.933  1.00  0.00     0.166 HD
HETATM   12  C10 UNL     1      -0.084   0.311  -0.311  1.00  0.00     0.058 A 
ENDROOT
BRANCH   7  13
HETATM   13  S1  UNL     1       3.818   0.877   0.323  1.00  0.00     0.260 S 
HETATM   14  O3  UNL     1       4.420  -0.513   0.140  1.00  0.00    -0.201 OA
HETATM   15  O4  UNL     1       4.582   1.757  -0.617  1.00  0.00    -0.201 OA
BRANCH  13  16
HETATM   16  N2  UNL     1       4.154   1.350   1.935  1.00  0.00    -0.324 N 
ATOM     17  H22 UNL     1       3.423   1.592   2.604  1.00  0.00     0.169 HD
ATOM     18  H21 UNL     1       5.153   1.361   2.141  1.00  0.00     0.169 HD
ENDBRANCH  13  16
ENDBRANCH   7  13
BRANCH   4  19
HETATM   19  O2  UNL     1       0.496  -3.645   0.737  1.00  0.00    -0.280 OA
ATOM     20  H2  UNL     1       1.356  -3.961   0.987  1.00  0.00     0.245 HD
ENDBRANCH   4  19
BRANCH   1  21
HETATM   21  C2  UNL     1      -2.523  -0.163  -0.711  1.00  0.00     0.018 C 
HETATM   22  C1  UNL     1      -2.920   1.274  -0.599  1.00  0.00     0.015 C 
HETATM   23  C3  UNL     1      -3.645  -0.987  -0.142  1.00  0.00     0.015 C 
ENDBRANCH   1  21
TORSDOF 4
