REMARK  2 active torsions:
REMARK  status: ('A' for Active; 'I' for Inactive)
REMARK    1  A    between atoms: C5_6  and  O1_7 
REMARK    2  A    between atoms: N2_9  and  C6_10 
ROOT
HETATM    1  C1  UNL     1      -4.974  -1.328  -0.977  1.00  0.00     0.027 C 
HETATM    2  C2  UNL     1      -3.909  -0.890  -0.327  1.00  0.00     0.006 A 
HETATM    3  C3  UNL     1      -3.645  -1.001   1.021  1.00  0.00     0.107 A 
HETATM    4  C4  UNL     1      -4.516  -1.634   1.970  1.00  0.00     0.104 C 
HETATM    5  N1  UNL     1      -5.226  -2.167   2.735  1.00  0.00    -0.191 NA
HETATM    6  C5  UNL     1      -2.426  -0.399   1.226  1.00  0.00     0.169 A 
HETATM    7  N2  UNL     1      -1.933   0.074   0.068  1.00  0.00    -0.289 N 
HETATM    8  C17 UNL     1      -2.821  -0.213  -0.896  1.00  0.00     0.043 A 
HETATM    9  C18 UNL     1      -2.722   0.077  -2.182  1.00  0.00     0.044 C 
ENDROOT
BRANCH   6  10
HETATM   10  O1  UNL     1      -1.812  -0.306   2.460  1.00  0.00    -0.345 OA
ATOM     11  H1  UNL     1      -0.970   0.110   2.602  1.00  0.00     0.219 HD
ENDBRANCH   6  10
BRANCH   7  12
HETATM   12  C6  UNL     1      -0.708   0.763  -0.182  1.00  0.00     0.070 A 
HETATM   13  C7  UNL     1      -0.529   2.035  -0.683  1.00  0.00     0.121 A 
HETATM   14  N3  UNL     1       0.779   2.328  -0.774  1.00  0.00    -0.358 N 
HETATM   15  C8  UNL     1       1.362   3.589  -1.263  1.00  0.00     0.156 C 
HETATM   16  C9  UNL     1       1.466   1.260  -0.337  1.00  0.00     0.047 A 
HETATM   17  C10 UNL     1       2.834   0.999  -0.208  1.00  0.00     0.038 A 
HETATM   18  C16 UNL     1       0.572   0.277   0.035  1.00  0.00     0.020 A 
HETATM   19  C11 UNL     1       3.250  -0.226   0.286  1.00  0.00    -0.054 A 
HETATM   20  C12 UNL     1       4.707  -0.519   0.430  1.00  0.00     0.049 C 
HETATM   21  C13 UNL     1       2.354  -1.205   0.657  1.00  0.00    -0.055 A 
HETATM   22  C14 UNL     1       2.854  -2.512   1.185  1.00  0.00     0.049 C 
HETATM   23  C15 UNL     1       1.011  -0.943   0.528  1.00  0.00     0.023 A 
ENDBRANCH   7  12
TORSDOF 2
