REMARK  16 active torsions:
REMARK  status: ('A' for Active; 'I' for Inactive)
REMARK    1  A    between atoms: N1_2  and  C2_4 
REMARK    2  A    between atoms: C3_5  and  O1_6 
REMARK    3  A    between atoms: C6_11  and  O3_12 
REMARK    4  A    between atoms: O3_12  and  C7_13 
REMARK    5  A    between atoms: N2_18  and  O5_20 
REMARK    6  A    between atoms: C11_23  and  N3_24 
REMARK    7  A    between atoms: C12_26  and  C13_27 
REMARK    8  A    between atoms: C12_26  and  C15_31 
REMARK    9  A    between atoms: C13_27  and  O7_29 
REMARK   10  A    between atoms: C15_31  and  O8_32 
REMARK   11  A    between atoms: C15_31  and  C16_34 
REMARK   12  A    between atoms: C16_34  and  O9_35 
REMARK   13  A    between atoms: C17_38  and  C18_39 
REMARK   14  A    between atoms: C18_39  and  O11_40 
REMARK   15  A    between atoms: C19_42  and  O12_43 
REMARK   16  A    between atoms: C20_45  and  O13_46 
ROOT
HETATM    1  C7  UNL     1       0.726   0.128  -0.116  1.00  0.00     0.298 C 
HETATM    2  O4  UNL     1      -0.065  -0.627   0.694  1.00  0.00    -0.317 OA
HETATM    3  C8  UNL     1      -1.226  -1.141   0.266  1.00  0.00     0.225 C 
HETATM    4  C9  UNL     1      -1.254  -2.324  -0.649  1.00  0.00     0.160 C 
HETATM    5  C10 UNL     1      -1.856  -3.149   0.430  1.00  0.00     0.146 C 
HETATM    6  N2  UNL     1      -2.362  -4.330   0.558  1.00  0.00    -0.251 N 
ATOM      7  H2  UNL     1      -2.718  -4.655   1.457  1.00  0.00     0.196 HD
HETATM    8  O6  UNL     1      -1.644  -2.098   1.272  1.00  0.00    -0.295 OA
HETATM    9  C11 UNL     1      -2.346  -0.102   0.006  1.00  0.00     0.285 C 
HETATM   10  O10 UNL     1      -1.682   1.119  -0.064  1.00  0.00    -0.351 OA
HETATM   11  C17 UNL     1      -0.988   1.414  -1.170  1.00  0.00     0.181 C 
HETATM   12  C19 UNL     1       0.172   0.458  -1.456  1.00  0.00     0.204 C 
ENDROOT
BRANCH   1  13
HETATM   13  O3  UNL     1       2.059  -0.306  -0.144  1.00  0.00    -0.326 OA
BRANCH  13  14
HETATM   14  C6  UNL     1       2.936   0.557   0.505  1.00  0.00     0.294 C 
HETATM   15  O2  UNL     1       3.567  -0.085   1.580  1.00  0.00    -0.351 OA
HETATM   16  C4  UNL     1       4.480  -0.990   0.988  1.00  0.00     0.151 C 
HETATM   17  C3  UNL     1       5.752  -0.225   0.636  1.00  0.00     0.171 C 
HETATM   18  C5  UNL     1       4.804  -2.032   2.007  1.00  0.00     0.042 C 
HETATM   19  C2  UNL     1       5.317   1.204   0.415  1.00  0.00     0.141 C 
HETATM   20  C20 UNL     1       3.998   1.143  -0.370  1.00  0.00     0.198 C 
BRANCH  17  21
HETATM   21  O1  UNL     1       6.698  -0.337   1.641  1.00  0.00    -0.391 OA
ATOM     22  H1  UNL     1       6.972  -1.236   1.780  1.00  0.00     0.210 HD
ENDBRANCH  17  21
BRANCH  19  23
HETATM   23  N1  UNL     1       6.313   1.889  -0.345  1.00  0.00    -0.416 N 
HETATM   24  C1  UNL     1       7.599   2.006   0.282  1.00  0.00     0.140 C 
ATOM     25  H1  UNL     1       6.123   2.270  -1.272  1.00  0.00     0.153 HD
ENDBRANCH  19  23
BRANCH  20  26
HETATM   26  O13 UNL     1       3.747   2.506  -0.671  1.00  0.00    -0.388 OA
ATOM     27  H13 UNL     1       2.931   2.468  -1.156  1.00  0.00     0.210 HD
ENDBRANCH  20  26
ENDBRANCH  13  14
ENDBRANCH   1  13
BRANCH  12  28
HETATM   28  O12 UNL     1       1.075   1.167  -2.228  1.00  0.00    -0.388 OA
ATOM     29  H12 UNL     1       0.721   1.378  -3.084  1.00  0.00     0.210 HD
ENDBRANCH  12  28
BRANCH  11  30
HETATM   30  C18 UNL     1      -1.701   1.624  -2.453  1.00  0.00     0.199 C 
BRANCH  30  31
HETATM   31  O11 UNL     1      -0.828   1.927  -3.509  1.00  0.00    -0.398 OA
ATOM     32  H11 UNL     1      -1.285   2.062  -4.331  1.00  0.00     0.209 HD
ENDBRANCH  30  31
ENDBRANCH  11  30
BRANCH   9  33
HETATM   33  N3  UNL     1      -3.268  -0.215   1.017  1.00  0.00    -0.362 N 
HETATM   34  C12 UNL     1      -4.570   0.044   1.159  1.00  0.00     0.044 C 
ATOM     35  H3  UNL     1      -2.856  -0.590   1.872  1.00  0.00     0.162 HD
BRANCH  34  36
HETATM   36  C13 UNL     1      -5.144   1.432   0.990  1.00  0.00     0.162 C 
HETATM   37  C14 UNL     1      -5.174   1.953  -0.405  1.00  0.00     0.045 C 
BRANCH  36  38
HETATM   38  O7  UNL     1      -4.596   2.339   1.900  1.00  0.00    -0.390 OA
ATOM     39  H7  UNL     1      -4.957   3.211   1.794  1.00  0.00     0.210 HD
ENDBRANCH  36  38
ENDBRANCH  34  36
BRANCH  34  40
HETATM   40  C15 UNL     1      -5.625  -0.932   0.737  1.00  0.00     0.189 C 
BRANCH  40  41
HETATM   41  O8  UNL     1      -5.530  -2.172   1.425  1.00  0.00    -0.388 OA
ATOM     42  H8  UNL     1      -6.199  -2.791   1.157  1.00  0.00     0.210 HD
ENDBRANCH  40  41
BRANCH  40  43
HETATM   43  C16 UNL     1      -5.812  -1.246  -0.681  1.00  0.00     0.201 C 
BRANCH  43  44
HETATM   44  O9  UNL     1      -4.869  -2.010  -1.308  1.00  0.00    -0.398 OA
ATOM     45  H9  UNL     1      -4.990  -2.214  -2.228  1.00  0.00     0.209 HD
ENDBRANCH  43  44
ENDBRANCH  40  43
ENDBRANCH  34  40
ENDBRANCH   9  33
BRANCH   6  46
HETATM   46  O5  UNL     1      -2.406  -5.137  -0.558  1.00  0.00    -0.288 OA
ATOM     47  H5  UNL     1      -2.778  -6.006  -0.464  1.00  0.00     0.244 HD
ENDBRANCH   6  46
TORSDOF 16
