REMARK  7 active torsions:
REMARK  status: ('A' for Active; 'I' for Inactive)
REMARK    1  A    between atoms: C2_2  and  C4_4 
REMARK    2  A    between atoms: C4_4  and  N1_5 
REMARK    3  A    between atoms: N1_5  and  C5_6 
REMARK    4  A    between atoms: N1_5  and  C14_21 
REMARK    5  A    between atoms: C7_10  and  C8_11 
REMARK    6  A    between atoms: C8_11  and  N3_12 
REMARK    7  A    between atoms: N3_12  and  C9_14 
ROOT
HETATM    1  C5  UNL     1      -0.915   0.000   0.407  1.00  0.00     0.680 A 
HETATM    2  N2  UNL     1      -0.435  -0.436  -0.751  1.00  0.00    -0.201 N 
ATOM      3  H2  UNL     1      -1.043  -0.994  -1.350  1.00  0.00     0.183 HD
HETATM    4  C6  UNL     1       0.792  -0.181  -1.164  1.00  0.00     0.116 A 
HETATM    5  C7  UNL     1       1.620   0.566  -0.367  1.00  0.00    -0.009 A 
HETATM    6  C13 UNL     1       1.133   1.027   0.837  1.00  0.00     0.116 A 
HETATM    7  N4  UNL     1      -0.127   0.737   1.209  1.00  0.00    -0.201 N 
ATOM      8  H4  UNL     1      -0.485   1.077   2.101  1.00  0.00     0.183 HD
ENDROOT
BRANCH   1   9
HETATM    9  N1  UNL     1      -2.264  -0.297   0.761  1.00  0.00    -0.212 N 
BRANCH   9  10
HETATM   10  C4  UNL     1      -2.541  -1.498   1.511  1.00  0.00     0.145 C 
BRANCH  10  11
HETATM   11  C2  UNL     1      -3.417  -2.465   0.788  1.00  0.00    -0.004 C 
HETATM   12  C1  UNL     1      -3.607  -3.677   1.674  1.00  0.00     0.011 C 
HETATM   13  C3  UNL     1      -2.976  -2.892  -0.562  1.00  0.00     0.011 C 
ENDBRANCH  10  11
ENDBRANCH   9  10
BRANCH   9  14
HETATM   14  C14 UNL     1      -3.296   0.622   0.418  1.00  0.00     0.105 C 
HETATM   15  C15 UNL     1      -3.264   1.930   1.164  1.00  0.00     0.053 C 
HETATM   16  C16 UNL     1      -4.120   2.893   0.322  1.00  0.00     0.234 C 
HETATM   17  N5  UNL     1      -3.397   3.353  -0.826  1.00  0.00    -0.075 N 
HETATM   18  C17 UNL     1      -2.611   2.251  -1.358  1.00  0.00     0.234 C 
ATOM     19  H52 UNL     1      -4.007   3.771  -1.529  1.00  0.00     0.277 HD
ATOM     20  H51 UNL     1      -2.828   4.175  -0.624  1.00  0.00     0.277 HD
HETATM   21  C18 UNL     1      -3.281   0.926  -1.059  1.00  0.00     0.053 C 
ENDBRANCH   9  14
ENDBRANCH   1   9
BRANCH   5  22
HETATM   22  C8  UNL     1       3.021   0.836  -0.788  1.00  0.00     0.156 C 
BRANCH  22  23
HETATM   23  N3  UNL     1       3.850  -0.027  -0.013  1.00  0.00    -0.410 N 
ATOM     24  H3  UNL     1       3.450  -0.633   0.703  1.00  0.00     0.154 HD
BRANCH  23  25
HETATM   25  C9  UNL     1       5.245  -0.021  -0.264  1.00  0.00     0.015 C 
HETATM   26  C10 UNL     1       6.006   0.071   1.025  1.00  0.00     0.037 C 
HETATM   27  C11 UNL     1       5.662  -1.290  -1.001  1.00  0.00     0.037 C 
HETATM   28  C12 UNL     1       5.700   1.145  -1.118  1.00  0.00     0.037 C 
ENDBRANCH  23  25
ENDBRANCH  22  23
ENDBRANCH   5  22
TORSDOF 7
