REMARK  15 active torsions:
REMARK  status: ('A' for Active; 'I' for Inactive)
REMARK    1  A    between atoms: C3_3  and  O1_4 
REMARK    2  A    between atoms: C6_8  and  O2_9 
REMARK    3  A    between atoms: C6_8  and  C7_11 
REMARK    4  A    between atoms: C8_12  and  C9_13 
REMARK    5  A    between atoms: C9_13  and  C10_14 
REMARK    6  A    between atoms: C9_13  and  O4_17 
REMARK    7  A    between atoms: C10_14  and  O3_15 
REMARK    8  A    between atoms: O4_17  and  C11_18 
REMARK    9  A    between atoms: C13_22  and  O7_23 
REMARK   10  A    between atoms: O7_23  and  C14_24 
REMARK   11  A    between atoms: C14_24  and  C15_25 
REMARK   12  A    between atoms: C15_25  and  C16_26 
REMARK   13  A    between atoms: C16_26  and  C17_27 
REMARK   14  A    between atoms: C20_30  and  O8_32 
REMARK   15  A    between atoms: C22_34  and  O9_35 
ROOT
HETATM    1  C7  UNL     1      -1.633  -0.270  -0.835  1.00  0.00     0.089 C 
HETATM    2  C8  UNL     1      -0.876   0.990  -0.645  1.00  0.00     0.166 C 
HETATM    3  O6  UNL     1       0.350   0.871  -0.014  1.00  0.00    -0.353 OA
HETATM    4  C13 UNL     1       1.154  -0.145  -0.441  1.00  0.00     0.263 C 
HETATM    5  C19 UNL     1       0.602  -1.025  -1.507  1.00  0.00     0.098 C 
HETATM    6  C20 UNL     1      -0.813  -1.444  -1.216  1.00  0.00     0.068 C 
HETATM    7  C21 UNL     1      -1.320  -2.127  -2.484  1.00  0.00     0.046 C 
ENDROOT
BRANCH   1   8
HETATM    8  C6  UNL     1      -2.616  -0.518   0.303  1.00  0.00     0.096 C 
HETATM    9  C5  UNL     1      -2.002  -0.614   1.654  1.00  0.00     0.044 C 
HETATM   10  C4  UNL     1      -3.152  -0.400   2.661  1.00  0.00     0.039 C 
HETATM   11  C3  UNL     1      -4.237  -1.410   2.498  1.00  0.00     0.149 C 
HETATM   12  C2  UNL     1      -3.983  -2.295   1.342  1.00  0.00    -0.029 C 
HETATM   13  C1  UNL     1      -4.138  -3.618   1.429  1.00  0.00     0.019 C 
HETATM   14  C22 UNL     1      -3.546  -1.671   0.052  1.00  0.00     0.183 C 
BRANCH  11  15
HETATM   15  O1  UNL     1      -4.449  -2.155   3.663  1.00  0.00    -0.391 OA
ATOM     16  H1  UNL     1      -4.612  -1.586   4.406  1.00  0.00     0.210 HD
ENDBRANCH  11  15
BRANCH  14  17
HETATM   17  O9  UNL     1      -4.738  -1.241  -0.583  1.00  0.00    -0.388 OA
ATOM     18  H9  UNL     1      -4.461  -0.845  -1.401  1.00  0.00     0.210 HD
ENDBRANCH  14  17
BRANCH   8  19
HETATM   19  O2  UNL     1      -3.442   0.638   0.352  1.00  0.00    -0.386 OA
ATOM     20  H2  UNL     1      -3.834   0.699  -0.511  1.00  0.00     0.210 HD
ENDBRANCH   8  19
ENDBRANCH   1   8
BRANCH   2  21
HETATM   21  C9  UNL     1      -0.752   1.906  -1.812  1.00  0.00     0.184 C 
BRANCH  21  22
HETATM   22  C10 UNL     1      -1.968   2.062  -2.669  1.00  0.00     0.199 C 
BRANCH  22  23
HETATM   23  O3  UNL     1      -1.565   2.940  -3.720  1.00  0.00    -0.398 OA
ATOM     24  H3  UNL     1      -2.337   3.039  -4.264  1.00  0.00     0.209 HD
ENDBRANCH  22  23
ENDBRANCH  21  22
BRANCH  21  25
HETATM   25  O4  UNL     1      -0.332   3.193  -1.346  1.00  0.00    -0.311 OA
BRANCH  25  26
HETATM   26  C11 UNL     1       0.843   3.800  -1.682  1.00  0.00     0.255 C 
HETATM   27  C12 UNL     1       1.275   5.133  -1.197  1.00  0.00     0.126 C 
HETATM   28  O5  UNL     1       1.624   3.187  -2.460  1.00  0.00    -0.266 OA
ENDBRANCH  25  26
ENDBRANCH  21  25
ENDBRANCH   2  21
BRANCH   6  29
HETATM   29  O8  UNL     1      -0.709  -2.395  -0.189  1.00  0.00    -0.389 OA
ATOM     30  H8  UNL     1      -0.183  -3.148  -0.433  1.00  0.00     0.210 HD
ENDBRANCH   6  29
BRANCH   4  31
HETATM   31  O7  UNL     1       2.432   0.308  -0.820  1.00  0.00    -0.361 OA
BRANCH  31  32
HETATM   32  C14 UNL     1       3.376  -0.218   0.050  1.00  0.00     0.171 C 
BRANCH  32  33
HETATM   33  C15 UNL     1       4.746   0.265  -0.364  1.00  0.00     0.026 C 
BRANCH  33  34
HETATM   34  C16 UNL     1       5.855  -0.239   0.508  1.00  0.00     0.002 C 
BRANCH  34  35
HETATM   35  C17 UNL     1       5.679   0.199   1.949  1.00  0.00    -0.004 C 
HETATM   36  C18 UNL     1       6.805  -0.312   2.820  1.00  0.00     0.005 C 
ENDBRANCH  34  35
ENDBRANCH  33  34
ENDBRANCH  32  33
ENDBRANCH  31  32
ENDBRANCH   4  31
TORSDOF 15
