REMARK  16 active torsions:
REMARK  status: ('A' for Active; 'I' for Inactive)
REMARK    1  A    between atoms: C1_2  and  C2_4 
REMARK    2  A    between atoms: C2_4  and  O3_5 
REMARK    3  A    between atoms: O3_5  and  S1_6 
REMARK    4  A    between atoms: S1_6  and  N1_9 
REMARK       I    between atoms: N1_9  and  C3_11 
REMARK    5  A    between atoms: C3_11  and  C4_13 
REMARK    6  A    between atoms: C4_13  and  O7_14 
REMARK    7  A    between atoms: C4_13  and  C5_16 
REMARK    8  A    between atoms: C6_17  and  O8_18 
REMARK    9  A    between atoms: C7_20  and  C8_21 
REMARK   10  A    between atoms: C8_21  and  O9_22 
REMARK   11  A    between atoms: C8_21  and  O10_24 
REMARK   12  A    between atoms: C9_26  and  O11_27 
REMARK   13  A    between atoms: N2_29  and  C10_30 
REMARK   14  A    between atoms: C12_35  and  O12_36 
REMARK   15  A    between atoms: C13_38  and  O13_39 
REMARK   16  A    between atoms: C14_42  and  O14_43 
ROOT
HETATM    1  C5  UNL     1      -0.503  -1.591  -0.035  1.00  0.00     0.115 A 
HETATM    2  C6  UNL     1      -0.760  -2.916  -0.270  1.00  0.00     0.111 A 
HETATM    3  C7  UNL     1      -2.088  -3.208   0.030  1.00  0.00     0.083 A 
HETATM    4  C9  UNL     1      -2.632  -2.039   0.450  1.00  0.00     0.162 A 
HETATM    5  N2  UNL     1      -1.695  -1.085   0.411  1.00  0.00    -0.276 N 
ENDROOT
BRANCH   1   6
HETATM    6  C4  UNL     1       0.667  -0.777  -0.171  1.00  0.00     0.165 C 
BRANCH   6   7
HETATM    7  C3  UNL     1       1.974  -1.205  -0.631  1.00  0.00     0.292 C 
HETATM    8  N1  UNL     1       3.041  -0.238  -0.703  1.00  0.00    -0.225 N 
ATOM      9  H1  UNL     1       2.878   0.733  -0.435  1.00  0.00     0.184 HD
HETATM   10  O6  UNL     1       2.301  -2.358  -0.986  1.00  0.00    -0.264 OA
BRANCH   8  11
HETATM   11  S1  UNL     1       4.583  -0.740  -1.244  1.00  0.00     0.365 S 
HETATM   12  O4  UNL     1       4.639  -0.490  -2.745  1.00  0.00    -0.175 OA
HETATM   13  O5  UNL     1       4.779  -2.226  -1.049  1.00  0.00    -0.175 OA
BRANCH  11  14
HETATM   14  O3  UNL     1       5.834   0.126  -0.565  1.00  0.00    -0.249 OA
BRANCH  14  15
HETATM   15  C2  UNL     1       5.541   1.462  -0.424  1.00  0.00     0.305 C 
BRANCH  15  16
HETATM   16  C1  UNL     1       6.660   2.226   0.181  1.00  0.00     0.199 C 
HETATM   17  O1  UNL     1       7.705   1.600   0.486  1.00  0.00    -0.646 OA
HETATM   18  O2  UNL     1       6.534   3.584   0.393  1.00  0.00    -0.646 OA
ENDBRANCH  15  16
ENDBRANCH  14  15
ENDBRANCH  11  14
ENDBRANCH   8  11
ENDBRANCH   6   7
BRANCH   6  19
HETATM   19  O7  UNL     1       0.613   0.486   0.135  1.00  0.00    -0.354 OA
ATOM     20  H7  UNL     1      -0.243   0.766   0.436  1.00  0.00     0.218 HD
ENDBRANCH   6  19
ENDBRANCH   1   6
BRANCH   2  21
HETATM   21  O8  UNL     1       0.124  -3.848  -0.730  1.00  0.00    -0.357 OA
ATOM     22  H8  UNL     1      -0.054  -4.767  -0.893  1.00  0.00     0.217 HD
ENDBRANCH   2  21
BRANCH   5  23
HETATM   23  C10 UNL     1      -1.940   0.282   0.794  1.00  0.00     0.139 A 
HETATM   24  S2  UNL     1      -1.619   1.087   2.263  1.00  0.00    -0.030 SA
HETATM   25  C11 UNL     1      -2.212   2.627   1.845  1.00  0.00     0.163 A 
HETATM   26  N3  UNL     1      -2.411   3.909   2.286  1.00  0.00    -0.313 N 
HETATM   27  N4  UNL     1      -2.634   2.467   0.594  1.00  0.00    -0.245 N 
HETATM   28  C12 UNL     1      -2.978   4.575   1.273  1.00  0.00     0.195 A 
ATOM     29  H3  UNL     1      -2.174   4.282   3.205  1.00  0.00     0.170 HD
HETATM   30  C13 UNL     1      -3.127   3.701   0.211  1.00  0.00     0.203 A 
HETATM   31  C14 UNL     1      -2.505   1.283   0.042  1.00  0.00     0.186 A 
BRANCH  28  32
HETATM   32  O12 UNL     1      -3.369   5.919   1.246  1.00  0.00    -0.343 OA
ATOM     33  H12 UNL     1      -3.771   6.392   0.527  1.00  0.00     0.219 HD
ENDBRANCH  28  32
BRANCH  30  34
HETATM   34  O13 UNL     1      -3.687   4.066  -1.010  1.00  0.00    -0.342 OA
ATOM     35  H13 UNL     1      -3.789   3.466  -1.739  1.00  0.00     0.219 HD
ENDBRANCH  30  34
BRANCH  31  36
HETATM   36  O14 UNL     1      -2.909   0.948  -1.293  1.00  0.00    -0.344 OA
ATOM     37  H14 UNL     1      -3.300   1.640  -1.813  1.00  0.00     0.219 HD
ENDBRANCH  31  36
ENDBRANCH   5  23
BRANCH   3  38
HETATM   38  C8  UNL     1      -2.761  -4.509  -0.084  1.00  0.00     0.295 C 
BRANCH  38  39
HETATM   39  O9  UNL     1      -4.021  -4.360  -0.691  1.00  0.00    -0.367 OA
ATOM     40  H9  UNL     1      -4.456  -5.201  -0.765  1.00  0.00     0.213 HD
ENDBRANCH  38  39
BRANCH  38  41
HETATM   41  O10 UNL     1      -2.958  -5.034   1.188  1.00  0.00    -0.367 OA
ATOM     42  H10 UNL     1      -3.393  -5.875   1.114  1.00  0.00     0.213 HD
ENDBRANCH  38  41
ENDBRANCH   3  38
BRANCH   4  43
HETATM   43  O11 UNL     1      -3.958  -1.847   0.862  1.00  0.00    -0.345 OA
ATOM     44  H11 UNL     1      -4.339  -1.028   1.156  1.00  0.00     0.219 HD
ENDBRANCH   4  43
TORSDOF 16
