REMARK  7 active torsions:
REMARK  status: ('A' for Active; 'I' for Inactive)
REMARK    1  A    between atoms: C2_2  and  C3_3 
REMARK    2  A    between atoms: C3_3  and  O1_4 
REMARK    3  A    between atoms: O1_4  and  C4_5 
REMARK    4  A    between atoms: C5_6  and  C6_7 
REMARK    5  A    between atoms: C9_12  and  N2_13 
REMARK    6  A    between atoms: C10_18  and  N4_19 
REMARK    7  A    between atoms: N4_19  and  C11_21 
ROOT
HETATM    1  C4  UNL     1      -0.875  -0.553  -0.098  1.00  0.00     0.136 A 
HETATM    2  C5  UNL     1      -1.908  -1.342   0.329  1.00  0.00     0.068 A 
HETATM    3  N1  UNL     1      -1.728  -2.119   1.426  1.00  0.00    -0.193 N 
ATOM      4  H1  UNL     1      -2.493  -2.709   1.754  1.00  0.00     0.184 HD
HETATM    5  C9  UNL     1      -0.556  -2.125   2.090  1.00  0.00     0.677 A 
HETATM    6  N3  UNL     1       0.484  -1.368   1.703  1.00  0.00    -0.174 N 
ATOM      7  H3  UNL     1       1.363  -1.389   2.220  1.00  0.00     0.186 HD
HETATM    8  C10 UNL     1       0.346  -0.591   0.633  1.00  0.00     0.153 A 
ENDROOT
BRANCH   8   9
HETATM    9  N4  UNL     1       1.244   0.135   0.198  1.00  0.00    -0.369 N 
ATOM     10  H4  UNL     1       0.898   0.624  -0.627  1.00  0.00     0.161 HD
BRANCH   9  11
HETATM   11  C11 UNL     1       2.542   0.521   0.426  1.00  0.00     0.087 C 
HETATM   12  C12 UNL     1       2.988   1.394  -0.764  1.00  0.00     0.051 C 
HETATM   13  C13 UNL     1       4.231   0.824  -1.413  1.00  0.00     0.169 C 
HETATM   14  O2  UNL     1       5.309   0.778  -0.529  1.00  0.00    -0.391 OA
HETATM   15  C14 UNL     1       4.936   0.301   0.706  1.00  0.00     0.169 C 
HETATM   16  C15 UNL     1       3.617  -0.490   0.607  1.00  0.00     0.051 C 
ENDBRANCH   9  11
ENDBRANCH   8   9
BRANCH   1  17
HETATM   17  O1  UNL     1      -0.940   0.295  -1.198  1.00  0.00    -0.345 OA
BRANCH  17  18
HETATM   18  C3  UNL     1      -1.139   1.674  -1.177  1.00  0.00     0.175 C 
BRANCH  18  19
HETATM   19  C2  UNL     1      -2.393   2.193  -0.547  1.00  0.00     0.022 C 
HETATM   20  C1  UNL     1      -2.451   3.708  -0.580  1.00  0.00     0.007 C 
ENDBRANCH  18  19
ENDBRANCH  17  18
ENDBRANCH   1  17
BRANCH   2  21
HETATM   21  C6  UNL     1      -3.203  -1.425  -0.386  1.00  0.00     0.039 A 
HETATM   22  C7  UNL     1      -4.172  -2.512  -0.079  1.00  0.00     0.011 A 
HETATM   23  C8  UNL     1      -3.458  -2.450  -1.433  1.00  0.00     0.011 A 
ENDBRANCH   2  21
BRANCH   5  24
HETATM   24  N2  UNL     1      -0.399  -2.871   3.137  1.00  0.00    -0.234 N 
ATOM     25  H22 UNL     1      -1.189  -3.446   3.431  1.00  0.00     0.174 HD
ATOM     26  H21 UNL     1       0.488  -2.876   3.640  1.00  0.00     0.174 HD
ENDBRANCH   5  24
TORSDOF 7
