REMARK  5 active torsions:
REMARK  status: ('A' for Active; 'I' for Inactive)
REMARK    1  A    between atoms: C5_9  and  C6_10 
REMARK    2  A    between atoms: C6_10  and  N3_11 
REMARK    3  A    between atoms: N3_11  and  C7_13 
REMARK    4  A    between atoms: C7_13  and  C8_14 
REMARK    5  A    between atoms: C8_14  and  N4_15 
ROOT
HETATM    1  C8  UNL     1      -1.185  -0.840  -0.233  1.00  0.00     0.175 C 
HETATM    2  C13 UNL     1      -2.319  -1.701  -0.910  1.00  0.00     0.043 C 
HETATM    3  C14 UNL     1      -1.729  -3.082  -0.730  1.00  0.00     0.003 C 
HETATM    4  C15 UNL     1      -0.834  -3.013   0.506  1.00  0.00     0.003 C 
HETATM    5  C16 UNL     1      -1.079  -1.584   1.036  1.00  0.00     0.043 C 
ENDROOT
BRANCH   1   6
HETATM    6  C7  UNL     1      -0.050  -0.959  -1.191  1.00  0.00     0.161 C 
BRANCH   6   7
HETATM    7  N3  UNL     1       1.106  -0.176  -0.986  1.00  0.00    -0.395 N 
ATOM      8  H3  UNL     1       1.329   0.577  -1.636  1.00  0.00     0.159 HD
BRANCH   7   9
HETATM    9  C6  UNL     1       1.952  -0.427   0.108  1.00  0.00     0.098 C 
BRANCH   9  10
HETATM   10  C5  UNL     1       3.196   0.388   0.136  1.00  0.00     0.026 A 
HETATM   11  C2  UNL     1       4.107   0.234   1.185  1.00  0.00     0.035 A 
HETATM   12  C1  UNL     1       4.003  -0.683   2.352  1.00  0.00     0.070 C 
HETATM   13  N1  UNL     1       5.109   1.091   0.921  1.00  0.00    -0.304 N 
HETATM   14  N2  UNL     1       4.890   1.754  -0.194  1.00  0.00    -0.304 N 
ATOM     15  H1  UNL     1       5.933   1.212   1.510  1.00  0.00     0.186 HD
HETATM   16  C3  UNL     1       3.709   1.328  -0.690  1.00  0.00     0.035 A 
ATOM     17  H2  UNL     1       5.500   2.459  -0.607  1.00  0.00     0.186 HD
HETATM   18  C4  UNL     1       3.073   1.804  -1.944  1.00  0.00     0.070 C 
ENDBRANCH   9  10
ENDBRANCH   7   9
ENDBRANCH   6   7
ENDBRANCH   1   6
BRANCH   1  19
HETATM   19  N4  UNL     1      -1.663   0.517  -0.154  1.00  0.00     0.103 N 
HETATM   20  C9  UNL     1      -2.532   0.659   0.994  1.00  0.00     0.301 C 
HETATM   21  C10 UNL     1      -3.105   2.028   1.153  1.00  0.00     0.262 C 
HETATM   22  N5  UNL     1      -3.573   2.623  -0.071  1.00  0.00    -0.072 N 
HETATM   23  C11 UNL     1      -2.815   2.285  -1.225  1.00  0.00     0.262 C 
ATOM     24  H52 UNL     1      -4.558   2.402  -0.218  1.00  0.00     0.277 HD
ATOM     25  H51 UNL     1      -3.632   3.636   0.029  1.00  0.00     0.277 HD
HETATM   26  C12 UNL     1      -2.463   0.808  -1.315  1.00  0.00     0.301 C 
ENDBRANCH   1  19
TORSDOF 5
