REMARK  4 active torsions:
REMARK  status: ('A' for Active; 'I' for Inactive)
REMARK    1  A    between atoms: C6_6  and  S1_7 
REMARK    2  A    between atoms: S1_7  and  C7_9 
REMARK    3  A    between atoms: C7_9  and  N1_10 
REMARK    4  A    between atoms: N1_10  and  N2_11 
ROOT
HETATM    1  C1  UNL     1      -2.818  -0.323  -1.054  1.00  0.00     0.011 C 
HETATM    2  C2  UNL     1      -1.933  -0.645   0.141  1.00  0.00    -0.010 C 
HETATM    3  C3  UNL     1      -1.115  -1.883  -0.067  1.00  0.00     0.009 C 
HETATM    4  C4  UNL     1       0.106  -1.686  -0.890  1.00  0.00     0.035 C 
HETATM    5  C5  UNL     1       0.777  -0.398  -0.725  1.00  0.00    -0.070 C 
HETATM    6  C6  UNL     1       2.064  -0.287  -0.992  1.00  0.00     0.088 C 
HETATM    7  C8  UNL     1       0.063   0.816  -0.262  1.00  0.00     0.043 C 
HETATM    8  C9  UNL     1      -1.127   0.533   0.593  1.00  0.00    -0.041 C 
HETATM    9  C10 UNL     1      -1.992   1.762   0.630  1.00  0.00     0.015 C 
HETATM   10  C11 UNL     1      -0.700   0.254   2.036  1.00  0.00     0.015 C 
ENDROOT
BRANCH   6  11
HETATM   11  S1  UNL     1       2.953   1.206  -0.827  1.00  0.00     0.095 S 
HETATM   12  O1  UNL     1       3.582   1.726  -2.292  1.00  0.00    -0.246 OA
BRANCH  11  13
HETATM   13  C7  UNL     1       4.311   0.993   0.279  1.00  0.00     0.290 C 
BRANCH  13  14
HETATM   14  N1  UNL     1       4.799  -0.169   0.363  1.00  0.00    -0.336 NA
BRANCH  14  15
HETATM   15  N2  UNL     1       5.133  -1.326   0.578  1.00  0.00    -0.280 N 
ATOM     16  H22 UNL     1       4.372  -1.373   1.256  1.00  0.00     0.191 HD
ATOM     17  H21 UNL     1       5.527  -2.264   0.646  1.00  0.00     0.191 HD
ENDBRANCH  14  15
ENDBRANCH  13  14
ENDBRANCH  11  13
ENDBRANCH   6  11
TORSDOF 4
