REMARK  2 active torsions:
REMARK  status: ('A' for Active; 'I' for Inactive)
REMARK    1  A    between atoms: N1_2  and  N2_3 
REMARK       I    between atoms: N2_3  and  C2_5 
REMARK    2  A    between atoms: C2_5  and  C3_7 
ROOT
HETATM    1  C3  UNL     1       0.807  -0.475   0.341  1.00  0.00     0.090 C 
HETATM    2  C4  UNL     1       0.116  -1.537   1.198  1.00  0.00     0.022 C 
HETATM    3  C5  UNL     1      -1.351  -1.405   1.001  1.00  0.00     0.016 C 
HETATM    4  C6  UNL     1      -1.581  -1.505  -0.517  1.00  0.00     0.015 C 
HETATM    5  C7  UNL     1      -1.338  -0.073  -1.000  1.00  0.00     0.024 C 
HETATM    6  C8  UNL     1      -2.517   0.793  -0.541  1.00  0.00     0.127 C 
HETATM    7  C9  UNL     1      -1.911   1.954   0.254  1.00  0.00     0.040 C 
HETATM    8  C10 UNL     1      -0.905   1.086   0.927  1.00  0.00     0.027 C 
HETATM    9  C11 UNL     1      -1.869  -0.024   1.384  1.00  0.00     0.131 C 
HETATM   10  O2  UNL     1      -3.034   0.126   0.597  1.00  0.00    -0.379 OA
HETATM   11  C12 UNL     1      -0.166   0.477  -0.246  1.00  0.00    -0.020 C 
HETATM   12  C13 UNL     1       0.515   1.446  -1.153  1.00  0.00     0.017 C 
ENDROOT
BRANCH   1  13
HETATM   13  C2  UNL     1       1.806  -1.076  -0.532  1.00  0.00     0.251 C 
HETATM   14  N2  UNL     1       2.683  -0.378  -1.389  1.00  0.00    -0.204 N 
ATOM     15  H2  UNL     1       2.364  -0.091  -2.314  1.00  0.00     0.205 HD
HETATM   16  O1  UNL     1       1.922  -2.346  -0.544  1.00  0.00    -0.271 OA
BRANCH  14  17
HETATM   17  N1  UNL     1       3.845  -0.109  -1.024  1.00  0.00    -0.347 NA
HETATM   18  C1  UNL     1       4.876   0.053  -0.336  1.00  0.00     0.258 C 
ENDBRANCH  14  17
ENDBRANCH   1  13
TORSDOF 2
