REMARK  11 active torsions:
REMARK  status: ('A' for Active; 'I' for Inactive)
REMARK    1  A    between atoms: S1_2  and  C2_3 
REMARK    2  A    between atoms: C2_3  and  C3_4 
REMARK    3  A    between atoms: C3_4  and  N1_5 
REMARK    4  A    between atoms: C3_4  and  C4_9 
REMARK    5  A    between atoms: C4_9  and  O1_10 
REMARK    6  A    between atoms: C9_16  and  C10_17 
REMARK    7  A    between atoms: C10_17  and  O2_18 
REMARK    8  A    between atoms: C10_17  and  O3_20 
REMARK    9  A    between atoms: N2_23  and  C12_24 
REMARK   10  A    between atoms: C12_24  and  C13_25 
REMARK       I    between atoms: C13_25  and  N3_27 
REMARK   11  A    between atoms: C16_30  and  N4_31 
ROOT
HETATM    1  C4  UNL     1       2.799   0.410  -1.295  1.00  0.00     0.108 A 
HETATM    2  C5  UNL     1       1.560   1.177  -1.195  1.00  0.00     0.015 A 
HETATM    3  C6  UNL     1       0.516   0.820  -0.482  1.00  0.00     0.029 A 
HETATM    4  C7  UNL     1       0.508  -0.413   0.293  1.00  0.00     0.041 A 
HETATM    5  C8  UNL     1       1.643  -1.188   0.246  1.00  0.00    -0.016 A 
HETATM    6  C9  UNL     1       1.421  -2.285   1.047  1.00  0.00     0.020 A 
HETATM    7  C11 UNL     1       0.150  -2.135   1.555  1.00  0.00     0.104 A 
HETATM    8  N2  UNL     1      -0.418  -0.983   1.093  1.00  0.00    -0.347 N 
HETATM    9  C19 UNL     1       2.851  -0.862  -0.539  1.00  0.00     0.086 A 
ENDROOT
BRANCH   8  10
HETATM   10  C12 UNL     1      -1.758  -0.521   1.425  1.00  0.00     0.231 C 
BRANCH  10  11
HETATM   11  C13 UNL     1      -2.755  -1.052   0.495  1.00  0.00     0.238 C 
HETATM   12  O4  UNL     1      -2.849  -2.323   0.435  1.00  0.00    -0.272 OA
HETATM   13  N3  UNL     1      -3.578  -0.249  -0.300  1.00  0.00    -0.351 N 
HETATM   14  C14 UNL     1      -3.512   1.193  -0.261  1.00  0.00     0.128 C 
HETATM   15  C18 UNL     1      -4.546  -0.883  -1.206  1.00  0.00     0.128 C 
HETATM   16  C15 UNL     1      -4.887   1.679  -0.741  1.00  0.00     0.052 C 
HETATM   17  C16 UNL     1      -5.908   0.803  -0.048  1.00  0.00     0.186 C 
HETATM   18  C17 UNL     1      -5.951  -0.531  -0.747  1.00  0.00     0.052 C 
BRANCH  17  19
HETATM   19  N4  UNL     1      -7.201   1.447  -0.161  1.00  0.00    -0.075 N 
ATOM     20  H43 UNL     1      -7.197   2.404   0.192  1.00  0.00     0.274 HD
ATOM     21  H42 UNL     1      -7.453   1.659  -1.126  1.00  0.00     0.274 HD
ATOM     22  H41 UNL     1      -7.889   0.857   0.306  1.00  0.00     0.274 HD
ENDBRANCH  17  19
ENDBRANCH  10  11
ENDBRANCH   8  10
BRANCH   6  23
HETATM   23  C10 UNL     1       2.348  -3.430   1.334  1.00  0.00     0.290 C 
BRANCH  23  24
HETATM   24  O2  UNL     1       2.359  -3.732   2.702  1.00  0.00    -0.367 OA
ATOM     25  H2  UNL     1       2.946  -4.457   2.884  1.00  0.00     0.213 HD
ENDBRANCH  23  24
BRANCH  23  26
HETATM   26  O3  UNL     1       1.921  -4.585   0.667  1.00  0.00    -0.367 OA
ATOM     27  H3  UNL     1       2.508  -5.310   0.849  1.00  0.00     0.213 HD
ENDBRANCH  23  26
ENDBRANCH   6  23
BRANCH   1  28
HETATM   28  C3  UNL     1       4.026   1.289  -1.014  1.00  0.00     0.230 C 
BRANCH  28  29
HETATM   29  C2  UNL     1       3.913   1.784   0.403  1.00  0.00     0.109 C 
BRANCH  29  30
HETATM   30  S1  UNL     1       5.260   2.919   0.826  1.00  0.00    -0.171 SA
HETATM   31  C1  UNL     1       6.865   2.097   0.843  1.00  0.00     0.089 C 
ENDBRANCH  29  30
ENDBRANCH  28  29
BRANCH  28  32
HETATM   32  N1  UNL     1       3.974   2.441  -1.898  1.00  0.00    -0.071 N 
ATOM     33  H13 UNL     1       3.146   3.017  -1.746  1.00  0.00     0.274 HD
ATOM     34  H12 UNL     1       4.675   3.146  -1.669  1.00  0.00     0.274 HD
ATOM     35  H11 UNL     1       4.051   2.106  -2.858  1.00  0.00     0.274 HD
ENDBRANCH  28  32
ENDBRANCH   1  28
BRANCH   1  36
HETATM   36  O1  UNL     1       2.942   0.069  -2.666  1.00  0.00    -0.383 OA
ATOM     37  H1  UNL     1       2.183  -0.475  -2.840  1.00  0.00     0.211 HD
ENDBRANCH   1  36
TORSDOF 11
