REMARK  5 active torsions:
REMARK  status: ('A' for Active; 'I' for Inactive)
REMARK    1  A    between atoms: C3_3  and  S1_4 
REMARK    2  A    between atoms: S1_4  and  C4_5 
REMARK    3  A    between atoms: C4_5  and  C5_6 
REMARK       I    between atoms: C5_6  and  N1_8 
REMARK    4  A    between atoms: N1_8  and  C6_10 
REMARK    5  A    between atoms: C11_18  and  C12_19 
ROOT
HETATM    1  C1  UNL     1      -2.441   3.298   0.006  1.00  0.00     0.052 C 
HETATM    2  C2  UNL     1      -2.890   1.889   0.003  1.00  0.00    -0.017 A 
HETATM    3  C3  UNL     1      -2.108   0.907   0.644  1.00  0.00     0.092 A 
HETATM    4  N2  UNL     1      -2.515  -0.388   0.627  1.00  0.00    -0.284 N 
ATOM      5  H2  UNL     1      -1.932  -1.080   1.097  1.00  0.00     0.188 HD
HETATM    6  N3  UNL     1      -3.620  -0.804   0.038  1.00  0.00    -0.219 N 
HETATM    7  C11 UNL     1      -4.225  -2.008  -0.107  1.00  0.00     0.175 A 
HETATM    8  N4  UNL     1      -5.350  -1.793  -0.818  1.00  0.00    -0.282 N 
ATOM      9  H4  UNL     1      -6.015  -2.518  -1.086  1.00  0.00     0.188 HD
HETATM   10  N5  UNL     1      -5.472  -0.510  -1.120  1.00  0.00    -0.282 N 
ATOM     11  H5  UNL     1      -6.225  -0.071  -1.649  1.00  0.00     0.188 HD
HETATM   12  C13 UNL     1      -4.391   0.098  -0.581  1.00  0.00     0.150 A 
HETATM   13  C14 UNL     1      -4.042   1.462  -0.613  1.00  0.00    -0.006 A 
HETATM   14  C15 UNL     1      -4.895   2.454  -1.273  1.00  0.00     0.053 C 
ENDROOT
BRANCH   3  15
HETATM   15  S1  UNL     1      -0.658   1.477   1.474  1.00  0.00    -0.101 SA
BRANCH  15  16
HETATM   16  C4  UNL     1       0.837   1.522   0.528  1.00  0.00     0.183 C 
BRANCH  16  17
HETATM   17  C5  UNL     1       1.433   0.230   0.157  1.00  0.00     0.227 C 
HETATM   18  O1  UNL     1       0.748  -0.618  -0.459  1.00  0.00    -0.273 OA
HETATM   19  N1  UNL     1       2.766  -0.075   0.484  1.00  0.00    -0.356 N 
ATOM     20  H1  UNL     1       3.288   0.644   0.985  1.00  0.00     0.162 HD
BRANCH  19  21
HETATM   21  C6  UNL     1       3.475  -1.294   0.188  1.00  0.00     0.084 C 
HETATM   22  C7  UNL     1       4.311  -1.099  -1.100  1.00  0.00     0.025 C 
HETATM   23  C8  UNL     1       5.467  -0.300  -0.474  1.00  0.00     0.002 C 
HETATM   24  C9  UNL     1       5.837  -1.254   0.642  1.00  0.00     0.002 C 
HETATM   25  C10 UNL     1       4.503  -1.631   1.235  1.00  0.00     0.025 C 
ENDBRANCH  19  21
ENDBRANCH  16  17
ENDBRANCH  15  16
ENDBRANCH   3  15
BRANCH   7  26
HETATM   26  C12 UNL     1      -3.691  -3.306   0.425  1.00  0.00     0.249 C 
HETATM   27 CL1  UNL     1      -2.566  -4.046  -0.702  1.00  0.00    -0.075 Cl
HETATM   28 CL2  UNL     1      -2.817  -2.969   1.945  1.00  0.00    -0.075 Cl
HETATM   29 CL3  UNL     1      -5.049  -4.399   0.814  1.00  0.00    -0.075 Cl
ENDBRANCH   7  26
TORSDOF 5
