REMARK  7 active torsions:
REMARK  status: ('A' for Active; 'I' for Inactive)
REMARK    1  A    between atoms: C5_5  and  C6_6 
REMARK    2  A    between atoms: C6_6  and  O1_7 
REMARK    3  A    between atoms: C6_6  and  C7_9 
REMARK    4  A    between atoms: C7_9  and  O2_10 
REMARK    5  A    between atoms: N1_12  and  C8_13 
REMARK    6  A    between atoms: C8_13  and  C9_14 
REMARK    7  A    between atoms: C9_14  and  C11_16 
ROOT
HETATM    1  C1  UNL     1      -2.707  -2.887  -0.739  1.00  0.00     0.011 C 
HETATM    2  C2  UNL     1      -1.449  -2.069  -1.044  1.00  0.00    -0.001 C 
HETATM    3  C3  UNL     1      -1.828  -0.846  -1.854  1.00  0.00     0.008 C 
HETATM    4  C4  UNL     1      -2.187   0.309  -0.947  1.00  0.00     0.028 C 
HETATM    5  C5  UNL     1      -1.011   0.683  -0.042  1.00  0.00     0.114 C 
HETATM    6  N1  UNL     1      -0.151  -0.394   0.210  1.00  0.00    -0.385 N 
HETATM    7  C14 UNL     1      -0.865  -1.656   0.265  1.00  0.00     0.126 C 
ENDROOT
BRANCH   5   8
HETATM    8  C6  UNL     1      -1.689   1.069   1.287  1.00  0.00     0.164 C 
BRANCH   8   9
HETATM    9  O1  UNL     1      -0.775   1.429   2.261  1.00  0.00    -0.391 OA
ATOM     10  H1  UNL     1      -1.193   1.667   3.080  1.00  0.00     0.210 HD
ENDBRANCH   8   9
BRANCH   8  11
HETATM   11  C7  UNL     1      -2.641   2.227   1.057  1.00  0.00     0.197 C 
BRANCH  11  12
HETATM   12  O2  UNL     1      -3.279   2.485   2.256  1.00  0.00    -0.398 OA
ATOM     13  H2  UNL     1      -3.875   3.210   2.112  1.00  0.00     0.209 HD
ENDBRANCH  11  12
ENDBRANCH   8  11
ENDBRANCH   5   8
BRANCH   6  14
HETATM   14  C8  UNL     1       1.139  -0.483  -0.318  1.00  0.00     0.063 C 
BRANCH  14  15
HETATM   15  C9  UNL     1       2.218   0.406   0.137  1.00  0.00     0.024 C 
HETATM   16  C10 UNL     1       1.958   1.843  -0.113  1.00  0.00     0.016 C 
BRANCH  15  17
HETATM   17  C11 UNL     1       3.587   0.046  -0.366  1.00  0.00    -0.006 A 
HETATM   18  C12 UNL     1       4.261  -1.210  -0.116  1.00  0.00     0.005 A 
HETATM   19  C13 UNL     1       4.720   0.051   0.632  1.00  0.00     0.005 A 
ENDBRANCH  15  17
ENDBRANCH  14  15
ENDBRANCH   6  14
TORSDOF 7
