REMARK  17 active torsions:
REMARK  status: ('A' for Active; 'I' for Inactive)
REMARK    1  A    between atoms: C2_2  and  C3_3 
REMARK    2  A    between atoms: C3_3  and  N1_4 
REMARK       I    between atoms: N1_4  and  C4_6 
REMARK       I    between atoms: C4_6  and  N2_8 
REMARK    3  A    between atoms: N2_8  and  C5_10 
REMARK    4  A    between atoms: C5_10  and  C6_11 
REMARK    5  A    between atoms: C6_11  and  C7_12 
REMARK    6  A    between atoms: C7_12  and  C8_13 
REMARK    7  A    between atoms: C8_13  and  C9_14 
REMARK    8  A    between atoms: C12_18  and  C13_19 
REMARK    9  A    between atoms: C20_29  and  C21_30 
REMARK   10  A    between atoms: C21_30  and  C22_31 
REMARK   11  A    between atoms: C22_31  and  C23_32 
REMARK   12  A    between atoms: C25_34  and  O4_35 
REMARK   13  A    between atoms: C26_39  and  C27_40 
REMARK   14  A    between atoms: C27_40  and  C28_41 
REMARK   15  A    between atoms: C31_44  and  O5_45 
REMARK   16  A    between atoms: N5_47  and  C32_48 
REMARK   17  A    between atoms: C32_48  and  C33_49 
ROOT
HETATM    1  C9  UNL     1       1.304  -0.671   0.517  1.00  0.00     0.115 C 
HETATM    2  C10 UNL     1       1.192   0.697   1.302  1.00  0.00     0.193 C 
HETATM    3  O2  UNL     1      -0.150   1.037   1.311  1.00  0.00    -0.388 OA
HETATM    4  C11 UNL     1      -0.397   2.351   1.042  1.00  0.00     0.182 C 
HETATM    5  C12 UNL     1      -1.473   2.588   0.013  1.00  0.00     0.105 C 
HETATM    6  C19 UNL     1      -1.900   1.380  -0.681  1.00  0.00     0.225 C 
HETATM    7  O3  UNL     1      -1.265   1.194  -1.798  1.00  0.00    -0.273 OA
HETATM    8  N3  UNL     1      -2.840   0.400  -0.390  1.00  0.00    -0.349 N 
ATOM      9  H3  UNL     1      -3.277   0.002  -1.221  1.00  0.00     0.163 HD
HETATM   10  C20 UNL     1      -3.318  -0.161   0.813  1.00  0.00     0.159 C 
HETATM   11  C25 UNL     1      -3.231  -1.618   1.012  1.00  0.00     0.139 C 
HETATM   12  N4  UNL     1      -2.552  -2.658   0.432  1.00  0.00    -0.339 N 
ATOM     13  H4  UNL     1      -3.152  -3.423   0.123  1.00  0.00     0.167 HD
HETATM   14  C26 UNL     1      -1.120  -2.878   0.172  1.00  0.00     0.062 C 
HETATM   15  C31 UNL     1      -0.295  -2.413   1.283  1.00  0.00     0.165 C 
HETATM   16  N5  UNL     1       0.928  -1.707   1.421  1.00  0.00    -0.333 N 
ENDROOT
BRANCH   1  17
HETATM   17  C8  UNL     1       2.589  -0.551  -0.142  1.00  0.00     0.028 C 
BRANCH  17  18
HETATM   18  C7  UNL     1       3.100  -1.557  -1.087  1.00  0.00     0.004 C 
BRANCH  18  19
HETATM   19  C6  UNL     1       4.494  -1.124  -1.551  1.00  0.00     0.020 C 
BRANCH  19  20
HETATM   20  C5  UNL     1       4.486   0.203  -2.244  1.00  0.00     0.124 C 
BRANCH  20  21
HETATM   21  N2  UNL     1       5.808   0.545  -2.683  1.00  0.00    -0.343 N 
HETATM   22  C4  UNL     1       6.922   0.728  -1.835  1.00  0.00     0.316 C 
HETATM   23  N1  UNL     1       8.212   1.060  -2.337  1.00  0.00    -0.340 N 
HETATM   24  O1  UNL     1       6.827   0.607  -0.588  1.00  0.00    -0.247 OA
ATOM     25  H1  UNL     1       8.341   1.171  -3.343  1.00  0.00     0.164 HD
ATOM     26  H2  UNL     1       5.955   0.665  -3.685  1.00  0.00     0.164 HD
BRANCH  23  27
HETATM   27  C3  UNL     1       9.342   1.243  -1.457  1.00  0.00     0.150 C 
BRANCH  27  28
HETATM   28  C2  UNL     1       9.139   2.335  -0.470  1.00  0.00    -0.018 C 
HETATM   29  C1  UNL     1       9.172   2.111   0.830  1.00  0.00     0.008 C 
ENDBRANCH  27  28
ENDBRANCH  23  27
ENDBRANCH  20  21
ENDBRANCH  19  20
ENDBRANCH  18  19
ENDBRANCH  17  18
ENDBRANCH   1  17
BRANCH  16  30
HETATM   30  C32 UNL     1       1.643  -2.000   2.633  1.00  0.00     0.070 C 
BRANCH  30  31
HETATM   31  C33 UNL     1       2.509  -3.140   2.826  1.00  0.00     0.016 C 
HETATM   32  C34 UNL     1       3.723  -3.399   2.056  1.00  0.00     0.015 C 
HETATM   33  C35 UNL     1       1.716  -4.487   2.808  1.00  0.00     0.015 C 
ENDBRANCH  30  31
ENDBRANCH  16  30
BRANCH  15  34
HETATM   34  O5  UNL     1      -0.893  -2.771   2.404  1.00  0.00    -0.344 OA
ATOM     35  H5  UNL     1      -0.356  -2.468   3.127  1.00  0.00     0.219 HD
ENDBRANCH  15  34
BRANCH  14  36
HETATM   36  C27 UNL     1      -0.681  -2.679  -1.209  1.00  0.00     0.065 C 
BRANCH  36  37
HETATM   37  C28 UNL     1      -1.323  -3.582  -2.229  1.00  0.00    -0.017 C 
HETATM   38  C29 UNL     1      -2.796  -3.471  -2.396  1.00  0.00     0.010 C 
HETATM   39  C30 UNL     1      -0.687  -3.189  -3.577  1.00  0.00     0.010 C 
ENDBRANCH  36  37
ENDBRANCH  14  36
BRANCH   5  40
HETATM   40  C13 UNL     1      -2.596   3.449   0.563  1.00  0.00     0.001 C 
HETATM   41  C14 UNL     1      -3.654   3.685  -0.525  1.00  0.00     0.005 C 
HETATM   42  C15 UNL     1      -4.878   4.285   0.112  1.00  0.00     0.000 C 
HETATM   43  C16 UNL     1      -4.548   4.922   1.444  1.00  0.00     0.000 C 
HETATM   44  C17 UNL     1      -3.261   5.689   1.371  1.00  0.00     0.000 C 
HETATM   45  C18 UNL     1      -2.097   4.833   0.923  1.00  0.00     0.005 C 
ENDBRANCH   5  40
BRANCH  11  46
HETATM   46  O4  UNL     1      -4.014  -1.970   2.000  1.00  0.00    -0.348 OA
ATOM     47  H4  UNL     1      -3.958  -2.910   2.128  1.00  0.00     0.219 HD
ENDBRANCH  11  46
BRANCH  10  48
HETATM   48  C21 UNL     1      -4.805   0.276   0.944  1.00  0.00     0.033 C 
BRANCH  48  49
HETATM   49  C22 UNL     1      -5.646  -0.189  -0.184  1.00  0.00     0.002 C 
BRANCH  49  50
HETATM   50  C23 UNL     1      -7.067   0.316   0.094  1.00  0.00    -0.004 C 
HETATM   51  C24 UNL     1      -8.016  -0.099  -0.989  1.00  0.00     0.005 C 
ENDBRANCH  49  50
ENDBRANCH  48  49
ENDBRANCH  10  48
TORSDOF 17
