REMARK  11 active torsions:
REMARK  status: ('A' for Active; 'I' for Inactive)
REMARK    1  A    between atoms: C3_4  and  C4_5 
REMARK    2  A    between atoms: C4_5  and  O1_6 
REMARK    3  A    between atoms: C5_9  and  O3_10 
REMARK    4  A    between atoms: O3_10  and  C6_11 
REMARK    5  A    between atoms: C7_13  and  C8_14 
REMARK    6  A    between atoms: C8_14  and  C9_15 
REMARK    7  A    between atoms: C9_15  and  O5_16 
REMARK    8  A    between atoms: C10_18  and  O6_19 
REMARK    9  A    between atoms: C11_21  and  O7_22 
REMARK   10  A    between atoms: C12_24  and  N2_25 
REMARK   11  A    between atoms: C13_29  and  N3_30 
ROOT
HETATM    1  N1  UNL     1      -5.947   0.109   1.513  1.00  0.00    -0.197 NA
HETATM    2  C1  UNL     1      -5.030   0.183   0.818  1.00  0.00     0.069 C 
HETATM    3  C2  UNL     1      -3.862   0.266  -0.053  1.00  0.00     0.156 C 
HETATM    4  C3  UNL     1      -2.949  -0.921   0.110  1.00  0.00     0.168 C 
HETATM    5  O2  UNL     1      -1.938  -0.779  -0.826  1.00  0.00    -0.350 OA
HETATM    6  C5  UNL     1      -1.082   0.263  -0.599  1.00  0.00     0.296 C 
HETATM    7  C12 UNL     1      -1.715   1.560  -0.224  1.00  0.00     0.270 C 
HETATM    8  C13 UNL     1      -3.061   1.481   0.375  1.00  0.00     0.238 C 
ENDROOT
BRANCH   4   9
HETATM    9  C4  UNL     1      -3.640  -2.232  -0.200  1.00  0.00     0.197 C 
BRANCH   9  10
HETATM   10  O1  UNL     1      -4.682  -2.498   0.670  1.00  0.00    -0.398 OA
ATOM     11  H1  UNL     1      -5.116  -3.321   0.475  1.00  0.00     0.209 HD
ENDBRANCH   9  10
ENDBRANCH   4   9
BRANCH   8  12
HETATM   12  N3  UNL     1      -3.893   2.644   0.113  1.00  0.00    -0.071 N 
ATOM     13  H33 UNL     1      -4.219   2.696  -0.852  1.00  0.00     0.274 HD
ATOM     14  H32 UNL     1      -4.810   2.590   0.556  1.00  0.00     0.274 HD
ATOM     15  H31 UNL     1      -3.354   3.461   0.401  1.00  0.00     0.274 HD
ENDBRANCH   8  12
BRANCH   7  16
HETATM   16  N2  UNL     1      -1.737   2.479  -1.373  1.00  0.00    -0.068 N 
ATOM     17  H23 UNL     1      -0.806   2.613  -1.768  1.00  0.00     0.275 HD
ATOM     18  H22 UNL     1      -2.189   2.058  -2.185  1.00  0.00     0.275 HD
ATOM     19  H21 UNL     1      -2.170   3.366  -1.116  1.00  0.00     0.275 HD
ENDBRANCH   7  16
BRANCH   6  20
HETATM   20  O3  UNL     1      -0.146  -0.145   0.351  1.00  0.00    -0.327 OA
BRANCH  20  21
HETATM   21  C6  UNL     1       1.141  -0.211  -0.175  1.00  0.00     0.294 C 
HETATM   22  O4  UNL     1       2.028   0.648   0.443  1.00  0.00    -0.350 OA
HETATM   23  C7  UNL     1       3.266   0.200  -0.041  1.00  0.00     0.158 C 
HETATM   24  C10 UNL     1       3.210  -1.265   0.226  1.00  0.00     0.180 C 
HETATM   25  C11 UNL     1       1.741  -1.586  -0.093  1.00  0.00     0.204 C 
BRANCH  23  26
HETATM   26  C8  UNL     1       4.402   0.944   0.562  1.00  0.00     0.061 C 
BRANCH  26  27
HETATM   27  C9  UNL     1       5.711   0.448   0.021  1.00  0.00     0.166 C 
BRANCH  27  28
HETATM   28  O5  UNL     1       5.925  -0.874   0.300  1.00  0.00    -0.401 OA
ATOM     29  H5  UNL     1       6.754  -1.188  -0.042  1.00  0.00     0.209 HD
ENDBRANCH  27  28
ENDBRANCH  26  27
ENDBRANCH  23  26
BRANCH  24  30
HETATM   30  O6  UNL     1       3.437  -1.615   1.549  1.00  0.00    -0.390 OA
ATOM     31  H6  UNL     1       3.401  -2.549   1.719  1.00  0.00     0.210 HD
ENDBRANCH  24  30
BRANCH  25  32
HETATM   32  O7  UNL     1       1.746  -2.236  -1.323  1.00  0.00    -0.388 OA
ATOM     33  H7  UNL     1       2.125  -3.105  -1.271  1.00  0.00     0.210 HD
ENDBRANCH  25  32
ENDBRANCH  20  21
ENDBRANCH   6  20
TORSDOF 11
