REMARK  8 active torsions:
REMARK  status: ('A' for Active; 'I' for Inactive)
REMARK    1  A    between atoms: N1_2  and  N2_3 
REMARK       I    between atoms: N1_2  and  C2_7 
REMARK    2  A    between atoms: N2_3  and  O1_5 
REMARK    3  A    between atoms: C2_7  and  C3_9 
REMARK    4  A    between atoms: C3_9  and  N3_10 
REMARK    5  A    between atoms: C4_11  and  N4_12 
REMARK    6  A    between atoms: C5_17  and  N6_18 
REMARK    7  A    between atoms: C6_23  and  N8_24 
REMARK    8  A    between atoms: N8_24  and  N9_26 
ROOT
HETATM    1  N3  UNL     1      -0.624   0.290   0.542  1.00  0.00    -0.003 N 
HETATM    2  C4  UNL     1      -1.018   1.518   0.887  1.00  0.00     0.707 A 
HETATM    3  N5  UNL     1      -2.268   1.904   0.555  1.00  0.00    -0.022 N 
ATOM      4  H5  UNL     1      -2.587   2.838   0.811  1.00  0.00     0.203 HD
HETATM    5  C5  UNL     1      -3.099   1.085  -0.104  1.00  0.00     0.705 A 
HETATM    6  N7  UNL     1      -2.693  -0.158  -0.451  1.00  0.00    -0.020 N 
ATOM      7  H7  UNL     1      -3.318  -0.789  -0.953  1.00  0.00     0.203 HD
HETATM    8  C6  UNL     1      -1.448  -0.544  -0.120  1.00  0.00     0.728 A 
ENDROOT
BRANCH   1   9
HETATM    9  C3  UNL     1       0.690  -0.205   0.866  1.00  0.00     0.271 C 
BRANCH   9  10
HETATM   10  C2  UNL     1       1.699   0.080  -0.146  1.00  0.00     0.258 C 
HETATM   11  N1  UNL     1       3.030  -0.348   0.042  1.00  0.00    -0.245 N 
HETATM   12  C1  UNL     1       4.070  -0.076  -0.960  1.00  0.00     0.183 C 
HETATM   13  O2  UNL     1       1.392   0.701  -1.182  1.00  0.00    -0.270 OA
BRANCH  11  14
HETATM   14  N2  UNL     1       3.405  -1.056   1.209  1.00  0.00    -0.206 N 
ATOM     15  H2  UNL     1       3.162  -0.654   2.114  1.00  0.00     0.216 HD
BRANCH  14  16
HETATM   16  O1  UNL     1       4.004  -2.124   1.194  1.00  0.00    -0.274 OA
ATOM     17  H1  UNL     1       4.256  -2.599   1.977  1.00  0.00     0.246 HD
ENDBRANCH  14  16
ENDBRANCH  11  14
ENDBRANCH   9  10
ENDBRANCH   1   9
BRANCH   2  18
HETATM   18  N4  UNL     1      -0.232   2.355   1.524  1.00  0.00    -0.233 N 
ATOM     19  H42 UNL     1       0.713   2.063   1.775  1.00  0.00     0.174 HD
ATOM     20  H41 UNL     1      -0.533   3.293   1.788  1.00  0.00     0.174 HD
ENDBRANCH   2  18
BRANCH   8  21
HETATM   21  N8  UNL     1      -1.014  -1.738  -0.436  1.00  0.00    -0.137 N 
ATOM     22  H8  UNL     1      -0.072  -2.045  -0.192  1.00  0.00     0.205 HD
BRANCH  21  23
HETATM   23  N9  UNL     1      -1.892  -2.564  -1.116  1.00  0.00    -0.331 N 
ATOM     24  H92 UNL     1      -2.831  -2.242  -1.353  1.00  0.00     0.177 HD
ATOM     25  H91 UNL     1      -1.554  -3.494  -1.362  1.00  0.00     0.177 HD
ENDBRANCH  21  23
ENDBRANCH   8  21
BRANCH   5  26
HETATM   26  N6  UNL     1      -4.300   1.418  -0.440  1.00  0.00    -0.234 N 
ATOM     27  H62 UNL     1      -4.606   2.355  -0.178  1.00  0.00     0.174 HD
ATOM     28  H61 UNL     1      -4.933   0.795  -0.942  1.00  0.00     0.174 HD
ENDBRANCH   5  26
TORSDOF 8
