REMARK  10 active torsions:
REMARK  status: ('A' for Active; 'I' for Inactive)
REMARK    1  A    between atoms: C3_3  and  N1_4 
REMARK    2  A    between atoms: N1_4  and  C4_7 
REMARK    3  A    between atoms: C9_12  and  C10_13 
REMARK    4  A    between atoms: C10_13  and  C11_14 
REMARK    5  A    between atoms: C11_14  and  O1_15 
REMARK    6  A    between atoms: C11_14  and  C12_17 
REMARK    7  A    between atoms: C12_17  and  O2_18 
REMARK    8  A    between atoms: C17_24  and  O3_25 
REMARK    9  A    between atoms: C19_28  and  O4_29 
REMARK   10  A    between atoms: C21_32  and  O5_33 
ROOT
HETATM    1  C1  UNL     1       0.811  -0.828   1.764  1.00  0.00     0.012 C 
HETATM    2  C2  UNL     1       0.735  -0.768   0.292  1.00  0.00     0.017 C 
HETATM    3  C3  UNL     1       2.116  -0.127  -0.105  1.00  0.00     0.195 C 
HETATM    4  C9  UNL     1       1.855   1.269   0.515  1.00  0.00     0.023 C 
HETATM    5  C13 UNL     1       0.459   1.515   0.070  1.00  0.00    -0.004 C 
HETATM    6  C14 UNL     1       0.253   2.375  -1.135  1.00  0.00     0.006 C 
HETATM    7  C15 UNL     1      -1.231   2.726  -1.093  1.00  0.00     0.008 C 
HETATM    8  C16 UNL     1      -2.084   1.682  -0.427  1.00  0.00     0.020 C 
HETATM    9  C17 UNL     1      -3.409   1.781  -1.144  1.00  0.00     0.125 C 
HETATM   10  C18 UNL     1      -4.362   0.704  -0.892  1.00  0.00     0.071 C 
HETATM   11  C19 UNL     1      -3.826  -0.635  -0.586  1.00  0.00     0.070 C 
HETATM   12  C20 UNL     1      -4.878  -1.448   0.078  1.00  0.00     0.070 C 
HETATM   13  C21 UNL     1      -5.075  -1.182   1.538  1.00  0.00     0.121 C 
HETATM   14  C22 UNL     1      -4.047  -0.249   2.113  1.00  0.00     0.032 C 
HETATM   15  C23 UNL     1      -2.664  -0.454   1.592  1.00  0.00     0.015 C 
HETATM   16  C24 UNL     1      -2.485  -0.665   0.154  1.00  0.00    -0.008 C 
HETATM   17  C25 UNL     1      -1.983  -2.097  -0.114  1.00  0.00     0.019 C 
HETATM   18  C26 UNL     1      -1.525   0.250  -0.551  1.00  0.00     0.008 C 
HETATM   19  C27 UNL     1      -0.103   0.148  -0.413  1.00  0.00     0.001 C 
ENDROOT
BRANCH   3  20
HETATM   20  N1  UNL     1       3.208  -0.785   0.494  1.00  0.00    -0.066 N 
ATOM     21  H12 UNL     1       4.076  -0.277   0.323  1.00  0.00     0.278 HD
ATOM     22  H11 UNL     1       3.165  -0.707   1.510  1.00  0.00     0.278 HD
BRANCH  20  23
HETATM   23  C4  UNL     1       3.332  -2.144   0.096  1.00  0.00     0.186 C 
HETATM   24  C5  UNL     1       3.582  -2.331  -1.385  1.00  0.00     0.033 C 
HETATM   25  C6  UNL     1       4.101  -3.766  -1.444  1.00  0.00     0.002 C 
HETATM   26  C7  UNL     1       4.664  -4.065  -0.070  1.00  0.00     0.002 C 
HETATM   27  C8  UNL     1       4.623  -2.736   0.680  1.00  0.00     0.033 C 
ENDBRANCH  20  23
ENDBRANCH   3  20
BRANCH   4  28
HETATM   28  C10 UNL     1       2.908   2.189   0.061  1.00  0.00     0.041 C 
BRANCH  28  29
HETATM   29  C11 UNL     1       2.902   3.573   0.594  1.00  0.00     0.142 C 
BRANCH  29  30
HETATM   30  O1  UNL     1       3.967   4.336   0.052  1.00  0.00    -0.393 OA
ATOM     31  H1  UNL     1       3.963   5.223   0.393  1.00  0.00     0.210 HD
ENDBRANCH  29  30
BRANCH  29  32
HETATM   32  C12 UNL     1       3.162   3.606   2.102  1.00  0.00     0.195 C 
BRANCH  32  33
HETATM   33  O2  UNL     1       3.125   4.972   2.456  1.00  0.00    -0.398 OA
ATOM     34  H2  UNL     1       3.286   4.992   3.392  1.00  0.00     0.209 HD
ENDBRANCH  32  33
ENDBRANCH  29  32
ENDBRANCH  28  29
ENDBRANCH   4  28
BRANCH   9  35
HETATM   35  O3  UNL     1      -3.103   1.801  -2.525  1.00  0.00    -0.395 OA
ATOM     36  H3  UNL     1      -3.937   1.863  -2.976  1.00  0.00     0.210 HD
ENDBRANCH   9  35
BRANCH  11  37
HETATM   37  O4  UNL     1      -3.558  -1.266  -1.828  1.00  0.00    -0.389 OA
ATOM     38  H4  UNL     1      -3.213  -2.129  -1.631  1.00  0.00     0.210 HD
ENDBRANCH  11  37
BRANCH  13  39
HETATM   39  O5  UNL     1      -5.027  -2.396   2.265  1.00  0.00    -0.395 OA
ATOM     40  H5  UNL     1      -5.152  -2.227   3.191  1.00  0.00     0.210 HD
ENDBRANCH  13  39
TORSDOF 10
