REMARK  6 active torsions:
REMARK  status: ('A' for Active; 'I' for Inactive)
REMARK    1  A    between atoms: C2_2  and  O1_3 
REMARK    2  A    between atoms: O1_3  and  C3_4 
REMARK    3  A    between atoms: C3_4  and  N3_10 
REMARK    4  A    between atoms: N1_5  and  N2_7 
REMARK    5  A    between atoms: N3_10  and  N4_12 
REMARK    6  A    between atoms: C7_19  and  C8_20 
ROOT
HETATM    1  C1  UNL     1       0.469  -2.071   0.148  1.00  0.00     0.082 C 
HETATM    2  C2  UNL     1       0.336  -0.734   0.799  1.00  0.00     0.191 C 
HETATM    3  C4  UNL     1      -0.262  -0.988   2.192  1.00  0.00     0.236 C 
HETATM    4  O2  UNL     1      -1.015   0.150   2.508  1.00  0.00    -0.386 OA
HETATM    5  C5  UNL     1      -2.338  -0.182   2.252  1.00  0.00     0.170 C 
HETATM    6  C6  UNL     1      -2.754  -0.109   0.849  1.00  0.00     0.066 C 
HETATM    7  C7  UNL     1      -1.706  -0.279  -0.196  1.00  0.00     0.197 C 
HETATM    8  O3  UNL     1      -0.460   0.158   0.126  1.00  0.00    -0.340 OA
ENDROOT
BRANCH   2   9
HETATM    9  O1  UNL     1       1.578  -0.110   1.054  1.00  0.00    -0.280 OA
BRANCH   9  10
HETATM   10  C3  UNL     1       2.498   0.218   0.112  1.00  0.00     0.255 C 
HETATM   11  N1  UNL     1       2.291  -0.090  -1.112  1.00  0.00    -0.271 N 
ATOM     12  H1  UNL     1       1.434  -0.581  -1.369  1.00  0.00     0.190 HD
BRANCH  11  13
HETATM   13  N2  UNL     1       3.219   0.235  -2.100  1.00  0.00    -0.342 N 
ATOM     14  H22 UNL     1       4.070   0.726  -1.826  1.00  0.00     0.176 HD
ATOM     15  H21 UNL     1       3.054  -0.011  -3.076  1.00  0.00     0.176 HD
ENDBRANCH  11  13
BRANCH  10  16
HETATM   16  N3  UNL     1       3.674   0.893   0.474  1.00  0.00    -0.271 N 
ATOM     17  H3  UNL     1       4.539   0.373   0.620  1.00  0.00     0.190 HD
BRANCH  16  18
HETATM   18  N4  UNL     1       3.653   2.274   0.632  1.00  0.00    -0.342 N 
ATOM     19  H42 UNL     1       2.780   2.779   0.482  1.00  0.00     0.176 HD
ATOM     20  H41 UNL     1       4.508   2.765   0.895  1.00  0.00     0.176 HD
ENDBRANCH  16  18
ENDBRANCH  10  16
ENDBRANCH   9  10
ENDBRANCH   2   9
BRANCH   7  21
HETATM   21  C8  UNL     1      -2.147   0.452  -1.428  1.00  0.00     0.139 A 
HETATM   22  N5  UNL     1      -3.349   1.017  -1.650  1.00  0.00    -0.273 N 
HETATM   23  N6  UNL     1      -3.354   1.563  -2.843  1.00  0.00    -0.225 N 
ATOM     24  H5  UNL     1      -4.131   1.020  -0.995  1.00  0.00     0.189 HD
HETATM   25  N7  UNL     1      -2.179   1.372  -3.418  1.00  0.00    -0.005 NA
ATOM     26  H6  UNL     1      -4.142   2.058  -3.262  1.00  0.00     0.205 HD
HETATM   27  N8  UNL     1      -1.441   0.692  -2.552  1.00  0.00    -0.268 N 
ATOM     28  H8  UNL     1      -0.479   0.394  -2.712  1.00  0.00     0.185 HD
ENDBRANCH   7  21
TORSDOF 6
