REMARK  4 active torsions:
REMARK  status: ('A' for Active; 'I' for Inactive)
REMARK    1  A    between atoms: C2_2  and  O2_4 
REMARK    2  A    between atoms: O2_4  and  C3_5 
REMARK    3  A    between atoms: C3_5  and  C4_6 
REMARK    4  A    between atoms: C7_15  and  C9_18 
ROOT
HETATM    1  C3  UNL     1       0.036   0.306  -0.689  1.00  0.00     0.252 C 
HETATM    2  N1  UNL     1       0.197   0.296  -2.129  1.00  0.00    -0.326 N 
ATOM      3  H1  UNL     1       1.028   0.540  -2.667  1.00  0.00     0.165 HD
HETATM    4  C6  UNL     1      -1.068  -0.131  -2.622  1.00  0.00     0.172 C 
HETATM    5  S1  UNL     1      -1.429  -0.290  -4.191  1.00  0.00    -0.041 SA
HETATM    6  N2  UNL     1      -1.942  -0.387  -1.501  1.00  0.00    -0.335 N 
ATOM      7  H2  UNL     1      -2.959  -0.328  -1.458  1.00  0.00     0.164 HD
HETATM    8  C7  UNL     1      -0.972  -0.762  -0.413  1.00  0.00     0.240 C 
HETATM    9  C8  UNL     1      -0.601  -2.119  -0.551  1.00  0.00     0.105 C 
HETATM   10  N3  UNL     1      -0.346  -3.245  -0.662  1.00  0.00    -0.194 NA
ENDROOT
BRANCH   8  11
HETATM   11  C9  UNL     1      -1.704  -0.603   0.882  1.00  0.00     0.171 C 
HETATM   12  C10 UNL     1      -1.019  -0.955   2.140  1.00  0.00     0.095 C 
HETATM   13  O4  UNL     1      -2.848  -0.195   0.937  1.00  0.00    -0.294 OA
ENDBRANCH   8  11
BRANCH   1  14
HETATM   14  O2  UNL     1       1.219   0.344  -0.041  1.00  0.00    -0.278 OA
BRANCH  14  15
HETATM   15  C2  UNL     1       2.298  -0.477  -0.128  1.00  0.00     0.257 C 
HETATM   16  C1  UNL     1       3.512  -0.247   0.747  1.00  0.00     0.126 C 
HETATM   17  O1  UNL     1       2.382  -1.451  -0.904  1.00  0.00    -0.266 OA
ENDBRANCH  14  15
ENDBRANCH   1  14
BRANCH   1  18
HETATM   18  C4  UNL     1      -0.750   1.590  -0.377  1.00  0.00     0.182 C 
HETATM   19  C5  UNL     1      -0.626   2.303   0.910  1.00  0.00     0.096 C 
HETATM   20  O3  UNL     1      -1.479   2.002  -1.233  1.00  0.00    -0.293 OA
ENDBRANCH   1  18
TORSDOF 4
