REMARK  4 active torsions:
REMARK  status: ('A' for Active; 'I' for Inactive)
REMARK    1  A    between atoms: C2_2  and  C4_4 
REMARK    2  A    between atoms: C4_4  and  N2_8 
REMARK    3  A    between atoms: N2_8  and  C5_10 
REMARK    4  A    between atoms: C9_19  and  C10_20 
ROOT
HETATM    1  C5  UNL     1      -0.278  -0.235   0.726  1.00  0.00     0.107 C 
HETATM    2  C6  UNL     1      -0.429   1.134   0.645  1.00  0.00     0.077 C 
HETATM    3  C7  UNL     1       0.545   2.022   0.238  1.00  0.00     0.118 C 
HETATM    4  S1  UNL     1       0.006   3.562   0.153  1.00  0.00    -0.060 SA
HETATM    5  N3  UNL     1       1.838   1.783  -0.087  1.00  0.00    -0.179 N 
ATOM      6  H3  UNL     1       2.357   2.587  -0.440  1.00  0.00     0.185 HD
HETATM    7  C8  UNL     1       2.544   0.617  -0.009  1.00  0.00     0.709 A 
HETATM    8  N4  UNL     1       3.850   0.491  -0.312  1.00  0.00    -0.168 N 
ATOM      9  H4  UNL     1       4.446   1.255  -0.631  1.00  0.00     0.186 HD
HETATM   10  C9  UNL     1       4.264  -0.777  -0.138  1.00  0.00     0.202 A 
HETATM   11  N6  UNL     1       3.168  -1.442   0.286  1.00  0.00    -0.257 N 
ATOM     12  H6  UNL     1       3.137  -2.436   0.512  1.00  0.00     0.190 HD
HETATM   13  N7  UNL     1       2.140  -0.612   0.364  1.00  0.00    -0.044 N 
HETATM   14  C11 UNL     1       0.902  -0.979   0.757  1.00  0.00     0.309 C 
HETATM   15  O2  UNL     1       0.789  -2.134   1.211  1.00  0.00    -0.263 OA
ENDROOT
BRANCH   1  16
HETATM   16  N2  UNL     1      -1.496  -0.956   0.784  1.00  0.00    -0.341 N 
ATOM     17  H2  UNL     1      -1.474  -1.974   0.845  1.00  0.00     0.167 HD
BRANCH  16  18
HETATM   18  C4  UNL     1      -2.749  -0.284   0.758  1.00  0.00     0.078 C 
HETATM   19  N1  UNL     1      -3.362  -0.153   1.883  1.00  0.00    -0.389 N 
ATOM     20  H12 UNL     1      -4.261   0.329   1.864  1.00  0.00     0.157 HD
ATOM     21  H11 UNL     1      -2.943  -0.525   2.735  1.00  0.00     0.157 HD
BRANCH  18  22
HETATM   22  C2  UNL     1      -3.354   0.253  -0.472  1.00  0.00     0.045 C 
HETATM   23  C1  UNL     1      -4.677   0.900  -0.133  1.00  0.00     0.017 C 
HETATM   24  C3  UNL     1      -3.652  -0.898  -1.417  1.00  0.00     0.017 C 
ENDBRANCH  18  22
ENDBRANCH  16  18
ENDBRANCH   1  16
BRANCH  10  25
HETATM   25  C10 UNL     1       5.590  -1.340  -0.349  1.00  0.00     0.300 C 
HETATM   26  N5  UNL     1       6.658  -0.531  -0.798  1.00  0.00    -0.054 NA
HETATM   27  O1  UNL     1       5.813  -2.556  -0.139  1.00  0.00    -0.268 OA
ENDBRANCH  10  25
TORSDOF 4
