REMARK  15 active torsions:
REMARK  status: ('A' for Active; 'I' for Inactive)
REMARK    1  A    between atoms: N1_1  and  C1_5 
REMARK    2  A    between atoms: C1_5  and  C2_6 
REMARK    3  A    between atoms: C2_6  and  C3_7 
REMARK    4  A    between atoms: C3_7  and  O1_8 
REMARK    5  A    between atoms: O1_8  and  N2_9 
REMARK    6  A    between atoms: C5_11  and  C6_12 
REMARK    7  A    between atoms: C6_12  and  O2_13 
REMARK       I    between atoms: N4_24  and  C13_26 
REMARK    8  A    between atoms: C13_26  and  C14_28 
REMARK    9  A    between atoms: C14_28  and  O5_29 
REMARK   10  A    between atoms: C14_28  and  C15_31 
REMARK   11  A    between atoms: C15_31  and  N5_32 
REMARK   12  A    between atoms: C16_38  and  O6_39 
REMARK   13  A    between atoms: C17_41  and  O7_42 
REMARK   14  A    between atoms: N7_44  and  C18_45 
REMARK   15  A    between atoms: C18_45  and  N8_46 
ROOT
HETATM    1  N2  UNL     1      -1.951  -0.323   0.643  1.00  0.00    -0.119 NA
HETATM    2  C4  UNL     1      -2.452   1.008   0.531  1.00  0.00     0.167 C 
HETATM    3  C5  UNL     1      -1.935   1.763  -0.675  1.00  0.00     0.124 C 
HETATM    4  N3  UNL     1      -1.196   2.949  -0.281  1.00  0.00    -0.353 N 
ATOM      5  H3  UNL     1      -1.265   3.249   0.692  1.00  0.00     0.163 HD
HETATM    6  C7  UNL     1      -0.396   3.710  -1.140  1.00  0.00     0.217 C 
HETATM    7  O3  UNL     1      -0.283   4.953  -0.950  1.00  0.00    -0.274 OA
HETATM    8  C8  UNL     1       0.356   3.150  -2.298  1.00  0.00     0.103 C 
HETATM    9  C9  UNL     1       1.513   2.290  -1.907  1.00  0.00     0.010 C 
HETATM   10  C10 UNL     1       2.307   2.862  -0.784  1.00  0.00     0.008 C 
HETATM   11  C11 UNL     1       2.374   1.956   0.419  1.00  0.00     0.076 C 
HETATM   12  C12 UNL     1       2.698   0.549   0.040  1.00  0.00     0.081 C 
HETATM   13  N4  UNL     1       3.832   0.420  -0.609  1.00  0.00    -0.315 N 
ATOM     14  H4  UNL     1       4.373   1.266  -0.790  1.00  0.00     0.170 HD
HETATM   15  C13 UNL     1       4.352  -0.795  -1.070  1.00  0.00     0.253 C 
HETATM   16  O4  UNL     1       4.028  -1.157  -2.244  1.00  0.00    -0.270 OA
HETATM   17  N6  UNL     1       1.903  -0.571   0.321  1.00  0.00    -0.350 N 
ATOM     18  H6  UNL     1       1.766  -1.228  -0.447  1.00  0.00     0.163 HD
HETATM   19  C16 UNL     1       1.257  -0.905   1.563  1.00  0.00     0.264 C 
HETATM   20  C17 UNL     1      -0.111  -1.510   1.354  1.00  0.00     0.259 C 
HETATM   21  N7  UNL     1      -1.158  -0.587   1.732  1.00  0.00    -0.168 NA
ENDROOT
BRANCH  15  22
HETATM   22  C14 UNL     1       5.249  -1.685  -0.289  1.00  0.00     0.235 C 
BRANCH  22  23
HETATM   23  O5  UNL     1       5.500  -1.131   0.965  1.00  0.00    -0.384 OA
ATOM     24  H5  UNL     1       6.074  -1.700   1.464  1.00  0.00     0.210 HD
ENDBRANCH  22  23
BRANCH  22  25
HETATM   25  C15 UNL     1       6.583  -1.803  -0.993  1.00  0.00     0.271 C 
BRANCH  25  26
HETATM   26  N5  UNL     1       6.452  -2.369  -2.315  1.00  0.00    -0.076 N 
ATOM     27  H53 UNL     1       5.969  -3.267  -2.286  1.00  0.00     0.274 HD
ATOM     28  H52 UNL     1       5.783  -1.843  -2.877  1.00  0.00     0.274 HD
ATOM     29  H51 UNL     1       7.351  -2.449  -2.790  1.00  0.00     0.274 HD
ENDBRANCH  25  26
ENDBRANCH  22  25
ENDBRANCH  15  22
BRANCH  19  30
HETATM   30  O6  UNL     1       1.224   0.145   2.473  1.00  0.00    -0.373 OA
ATOM     31  H6  UNL     1       0.798  -0.075   3.293  1.00  0.00     0.212 HD
ENDBRANCH  19  30
BRANCH  20  32
HETATM   32  O7  UNL     1      -0.181  -2.697   2.072  1.00  0.00    -0.375 OA
ATOM     33  H7  UNL     1      -1.041  -3.078   1.941  1.00  0.00     0.211 HD
ENDBRANCH  20  32
BRANCH  21  34
HETATM   34  C18 UNL     1      -1.856  -1.014   2.921  1.00  0.00     0.342 C 
BRANCH  34  35
HETATM   35  N8  UNL     1      -2.791  -0.011   3.381  1.00  0.00    -0.066 N 
ATOM     36  H83 UNL     1      -2.332   0.889   3.522  1.00  0.00     0.275 HD
ATOM     37  H82 UNL     1      -3.442   0.257   2.643  1.00  0.00     0.275 HD
ATOM     38  H81 UNL     1      -3.284  -0.313   4.221  1.00  0.00     0.275 HD
ENDBRANCH  34  35
ENDBRANCH  21  34
BRANCH   1  39
HETATM   39  O1  UNL     1      -2.861  -1.280   0.488  1.00  0.00    -0.288 OA
BRANCH  39  40
HETATM   40  C3  UNL     1      -3.008  -1.733  -0.800  1.00  0.00     0.197 C 
BRANCH  40  41
HETATM   41  C2  UNL     1      -4.065  -2.814  -0.809  1.00  0.00     0.055 C 
BRANCH  41  42
HETATM   42  C1  UNL     1      -5.371  -2.247  -0.310  1.00  0.00     0.231 C 
BRANCH  42  43
HETATM   43  N1  UNL     1      -5.282  -1.735   1.029  1.00  0.00    -0.079 N 
ATOM     44  H13 UNL     1      -4.925  -2.445   1.668  1.00  0.00     0.274 HD
ATOM     45  H12 UNL     1      -4.532  -1.048   1.108  1.00  0.00     0.274 HD
ATOM     46  H11 UNL     1      -6.165  -1.352   1.366  1.00  0.00     0.274 HD
ENDBRANCH  42  43
ENDBRANCH  41  42
ENDBRANCH  40  41
ENDBRANCH  39  40
ENDBRANCH   1  39
BRANCH   3  47
HETATM   47  C6  UNL     1      -3.161   2.287  -1.435  1.00  0.00     0.190 C 
BRANCH  47  48
HETATM   48  O2  UNL     1      -3.854   3.096  -0.507  1.00  0.00    -0.399 OA
ATOM     49  H2  UNL     1      -4.613   3.420  -0.977  1.00  0.00     0.209 HD
ENDBRANCH  47  48
ENDBRANCH   3  47
TORSDOF 15
