REMARK  2 active torsions:
REMARK  status: ('A' for Active; 'I' for Inactive)
REMARK    1  A    between atoms: O1_1  and  C1_3 
REMARK    2  A    between atoms: C6_13  and  O2_14 
ROOT
HETATM    1  C1  UNL     1      -1.143  -0.764   0.549  1.00  0.00     0.120 C 
HETATM    2  C2  UNL     1      -1.769   0.458  -0.040  1.00  0.00     0.033 C 
HETATM    3  C3  UNL     1      -0.919   1.642  -0.183  1.00  0.00     0.024 C 
HETATM    4  C4  UNL     1       0.205   1.788   0.782  1.00  0.00     0.147 C 
HETATM    5  N1  UNL     1       1.413   1.295   0.155  1.00  0.00    -0.287 N 
HETATM    6  N2  UNL     1       2.764   1.544   0.054  1.00  0.00    -0.245 N 
ATOM      7  H2  UNL     1       3.361   2.262   0.464  1.00  0.00     0.208 HD
HETATM    8  N3  UNL     1       3.015   0.557  -0.738  1.00  0.00    -0.295 N 
ATOM      9  H3  UNL     1       3.857   0.197  -1.187  1.00  0.00     0.184 HD
HETATM   10  C5  UNL     1       1.644   0.172  -0.734  1.00  0.00     0.246 A 
HETATM   11  C6  UNL     1       1.299  -1.081   0.046  1.00  0.00     0.165 C 
HETATM   12  C7  UNL     1      -0.139  -1.433  -0.329  1.00  0.00     0.067 C 
ENDROOT
BRANCH   1  13
HETATM   13  O1  UNL     1      -2.206  -1.688   0.727  1.00  0.00    -0.395 OA
ATOM     14  H1  UNL     1      -1.808  -2.465   1.102  1.00  0.00     0.210 HD
ENDBRANCH   1  13
BRANCH  11  15
HETATM   15  O2  UNL     1       2.178  -2.103  -0.202  1.00  0.00    -0.392 OA
ATOM     16  H2  UNL     1       1.962  -2.888   0.287  1.00  0.00     0.210 HD
ENDBRANCH  11  15
TORSDOF 2
