REMARK  2 active torsions:
REMARK  status: ('A' for Active; 'I' for Inactive)
REMARK    1  A    between atoms: N1_4  and  O1_6 
REMARK    2  A    between atoms: N2_9  and  O2_11 
ROOT
HETATM    1  C1  UNL     1      -1.289  -1.564  -0.796  1.00  0.00     0.050 C 
HETATM    2  C2  UNL     1      -0.735  -0.658   0.314  1.00  0.00     0.272 C 
HETATM    3  C3  UNL     1       0.740  -0.849   0.315  1.00  0.00     0.089 C 
HETATM    4  N1  UNL     1       1.283  -1.770   1.055  1.00  0.00    -0.269 N 
ATOM      5  H1  UNL     1       2.298  -1.871   1.029  1.00  0.00     0.194 HD
HETATM    6  C4  UNL     1       1.524   0.033  -0.541  1.00  0.00     0.060 C 
HETATM    7  N2  UNL     1       2.704  -0.354  -0.867  1.00  0.00    -0.271 N 
ATOM      8  H2  UNL     1       3.049  -1.250  -0.522  1.00  0.00     0.194 HD
HETATM    9  C5  UNL     1       0.921   1.323  -0.984  1.00  0.00     0.091 C 
HETATM   10  C6  UNL     1      -0.083   1.651   0.132  1.00  0.00     0.279 C 
HETATM   11  N3  UNL     1      -1.142   0.676   0.007  1.00  0.00     0.094 N 
HETATM   12  C7  UNL     1      -2.271   1.135   0.787  1.00  0.00     0.310 C 
ENDROOT
BRANCH   4  13
HETATM   13  O1  UNL     1       0.583  -2.599   1.855  1.00  0.00    -0.290 OA
ATOM     14  H1  UNL     1       0.980  -3.272   2.396  1.00  0.00     0.244 HD
ENDBRANCH   4  13
BRANCH   7  15
HETATM   15  O2  UNL     1       3.510   0.412  -1.669  1.00  0.00    -0.290 OA
ATOM     16  H2  UNL     1       4.383   0.126  -1.910  1.00  0.00     0.244 HD
ENDBRANCH   7  15
TORSDOF 2
