REMARK  2 active torsions:
REMARK  status: ('A' for Active; 'I' for Inactive)
REMARK    1  A    between atoms: N1_1  and  C1_5 
REMARK    2  A    between atoms: C6_10  and  N2_11 
ROOT
HETATM    1  C1  UNL     1       0.914  -0.052   0.854  1.00  0.00     0.218 C 
HETATM    2  C2  UNL     1      -0.309  -0.841   1.341  1.00  0.00     0.040 C 
HETATM    3  C3  UNL     1      -1.497  -0.168   0.675  1.00  0.00    -0.012 C 
HETATM    4  C4  UNL     1      -1.579  -0.759  -0.733  1.00  0.00     0.007 C 
HETATM    5  C5  UNL     1      -0.146  -0.852  -1.268  1.00  0.00     0.040 C 
HETATM    6  C6  UNL     1       0.667   0.244  -0.608  1.00  0.00     0.124 C 
HETATM    7  C7  UNL     1      -0.236   1.487  -0.636  1.00  0.00     0.040 C 
HETATM    8  C8  UNL     1      -1.205   1.314   0.517  1.00  0.00     0.007 C 
ENDROOT
BRANCH   1   9
HETATM    9  N1  UNL     1       2.074  -0.845   1.094  1.00  0.00    -0.072 N 
ATOM     10  H13 UNL     1       2.156  -1.139   2.067  1.00  0.00     0.274 HD
ATOM     11  H12 UNL     1       2.011  -1.773   0.676  1.00  0.00     0.274 HD
ATOM     12  H11 UNL     1       2.887  -0.321   0.770  1.00  0.00     0.274 HD
ENDBRANCH   1   9
BRANCH   6  13
HETATM   13  N2  UNL     1       1.849   0.571  -1.326  1.00  0.00    -0.143 N 
HETATM   14  O1  UNL     1       2.207  -0.121  -2.291  1.00  0.00    -0.536 OA
HETATM   15  O2  UNL     1       2.626   1.644  -0.989  1.00  0.00    -0.536 OA
ENDBRANCH   6  13
TORSDOF 2
