REMARK  0 active torsions:
REMARK  status: ('A' for Active; 'I' for Inactive)
ROOT
HETATM    1  C1  UNL     1       2.471  -0.364  -0.862  1.00  0.00     0.010 C 
HETATM    2  C2  UNL     1       1.103   0.278  -0.727  1.00  0.00    -0.015 C 
HETATM    3  C3  UNL     1       1.066   0.895   0.645  1.00  0.00     0.025 C 
HETATM    4  C4  UNL     1      -0.304   1.373   1.039  1.00  0.00     0.135 C 
HETATM    5  N1  UNL     1      -1.343   0.798   0.225  1.00  0.00    -0.316 N 
HETATM    6  C5  UNL     1      -2.461   1.563  -0.085  1.00  0.00     0.180 C 
HETATM    7  N2  UNL     1      -3.401   2.187  -0.353  1.00  0.00    -0.172 NA
HETATM    8  C6  UNL     1      -1.232  -0.534  -0.259  1.00  0.00     0.091 C 
HETATM    9  C7  UNL     1      -1.492  -1.575   0.837  1.00  0.00     0.033 C 
HETATM   10  C8  UNL     1       0.078  -0.778  -0.951  1.00  0.00     0.030 C 
ENDROOT
TORSDOF 0
