REMARK  1 active torsions:
REMARK  status: ('A' for Active; 'I' for Inactive)
REMARK    1  A    between atoms: C7_8  and  O1_10 
ROOT
HETATM    1  C1  UNL     1      -1.436   1.936   0.528  1.00  0.00     0.015 C 
HETATM    2  C2  UNL     1      -0.627   0.868  -0.172  1.00  0.00     0.044 C 
HETATM    3  C3  UNL     1       0.824   1.081   0.220  1.00  0.00     0.279 C 
HETATM    4  N1  UNL     1       1.613   0.072  -0.413  1.00  0.00     0.084 N 
HETATM    5  C4  UNL     1       3.038   0.326  -0.151  1.00  0.00     0.309 C 
HETATM    6  C5  UNL     1       1.288  -1.264  -0.054  1.00  0.00     0.275 C 
HETATM    7  C6  UNL     1      -0.080  -1.513   0.419  1.00  0.00     0.068 C 
HETATM    8  C7  UNL     1      -1.113  -0.511   0.061  1.00  0.00     0.061 C 
HETATM    9  C8  UNL     1      -1.941  -0.929  -1.156  1.00  0.00     0.046 C 
ENDROOT
BRANCH   8  10
HETATM   10  O1  UNL     1      -2.032  -0.462   1.137  1.00  0.00    -0.390 OA
ATOM     11  H1  UNL     1      -2.344  -1.347   1.287  1.00  0.00     0.210 HD
ENDBRANCH   8  10
TORSDOF 1
