REMARK  6 active torsions:
REMARK  status: ('A' for Active; 'I' for Inactive)
REMARK    1  A    between atoms: N1_2  and  C2_4 
REMARK    2  A    between atoms: C16_18  and  O1_19 
REMARK    3  A    between atoms: C16_18  and  C17_21 
REMARK    4  A    between atoms: C18_22  and  C19_23 
REMARK    5  A    between atoms: C19_23  and  N2_24 
REMARK    6  A    between atoms: N2_24  and  N3_26 
ROOT
HETATM    1  C2  UNL     1       1.285  -0.677   0.712  1.00  0.00     0.123 C 
HETATM    2  C3  UNL     1      -0.091  -1.223   0.496  1.00  0.00     0.029 C 
HETATM    3  C4  UNL     1      -0.198  -2.405  -0.400  1.00  0.00     0.002 C 
HETATM    4  C5  UNL     1      -1.387  -3.255   0.076  1.00  0.00     0.000 C 
HETATM    5  C6  UNL     1      -2.678  -2.824  -0.525  1.00  0.00     0.000 C 
HETATM    6  C7  UNL     1      -3.422  -1.784   0.274  1.00  0.00     0.000 C 
HETATM    7  C8  UNL     1      -3.902  -0.730  -0.714  1.00  0.00     0.000 C 
HETATM    8  C9  UNL     1      -4.527   0.457  -0.029  1.00  0.00     0.000 C 
HETATM    9  C10 UNL     1      -4.014   1.745  -0.659  1.00  0.00     0.000 C 
HETATM   10  C11 UNL     1      -3.462   2.705   0.339  1.00  0.00     0.000 C 
HETATM   11  C12 UNL     1      -2.177   2.286   0.973  1.00  0.00     0.000 C 
HETATM   12  C13 UNL     1      -0.961   2.686   0.182  1.00  0.00     0.000 C 
HETATM   13  C14 UNL     1       0.256   2.054   0.871  1.00  0.00     0.004 C 
HETATM   14  C15 UNL     1       1.342   1.741  -0.080  1.00  0.00     0.053 C 
HETATM   15  C16 UNL     1       1.724   0.336  -0.299  1.00  0.00     0.141 C 
ENDROOT
BRANCH  15  16
HETATM   16  O1  UNL     1       1.317  -0.137  -1.565  1.00  0.00    -0.375 OA
ATOM     17  H1  UNL     1       1.596   0.506  -2.207  1.00  0.00     0.211 HD
ENDBRANCH  15  16
BRANCH  15  18
HETATM   18  C17 UNL     1       3.209   0.268  -0.335  1.00  0.00    -0.064 C 
HETATM   19  C18 UNL     1       4.415   0.232  -0.353  1.00  0.00    -0.082 C 
BRANCH  19  20
HETATM   20  C19 UNL     1       5.883   0.191  -0.347  1.00  0.00     0.239 C 
BRANCH  20  21
HETATM   21  N2  UNL     1       6.336   1.030  -1.423  1.00  0.00    -0.266 N 
ATOM     22  H2  UNL     1       6.905   0.632  -2.170  1.00  0.00     0.187 HD
BRANCH  21  23
HETATM   23  N3  UNL     1       6.009   2.364  -1.453  1.00  0.00    -0.043 N 
HETATM   24  O2  UNL     1       4.934   2.710  -1.977  1.00  0.00    -0.517 OA
HETATM   25  O3  UNL     1       6.816   3.366  -0.926  1.00  0.00    -0.517 OA
ENDBRANCH  21  23
ENDBRANCH  20  21
ENDBRANCH  19  20
ENDBRANCH  15  18
BRANCH   1  26
HETATM   26  N1  UNL     1       2.215  -1.749   0.737  1.00  0.00    -0.417 N 
HETATM   27  C1  UNL     1       2.099  -2.711   1.758  1.00  0.00     0.140 C 
ATOM     28  H1  UNL     1       2.949  -1.820   0.033  1.00  0.00     0.153 HD
ENDBRANCH   1  26
TORSDOF 6
