REMARK  7 active torsions:
REMARK  status: ('A' for Active; 'I' for Inactive)
REMARK    1  A    between atoms: C4_4  and  C5_5 
REMARK    2  A    between atoms: C5_5  and  O1_6 
REMARK    3  A    between atoms: C6_8  and  O2_9 
REMARK    4  A    between atoms: C10_14  and  C11_15 
REMARK    5  A    between atoms: C11_15  and  C12_16 
REMARK    6  A    between atoms: C12_16  and  C13_17 
REMARK    7  A    between atoms: C17_22  and  O4_23 
ROOT
HETATM    1  C1  UNL     1      -4.184  -1.392   0.890  1.00  0.00     0.020 C 
HETATM    2  C2  UNL     1      -3.104  -0.818   0.413  1.00  0.00    -0.054 C 
HETATM    3  C3  UNL     1      -3.068  -0.441  -0.992  1.00  0.00    -0.025 C 
HETATM    4  C4  UNL     1      -3.970   0.218  -1.611  1.00  0.00     0.009 C 
HETATM    5  C6  UNL     1      -1.817  -0.853  -1.729  1.00  0.00     0.152 C 
HETATM    6  C7  UNL     1      -0.681  -1.082  -0.785  1.00  0.00     0.051 C 
HETATM    7  C8  UNL     1      -0.754  -0.102   0.372  1.00  0.00    -0.010 C 
HETATM    8  C9  UNL     1      -0.932   1.278  -0.167  1.00  0.00     0.021 C 
HETATM    9  C10 UNL     1       0.460  -0.157   1.234  1.00  0.00    -0.069 C 
HETATM   10  C18 UNL     1       0.331   0.021   2.559  1.00  0.00    -0.081 C 
HETATM   11  C19 UNL     1       1.576  -0.042   3.390  1.00  0.00     0.043 C 
HETATM   12  C20 UNL     1      -0.933   0.282   3.264  1.00  0.00     0.034 C 
HETATM   13  C21 UNL     1      -2.132   0.396   2.345  1.00  0.00     0.015 C 
HETATM   14  C22 UNL     1      -1.917  -0.562   1.233  1.00  0.00     0.031 C 
ENDROOT
BRANCH   9  15
HETATM   15  C11 UNL     1       1.826  -0.410   0.665  1.00  0.00     0.040 C 
BRANCH  15  16
HETATM   16  C12 UNL     1       2.284   0.674  -0.266  1.00  0.00     0.048 C 
BRANCH  16  17
HETATM   17  C13 UNL     1       3.616   0.434  -0.828  1.00  0.00     0.003 A 
HETATM   18  C14 UNL     1       4.776   1.063  -0.428  1.00  0.00     0.044 A 
HETATM   19  C15 UNL     1       5.789   0.536  -1.219  1.00  0.00     0.052 A 
HETATM   20  C16 UNL     1       7.227   0.900  -1.162  1.00  0.00     0.077 C 
HETATM   21  O3  UNL     1       5.238  -0.330  -2.010  1.00  0.00    -0.292 OA
HETATM   22  C17 UNL     1       3.962  -0.442  -1.836  1.00  0.00     0.189 A 
BRANCH  22  23
HETATM   23  O4  UNL     1       3.061  -1.267  -2.505  1.00  0.00    -0.340 OA
ATOM     24  H4  UNL     1       3.299  -1.870  -3.199  1.00  0.00     0.220 HD
ENDBRANCH  22  23
ENDBRANCH  16  17
ENDBRANCH  15  16
ENDBRANCH   9  15
BRANCH   5  25
HETATM   25  O2  UNL     1      -2.118  -2.053  -2.365  1.00  0.00    -0.391 OA
ATOM     26  H2  UNL     1      -1.331  -2.312  -2.829  1.00  0.00     0.210 HD
ENDBRANCH   5  25
BRANCH   4  27
HETATM   27  C5  UNL     1      -5.214   0.738  -1.052  1.00  0.00     0.192 C 
BRANCH  27  28
HETATM   28  O1  UNL     1      -6.350   0.194  -1.699  1.00  0.00    -0.397 OA
ATOM     29  H1  UNL     1      -7.160   0.532  -1.335  1.00  0.00     0.209 HD
ENDBRANCH  27  28
ENDBRANCH   4  27
TORSDOF 7
