REMARK  5 active torsions:
REMARK  status: ('A' for Active; 'I' for Inactive)
REMARK    1  A    between atoms: C4_4  and  C5_5 
REMARK    2  A    between atoms: C5_5  and  N1_6 
REMARK    3  A    between atoms: C10_11  and  C11_12 
REMARK    4  A    between atoms: C11_12  and  O1_13 
REMARK    5  A    between atoms: C11_12  and  O2_15 
ROOT
HETATM    1  N1  UNL     1      -0.121  -0.162  -0.790  1.00  0.00     0.098 N 
HETATM    2  C6  UNL     1      -1.177  -1.095  -1.157  1.00  0.00     0.224 C 
HETATM    3  C7  UNL     1      -1.224  -2.003   0.041  1.00  0.00     0.038 C 
HETATM    4  C8  UNL     1      -0.953  -0.989   1.164  1.00  0.00     0.038 C 
HETATM    5  C9  UNL     1      -0.726   0.304   0.479  1.00  0.00     0.232 C 
HETATM    6  C10 UNL     1      -1.959   0.917  -0.100  1.00  0.00     0.076 C 
HETATM    7  C12 UNL     1      -2.399  -0.204  -1.056  1.00  0.00     0.047 C 
ENDROOT
BRANCH   1   8
HETATM    8  C5  UNL     1       1.146  -0.781  -0.622  1.00  0.00     0.278 C 
BRANCH   8   9
HETATM    9  C4  UNL     1       2.179   0.269  -0.292  1.00  0.00     0.018 A 
HETATM   10  C2  UNL     1       3.590  -0.162  -0.069  1.00  0.00    -0.012 A 
HETATM   11  C1  UNL     1       4.286   0.542   1.075  1.00  0.00     0.010 C 
HETATM   12  C3  UNL     1       3.233   0.554  -1.302  1.00  0.00     0.011 A 
ENDBRANCH   8   9
ENDBRANCH   1   8
BRANCH   6  13
HETATM   13  C11 UNL     1      -3.020   1.353   0.832  1.00  0.00     0.260 C 
BRANCH  13  14
HETATM   14  O1  UNL     1      -4.052   1.907   0.011  1.00  0.00    -0.371 OA
ATOM     15  H1  UNL     1      -4.734   2.187   0.610  1.00  0.00     0.212 HD
ENDBRANCH  13  14
BRANCH  13  16
HETATM   16  O2  UNL     1      -3.660   0.365   1.543  1.00  0.00    -0.371 OA
ATOM     17  H2  UNL     1      -4.342   0.645   2.142  1.00  0.00     0.212 HD
ENDBRANCH  13  16
ENDBRANCH   6  13
TORSDOF 5
