REMARK  5 active torsions:
REMARK  status: ('A' for Active; 'I' for Inactive)
REMARK       I    between atoms: C1_2  and  N1_3 
REMARK       I    between atoms: C1_2  and  N3_21 
REMARK    1  A    between atoms: N1_3  and  C2_5 
REMARK    2  A    between atoms: C5_9  and  C6_10 
REMARK    3  A    between atoms: C7_13  and  C8_14 
REMARK    4  A    between atoms: C15_24  and  O2_25 
REMARK    5  A    between atoms: O2_25  and  C16_26 
REMARK       I    between atoms: C16_26  and  N4_28 
ROOT
HETATM    1  O1  UNL     1       0.684   4.006   0.127  1.00  0.00    -0.247 OA
HETATM    2  C1  UNL     1       0.760   2.786   0.369  1.00  0.00     0.322 C 
HETATM    3  N1  UNL     1       1.907   2.043   0.112  1.00  0.00    -0.307 N 
ATOM      4  H1  UNL     1       1.857   1.052   0.349  1.00  0.00     0.170 HD
HETATM    5  N3  UNL     1      -0.415   2.191   0.933  1.00  0.00    -0.334 N 
HETATM    6  C13 UNL     1      -0.525   0.803   1.289  1.00  0.00     0.130 C 
HETATM    7  C14 UNL     1      -1.587   0.231   0.334  1.00  0.00     0.052 C 
HETATM    8  C15 UNL     1      -2.878   0.959   0.728  1.00  0.00     0.137 C 
HETATM    9  C19 UNL     1      -2.799   2.402   0.405  1.00  0.00     0.052 C 
HETATM   10  C20 UNL     1      -1.606   2.992   1.176  1.00  0.00     0.130 C 
ENDROOT
BRANCH   3  11
HETATM   11  C2  UNL     1       3.168   2.495  -0.451  1.00  0.00     0.056 A 
HETATM   12  C3  UNL     1       3.346   3.797  -0.803  1.00  0.00     0.038 A 
HETATM   13  C4  UNL     1       4.562   4.157  -1.328  1.00  0.00     0.053 A 
HETATM   14  S1  UNL     1       5.426   2.703  -1.325  1.00  0.00    -0.097 SA
HETATM   15  C5  UNL     1       4.241   1.676  -0.664  1.00  0.00     0.065 A 
BRANCH  15  16
HETATM   16  C6  UNL     1       4.415   0.227  -0.409  1.00  0.00     0.094 A 
HETATM   17  N2  UNL     1       5.536  -0.440  -0.672  1.00  0.00    -0.348 N 
HETATM   18  C7  UNL     1       5.601  -1.702  -0.418  1.00  0.00     0.057 A 
ATOM     19  H2  UNL     1       6.339   0.045  -1.072  1.00  0.00     0.166 HD
HETATM   20  C12 UNL     1       4.491  -2.304   0.121  1.00  0.00     0.082 A 
HETATM   21  S3  UNL     1       3.417  -0.988   0.224  1.00  0.00    -0.081 SA
BRANCH  18  22
HETATM   22  C8  UNL     1       6.835  -2.507  -0.693  1.00  0.00     0.032 A 
HETATM   23  C9  UNL     1       7.040  -3.828  -0.477  1.00  0.00     0.021 A 
HETATM   24  C10 UNL     1       8.240  -4.330  -0.806  1.00  0.00     0.008 A 
HETATM   25  C11 UNL     1       9.161  -3.466  -1.333  1.00  0.00     0.050 A 
HETATM   26  S2  UNL     1       8.322  -1.980  -1.353  1.00  0.00    -0.100 SA
ENDBRANCH  18  22
ENDBRANCH  15  16
ENDBRANCH   3  11
BRANCH   8  27
HETATM   27  O2  UNL     1      -3.937   0.253   0.209  1.00  0.00    -0.298 OA
BRANCH  27  28
HETATM   28  C16 UNL     1      -4.892  -0.454   0.903  1.00  0.00     0.378 C 
HETATM   29  O3  UNL     1      -4.805  -0.467   2.136  1.00  0.00    -0.237 OA
HETATM   30  N4  UNL     1      -5.907  -1.118   0.176  1.00  0.00    -0.202 N 
HETATM   31  C17 UNL     1      -6.113  -1.176  -1.257  1.00  0.00     0.169 C 
HETATM   32  S4  UNL     1      -7.217  -2.069   0.827  1.00  0.00     0.325 S 
HETATM   33  C18 UNL     1      -7.606  -1.282  -1.479  1.00  0.00     0.154 C 
HETATM   34  N5  UNL     1      -8.098  -2.366  -0.655  1.00  0.00    -0.301 N 
ATOM     35  H5  UNL     1      -8.771  -3.099  -0.877  1.00  0.00     0.173 HD
HETATM   36  O4  UNL     1      -6.750  -3.389   1.320  1.00  0.00    -0.182 OA
HETATM   37  O5  UNL     1      -8.023  -1.299   1.803  1.00  0.00    -0.182 OA
ENDBRANCH  27  28
ENDBRANCH   8  27
TORSDOF 5
