REMARK  9 active torsions:
REMARK  status: ('A' for Active; 'I' for Inactive)
REMARK    1  A    between atoms: N1_5  and  C5_6 
REMARK    2  A    between atoms: C6_7  and  O1_8 
REMARK    3  A    between atoms: C6_7  and  C7_10 
REMARK    4  A    between atoms: C7_10  and  C8_11 
REMARK    5  A    between atoms: C8_11  and  C9_12 
REMARK    6  A    between atoms: C9_12  and  C10_13 
REMARK    7  A    between atoms: C10_13  and  C12_15 
REMARK    8  A    between atoms: C12_15  and  O2_16 
REMARK    9  A    between atoms: C17_22  and  O3_23 
ROOT
HETATM    1  C1  UNL     1      -3.876  -3.122   0.533  1.00  0.00     0.050 C 
HETATM    2  C2  UNL     1      -2.672  -2.464  -0.078  1.00  0.00    -0.035 A 
HETATM    3  C3  UNL     1      -2.558  -2.177  -1.390  1.00  0.00     0.057 A 
HETATM    4  C4  UNL     1      -1.292  -1.610  -1.664  1.00  0.00     0.108 A 
HETATM    5  N1  UNL     1      -0.597  -1.572  -0.492  1.00  0.00    -0.309 N 
HETATM    6  C13 UNL     1      -1.458  -2.070   0.481  1.00  0.00     0.031 A 
HETATM    7  C14 UNL     1      -1.475  -1.964   2.015  1.00  0.00     0.057 C 
HETATM    8  C15 UNL     1      -1.459  -3.370   2.499  1.00  0.00     0.020 C 
HETATM    9  C16 UNL     1      -2.613  -1.232   2.602  1.00  0.00     0.015 C 
HETATM   10  C17 UNL     1      -3.166   0.064   2.243  1.00  0.00     0.040 C 
HETATM   11  C18 UNL     1      -2.529   1.038   1.328  1.00  0.00     0.068 C 
HETATM   12  C19 UNL     1      -3.326   1.373   0.099  1.00  0.00     0.033 C 
HETATM   13  C20 UNL     1      -2.837   2.429  -0.777  1.00  0.00    -0.026 C 
HETATM   14  C21 UNL     1      -2.131   2.363  -1.912  1.00  0.00    -0.006 C 
HETATM   15  C22 UNL     1      -1.742   1.190  -2.445  1.00  0.00    -0.008 C 
HETATM   16  C23 UNL     1      -0.984   0.415  -3.420  1.00  0.00     0.148 C 
HETATM   17  N2  UNL     1      -1.098  -0.975  -2.969  1.00  0.00    -0.372 N 
ATOM     18  H2  UNL     1      -1.026  -1.648  -3.732  1.00  0.00     0.161 HD
ENDROOT
BRANCH   5  19
HETATM   19  C5  UNL     1       0.892  -1.340  -0.290  1.00  0.00     0.130 C 
HETATM   20  C6  UNL     1       1.492  -0.110   0.081  1.00  0.00     0.059 C 
BRANCH  20  21
HETATM   21  O1  UNL     1       1.131   0.510   1.284  1.00  0.00    -0.364 OA
ATOM     22  H1  UNL     1       1.533   1.334   1.533  1.00  0.00     0.217 HD
ENDBRANCH  20  21
BRANCH  20  23
HETATM   23  C7  UNL     1       1.906   0.950  -0.880  1.00  0.00     0.066 C 
BRANCH  23  24
HETATM   24  C8  UNL     1       2.557   2.141  -0.202  1.00  0.00     0.007 C 
BRANCH  24  25
HETATM   25  C9  UNL     1       3.775   1.829   0.582  1.00  0.00     0.007 C 
BRANCH  25  26
HETATM   26  C10 UNL     1       4.854   1.219  -0.310  1.00  0.00     0.005 C 
HETATM   27  C11 UNL     1       5.231   2.176  -1.409  1.00  0.00     0.012 C 
BRANCH  26  28
HETATM   28  C12 UNL     1       6.120   0.957   0.494  1.00  0.00     0.168 C 
BRANCH  28  29
HETATM   29  O2  UNL     1       7.043   0.403  -0.399  1.00  0.00    -0.400 OA
ATOM     30  H2  UNL     1       7.833   0.240   0.103  1.00  0.00     0.209 HD
ENDBRANCH  28  29
ENDBRANCH  26  28
ENDBRANCH  25  26
ENDBRANCH  24  25
ENDBRANCH  23  24
ENDBRANCH  20  23
ENDBRANCH   5  19
BRANCH  10  31
HETATM   31  O3  UNL     1      -4.559   0.109   1.994  1.00  0.00    -0.365 OA
ATOM     32  H3  UNL     1      -4.920   0.956   1.759  1.00  0.00     0.217 HD
ENDBRANCH  10  31
TORSDOF 9
