REMARK  10 active torsions:
REMARK  status: ('A' for Active; 'I' for Inactive)
REMARK    1  A    between atoms: C2_2  and  C4_4 
REMARK    2  A    between atoms: C5_5  and  O1_6 
REMARK    3  A    between atoms: C6_8  and  O2_9 
REMARK    4  A    between atoms: O2_9  and  C7_10 
REMARK    5  A    between atoms: C9_19  and  O3_20 
REMARK    6  A    between atoms: C12_24  and  C14_26 
REMARK    7  A    between atoms: C14_26  and  C15_27 
REMARK    8  A    between atoms: C15_27  and  C16_28 
REMARK    9  A    between atoms: C17_29  and  C18_30 
REMARK   10  A    between atoms: C18_30  and  C19_31 
ROOT
HETATM    1  C4  UNL     1      -1.382  -1.349  -1.007  1.00  0.00     0.053 C 
HETATM    2  C5  UNL     1      -2.297  -0.277  -1.526  1.00  0.00     0.157 C 
HETATM    3  C6  UNL     1      -2.790   0.324  -0.208  1.00  0.00     0.164 C 
HETATM    4  C10 UNL     1      -1.483   0.454   0.599  1.00  0.00     0.022 C 
HETATM    5  C11 UNL     1      -1.774   0.403   2.061  1.00  0.00     0.013 C 
HETATM    6  C12 UNL     1      -0.643  -0.680   0.090  1.00  0.00    -0.028 C 
HETATM    7  C13 UNL     1      -0.174  -1.546   1.222  1.00  0.00     0.016 C 
ENDROOT
BRANCH   3   8
HETATM    8  O2  UNL     1      -3.417   1.499  -0.337  1.00  0.00    -0.324 OA
BRANCH   8   9
HETATM    9  C7  UNL     1      -4.581   2.051  -0.009  1.00  0.00     0.195 A 
HETATM   10  N1  UNL     1      -4.860   3.367  -0.343  1.00  0.00    -0.276 N 
HETATM   11  N2  UNL     1      -6.052   3.697   0.075  1.00  0.00    -0.281 N 
ATOM     12  H1  UNL     1      -4.225   3.989  -0.844  1.00  0.00     0.189 HD
HETATM   13  C8  UNL     1      -6.645   2.683   0.694  1.00  0.00     0.152 A 
ATOM     14  H2  UNL     1      -6.474   4.616  -0.057  1.00  0.00     0.188 HD
HETATM   15  N3  UNL     1      -7.797   2.632   1.227  1.00  0.00    -0.382 N 
HETATM   16  C9  UNL     1      -5.708   1.627   0.643  1.00  0.00     0.164 A 
ATOM     17  H32 UNL     1      -8.474   3.394   1.264  1.00  0.00     0.157 HD
ATOM     18  H31 UNL     1      -8.253   1.853   1.703  1.00  0.00     0.157 HD
BRANCH  16  19
HETATM   19  O3  UNL     1      -5.974   0.399   1.190  1.00  0.00    -0.354 OA
ATOM     20  H3  UNL     1      -6.756   0.105   1.642  1.00  0.00     0.218 HD
ENDBRANCH  16  19
ENDBRANCH   8   9
ENDBRANCH   3   8
BRANCH   2  21
HETATM   21  O1  UNL     1      -3.263  -0.645  -2.395  1.00  0.00    -0.392 OA
ATOM     22  H1  UNL     1      -3.842   0.033  -2.723  1.00  0.00     0.210 HD
ENDBRANCH   2  21
BRANCH   1  23
HETATM   23  C2  UNL     1      -1.981  -2.649  -0.740  1.00  0.00    -0.086 C 
HETATM   24  C1  UNL     1      -3.259  -2.980  -0.754  1.00  0.00     0.014 C 
HETATM   25  C3  UNL     1      -1.026  -3.791  -0.461  1.00  0.00     0.043 C 
ENDBRANCH   1  23
BRANCH   6  26
HETATM   26  C14 UNL     1       0.621  -0.058  -0.514  1.00  0.00     0.014 C 
BRANCH  26  27
HETATM   27  C15 UNL     1       1.449   0.651   0.533  1.00  0.00     0.027 C 
BRANCH  27  28
HETATM   28  C16 UNL     1       2.632   1.210  -0.174  1.00  0.00    -0.030 C 
HETATM   29  C17 UNL     1       3.838   0.815   0.203  1.00  0.00    -0.027 C 
BRANCH  29  30
HETATM   30  C18 UNL     1       5.085   1.326  -0.453  1.00  0.00     0.054 C 
BRANCH  30  31
HETATM   31  C19 UNL     1       5.780   0.119  -1.020  1.00  0.00    -0.021 C 
HETATM   32  C20 UNL     1       6.988  -0.210  -0.637  1.00  0.00    -0.091 C 
HETATM   33  C21 UNL     1       7.709   0.614   0.381  1.00  0.00     0.042 C 
HETATM   34  C22 UNL     1       7.632  -1.411  -1.227  1.00  0.00     0.042 C 
ENDBRANCH  30  31
ENDBRANCH  29  30
ENDBRANCH  27  28
ENDBRANCH  26  27
ENDBRANCH   6  26
TORSDOF 10
