REMARK  7 active torsions:
REMARK  status: ('A' for Active; 'I' for Inactive)
REMARK    1  A    between atoms: C5_5  and  O1_6 
REMARK    2  A    between atoms: C7_9  and  O2_10 
REMARK    3  A    between atoms: C8_12  and  C9_13 
REMARK    4  A    between atoms: C10_14  and  C11_15 
REMARK    5  A    between atoms: C11_15  and  C13_17 
REMARK    6  A    between atoms: C11_15  and  C14_19 
REMARK    7  A    between atoms: C14_19  and  O4_20 
ROOT
HETATM    1  C1  UNL     1      -4.249  -0.780   2.377  1.00  0.00     0.043 C 
HETATM    2  C2  UNL     1      -3.294  -0.661   1.245  1.00  0.00    -0.087 C 
HETATM    3  C3  UNL     1      -3.191   0.423   0.528  1.00  0.00    -0.017 C 
HETATM    4  C4  UNL     1      -2.280   0.635  -0.604  1.00  0.00     0.042 C 
HETATM    5  C5  UNL     1      -1.552   1.930  -0.373  1.00  0.00     0.128 C 
HETATM    6  C6  UNL     1      -0.598   2.303  -1.460  1.00  0.00     0.065 C 
HETATM    7  C7  UNL     1      -0.057   1.167  -2.246  1.00  0.00     0.128 C 
HETATM    8  C8  UNL     1      -0.164  -0.184  -1.679  1.00  0.00     0.041 C 
HETATM    9  C15 UNL     1      -1.371  -0.531  -0.896  1.00  0.00     0.006 C 
HETATM   10  C16 UNL     1      -1.097  -1.216   0.424  1.00  0.00     0.010 C 
HETATM   11  C17 UNL     1      -2.429  -1.810   0.919  1.00  0.00     0.034 C 
ENDROOT
BRANCH   8  12
HETATM   12  C9  UNL     1       1.041  -0.599  -0.916  1.00  0.00    -0.022 C 
HETATM   13  C10 UNL     1       1.995   0.226  -0.495  1.00  0.00    -0.012 C 
BRANCH  13  14
HETATM   14  C11 UNL     1       3.184  -0.250   0.267  1.00  0.00     0.048 C 
HETATM   15  C12 UNL     1       3.249   0.503   1.578  1.00  0.00     0.029 C 
BRANCH  14  16
HETATM   16  C13 UNL     1       4.439   0.008  -0.488  1.00  0.00     0.246 C 
HETATM   17  O3  UNL     1       4.560   0.869  -1.321  1.00  0.00    -0.306 OA
ENDBRANCH  14  16
BRANCH  14  18
HETATM   18  C14 UNL     1       3.108  -1.717   0.566  1.00  0.00     0.184 C 
BRANCH  18  19
HETATM   19  O4  UNL     1       4.271  -2.051   1.282  1.00  0.00    -0.399 OA
ATOM     20  H4  UNL     1       4.223  -2.981   1.471  1.00  0.00     0.209 HD
ENDBRANCH  18  19
ENDBRANCH  14  18
ENDBRANCH  13  14
ENDBRANCH   8  12
BRANCH   7  21
HETATM   21  O2  UNL     1      -0.699   1.209  -3.518  1.00  0.00    -0.395 OA
ATOM     22  H2  UNL     1      -0.353   0.482  -4.021  1.00  0.00     0.210 HD
ENDBRANCH   7  21
BRANCH   5  23
HETATM   23  O1  UNL     1      -0.926   1.902   0.893  1.00  0.00    -0.395 OA
ATOM     24  H1  UNL     1      -0.466   2.720   1.039  1.00  0.00     0.210 HD
ENDBRANCH   5  23
TORSDOF 7
