REMARK  7 active torsions:
REMARK  status: ('A' for Active; 'I' for Inactive)
REMARK    1  A    between atoms: C3_3  and  C4_4 
REMARK    2  A    between atoms: N1_7  and  C7_8 
REMARK    3  A    between atoms: C7_8  and  C8_9 
REMARK    4  A    between atoms: C8_9  and  O1_10 
REMARK    5  A    between atoms: C11_16  and  O2_17 
REMARK    6  A    between atoms: O2_17  and  C12_18 
REMARK    7  A    between atoms: C18_26  and  N4_27 
ROOT
HETATM    1  C1  UNL     1       1.742  -1.977   0.010  1.00  0.00     0.054 C 
HETATM    2  C2  UNL     1       0.552  -1.137  -0.008  1.00  0.00     0.009 A 
HETATM    3  C3  UNL     1       0.584   0.236   0.150  1.00  0.00     0.047 A 
HETATM    4  N2  UNL     1      -0.629   0.878   0.231  1.00  0.00    -0.321 N 
ATOM      5  H2  UNL     1      -0.617   1.891   0.350  1.00  0.00     0.169 HD
HETATM    6  C11 UNL     1      -1.820   0.281   0.166  1.00  0.00     0.226 A 
HETATM    7  N3  UNL     1      -1.844  -1.036   0.014  1.00  0.00    -0.308 N 
ATOM      8  H3  UNL     1      -2.738  -1.525  -0.039  1.00  0.00     0.171 HD
HETATM    9  C18 UNL     1      -0.711  -1.720  -0.070  1.00  0.00     0.110 A 
ENDROOT
BRANCH   3  10
HETATM   10  C4  UNL     1       1.865   0.951  -0.002  1.00  0.00    -0.049 C 
HETATM   11  C5  UNL     1       2.495   1.540   1.219  1.00  0.00     0.056 C 
HETATM   12  C6  UNL     1       3.981   1.172   1.347  1.00  0.00     0.126 C 
HETATM   13  N1  UNL     1       4.508   0.622   0.184  1.00  0.00    -0.391 N 
HETATM   14  C9  UNL     1       4.069   1.197  -1.048  1.00  0.00     0.126 C 
HETATM   15  C10 UNL     1       2.618   0.810  -1.265  1.00  0.00     0.056 C 
BRANCH  13  16
HETATM   16  C7  UNL     1       5.433  -0.400   0.118  1.00  0.00     0.084 C 
BRANCH  16  17
HETATM   17  C8  UNL     1       6.827  -0.010   0.585  1.00  0.00     0.208 C 
BRANCH  17  18
HETATM   18  O1  UNL     1       7.713  -1.091   0.471  1.00  0.00    -0.396 OA
ATOM     19  H1  UNL     1       8.584  -0.847   0.763  1.00  0.00     0.209 HD
ENDBRANCH  17  18
ENDBRANCH  16  17
ENDBRANCH  13  16
ENDBRANCH   3  10
BRANCH   9  20
HETATM   20  N4  UNL     1      -0.748  -2.995  -0.211  1.00  0.00    -0.385 N 
ATOM     21  H42 UNL     1       0.123  -3.521  -0.276  1.00  0.00     0.157 HD
ATOM     22  H41 UNL     1      -1.673  -3.422  -0.256  1.00  0.00     0.157 HD
ENDBRANCH   9  20
BRANCH   6  23
HETATM   23  O2  UNL     1      -3.004   0.970   0.235  1.00  0.00    -0.316 OA
BRANCH  23  24
HETATM   24  C12 UNL     1      -4.266   0.405   0.262  1.00  0.00     0.132 C 
HETATM   25  C13 UNL     1      -4.729  -0.055  -1.155  1.00  0.00     0.032 C 
HETATM   26  C14 UNL     1      -5.957  -0.920  -0.934  1.00  0.00     0.002 C 
HETATM   27  C15 UNL     1      -6.472  -0.886   0.474  1.00  0.00     0.000 C 
HETATM   28  C16 UNL     1      -6.568   0.503   1.060  1.00  0.00     0.002 C 
HETATM   29  C17 UNL     1      -5.346   1.333   0.719  1.00  0.00     0.032 C 
ENDBRANCH  23  24
ENDBRANCH   6  23
TORSDOF 7
