REMARK  9 active torsions:
REMARK  status: ('A' for Active; 'I' for Inactive)
REMARK    1  A    between atoms: C5_5  and  O1_6 
REMARK    2  A    between atoms: C8_10  and  O2_11 
REMARK    3  A    between atoms: C10_14  and  O3_15 
REMARK    4  A    between atoms: O3_15  and  C11_16 
REMARK    5  A    between atoms: C11_16  and  C12_17 
REMARK    6  A    between atoms: C12_17  and  O4_18 
REMARK    7  A    between atoms: O4_18  and  C13_19 
REMARK    8  A    between atoms: C13_19  and  C14_20 
REMARK    9  A    between atoms: C14_20  and  O5_21 
ROOT
HETATM    1  C1  UNL     1      -0.029   4.610  -0.657  1.00  0.00     0.010 C 
HETATM    2  C2  UNL     1       0.863   3.410  -0.441  1.00  0.00    -0.012 C 
HETATM    3  C3  UNL     1       0.466   2.694   0.826  1.00  0.00     0.046 C 
HETATM    4  C4  UNL     1      -0.356   1.491   0.543  1.00  0.00    -0.013 A 
HETATM    5  C5  UNL     1      -1.469   1.238   1.269  1.00  0.00     0.079 A 
HETATM    6  C6  UNL     1      -2.295   0.133   0.995  1.00  0.00    -0.015 A 
HETATM    7  C7  UNL     1      -1.899  -0.667  -0.058  1.00  0.00    -0.011 A 
HETATM    8  C8  UNL     1      -0.759  -0.414  -0.806  1.00  0.00     0.082 A 
HETATM    9  C9  UNL     1       0.039   0.654  -0.535  1.00  0.00     0.014 A 
HETATM   10  C10 UNL     1       1.260   1.105  -1.163  1.00  0.00     0.164 C 
HETATM   11  C15 UNL     1       0.910   2.538  -1.669  1.00  0.00     0.042 C 
HETATM   12  C16 UNL     1      -2.719  -1.862  -0.450  1.00  0.00     0.018 C 
HETATM   13  C17 UNL     1      -2.144  -3.148   0.066  1.00  0.00     0.015 C 
HETATM   14  C18 UNL     1      -4.123  -1.712   0.111  1.00  0.00     0.009 C 
HETATM   15  C19 UNL     1      -4.056  -1.459   1.581  1.00  0.00     0.005 C 
HETATM   16  C20 UNL     1      -3.487  -0.096   1.835  1.00  0.00     0.042 C 
ENDROOT
BRANCH  10  17
HETATM   17  O3  UNL     1       1.938   0.402  -2.076  1.00  0.00    -0.351 OA
BRANCH  17  18
HETATM   18  C11 UNL     1       3.284   0.385  -2.011  1.00  0.00     0.159 C 
BRANCH  18  19
HETATM   19  C12 UNL     1       4.048  -0.163  -0.880  1.00  0.00     0.158 C 
BRANCH  19  20
HETATM   20  O4  UNL     1       3.992  -1.456  -0.526  1.00  0.00    -0.359 OA
BRANCH  20  21
HETATM   21  C13 UNL     1       2.785  -1.946  -0.207  1.00  0.00     0.200 C 
BRANCH  21  22
HETATM   22  C14 UNL     1       2.830  -3.406   0.249  1.00  0.00     0.190 C 
BRANCH  22  23
HETATM   23  O5  UNL     1       3.636  -3.537   1.378  1.00  0.00    -0.399 OA
ATOM     24  H5  UNL     1       3.664  -4.443   1.661  1.00  0.00     0.209 HD
ENDBRANCH  22  23
ENDBRANCH  21  22
ENDBRANCH  20  21
ENDBRANCH  19  20
ENDBRANCH  18  19
ENDBRANCH  17  18
ENDBRANCH  10  17
BRANCH   8  25
HETATM   25  O2  UNL     1      -0.457  -1.263  -1.830  1.00  0.00    -0.359 OA
ATOM     26  H2  UNL     1       0.324  -1.090  -2.342  1.00  0.00     0.217 HD
ENDBRANCH   8  25
BRANCH   5  27
HETATM   27  O1  UNL     1      -1.858   2.066   2.332  1.00  0.00    -0.360 OA
ATOM     28  H1  UNL     1      -2.640   1.888   2.842  1.00  0.00     0.217 HD
ENDBRANCH   5  27
TORSDOF 9
