REMARK  5 active torsions:
REMARK  status: ('A' for Active; 'I' for Inactive)
REMARK    1  A    between atoms: N2_7  and  C5_9 
REMARK    2  A    between atoms: C9_13  and  C10_14 
REMARK    3  A    between atoms: C10_14  and  C11_15 
REMARK    4  A    between atoms: C12_19  and  C14_22 
REMARK    5  A    between atoms: C14_22  and  C15_23 
ROOT
HETATM    1  C1  UNL     1       1.172   0.486   2.239  1.00  0.00     0.041 C 
HETATM    2  C2  UNL     1       1.832  -0.042   0.930  1.00  0.00     0.055 C 
HETATM    3  C3  UNL     1       2.563  -1.262   1.294  1.00  0.00     0.041 C 
HETATM    4  N1  UNL     1       0.680  -0.345   0.111  1.00  0.00    -0.360 N 
ATOM      5  H1  UNL     1       0.437  -1.292  -0.181  1.00  0.00     0.162 HD
HETATM    6  C4  UNL     1      -0.077   0.789  -0.247  1.00  0.00     0.138 C 
HETATM    7  N2  UNL     1      -1.298   0.888  -0.548  1.00  0.00    -0.366 N 
ATOM      8  H2  UNL     1      -1.633   1.825  -0.775  1.00  0.00     0.162 HD
HETATM    9  S1  UNL     1       1.083   2.149  -0.192  1.00  0.00    -0.066 SA
HETATM   10  C12 UNL     1       2.535   1.103   0.351  1.00  0.00     0.135 C 
HETATM   11  C13 UNL     1       3.223   1.933   1.365  1.00  0.00     0.083 C 
HETATM   12  N3  UNL     1       3.759   2.565   2.170  1.00  0.00    -0.195 NA
ENDROOT
BRANCH  10  13
HETATM   13  C14 UNL     1       3.341   0.971  -0.864  1.00  0.00     0.115 C 
BRANCH  13  14
HETATM   14  C15 UNL     1       4.475   0.072  -0.906  1.00  0.00     0.083 A 
HETATM   15  N4  UNL     1       5.732   0.338  -0.548  1.00  0.00    -0.354 N 
HETATM   16  C16 UNL     1       6.470  -0.749  -0.770  1.00  0.00     0.106 A 
ATOM     17  H4  UNL     1       6.071   1.222  -0.169  1.00  0.00     0.166 HD
HETATM   18  C17 UNL     1       5.666  -1.720  -1.278  1.00  0.00     0.106 A 
HETATM   19  N5  UNL     1       4.450  -1.188  -1.350  1.00  0.00    -0.354 N 
ATOM     20  H5  UNL     1       3.620  -1.671  -1.694  1.00  0.00     0.166 HD
ENDBRANCH  13  14
ENDBRANCH  10  13
BRANCH   7  21
HETATM   21  C5  UNL     1      -2.265  -0.160  -0.608  1.00  0.00     0.088 C 
HETATM   22  C6  UNL     1      -2.892  -0.113  -2.008  1.00  0.00     0.025 C 
HETATM   23  C7  UNL     1      -3.513   1.288  -1.959  1.00  0.00     0.002 C 
HETATM   24  C8  UNL     1      -4.143   1.288  -0.600  1.00  0.00     0.007 C 
HETATM   25  C9  UNL     1      -3.457   0.260   0.236  1.00  0.00     0.018 C 
BRANCH  25  26
HETATM   26  C10 UNL     1      -4.406  -0.887   0.479  1.00  0.00     0.119 C 
BRANCH  26  27
HETATM   27  C11 UNL     1      -5.524  -0.364   1.307  1.00  0.00     0.172 C 
HETATM   28  O1  UNL     1      -5.586   0.837   1.692  1.00  0.00    -0.648 OA
HETATM   29  O2  UNL     1      -6.586  -1.181   1.715  1.00  0.00    -0.648 OA
ENDBRANCH  26  27
ENDBRANCH  25  26
ENDBRANCH   7  21
TORSDOF 5
