REMARK  10 active torsions:
REMARK  status: ('A' for Active; 'I' for Inactive)
REMARK    1  A    between atoms: N1_2  and  C2_3 
REMARK    2  A    between atoms: N1_2  and  C12_23 
REMARK    3  A    between atoms: N2_4  and  N3_6 
REMARK    4  A    between atoms: N3_6  and  C3_8 
REMARK    5  A    between atoms: C3_8  and  O1_9 
REMARK    6  A    between atoms: C3_8  and  C4_11 
REMARK    7  A    between atoms: C4_11  and  C5_12 
REMARK    8  A    between atoms: C5_12  and  C6_13 
REMARK       I    between atoms: C6_13  and  N4_15 
REMARK    9  A    between atoms: C10_19  and  C11_20 
REMARK   10  A    between atoms: C12_23  and  C13_24 
ROOT
HETATM    1  N3  UNL     1       0.324   0.146  -0.414  1.00  0.00    -0.279 N 
ATOM      2  H3  UNL     1       1.121  -0.106  -0.998  1.00  0.00     0.189 HD
ENDROOT
BRANCH   1   3
HETATM    3  N2  UNL     1      -1.043   0.098  -0.905  1.00  0.00    -0.294 N 
HETATM    4  C2  UNL     1      -1.615   1.230  -1.159  1.00  0.00     0.195 C 
ATOM      5  H2  UNL     1      -1.529  -0.788  -1.043  1.00  0.00     0.187 HD
BRANCH   4   6
HETATM    6  N1  UNL     1      -2.946   1.219  -1.639  1.00  0.00    -0.376 N 
HETATM    7  C1  UNL     1      -3.677   2.482  -1.632  1.00  0.00     0.150 C 
BRANCH   6   8
HETATM    8  C12 UNL     1      -3.558   0.012  -2.119  1.00  0.00     0.183 C 
BRANCH   8   9
HETATM    9  C13 UNL     1      -4.676  -0.462  -1.211  1.00  0.00     0.277 C 
HETATM   10  O4  UNL     1      -4.125  -0.702   0.042  1.00  0.00    -0.360 OA
HETATM   11  C14 UNL     1      -4.737  -1.713   0.742  1.00  0.00     0.171 C 
HETATM   12  C15 UNL     1      -6.194  -1.891   0.420  1.00  0.00     0.028 C 
HETATM   13  C16 UNL     1      -6.970  -0.616   0.360  1.00  0.00     0.028 C 
HETATM   14  C17 UNL     1      -6.110   0.609   0.201  1.00  0.00     0.171 C 
HETATM   15  O5  UNL     1      -5.583   0.581  -1.083  1.00  0.00    -0.360 OA
ENDBRANCH   8   9
ENDBRANCH   6   8
ENDBRANCH   4   6
ENDBRANCH   1   3
BRANCH   1  16
HETATM   16  C3  UNL     1       0.470   0.555   0.893  1.00  0.00     0.154 C 
BRANCH  16  17
HETATM   17  O1  UNL     1      -0.685   0.841   1.514  1.00  0.00    -0.345 OA
ATOM     18  H1  UNL     1      -0.584   1.123   2.416  1.00  0.00     0.219 HD
ENDBRANCH  16  17
BRANCH  16  19
HETATM   19  C4  UNL     1       1.603   0.735   1.721  1.00  0.00     0.062 C 
BRANCH  19  20
HETATM   20  C5  UNL     1       2.851   0.605   1.607  1.00  0.00     0.078 C 
BRANCH  20  21
HETATM   21  C6  UNL     1       3.725   0.204   0.567  1.00  0.00     0.244 C 
HETATM   22  O2  UNL     1       3.370  -0.143  -0.559  1.00  0.00    -0.268 OA
HETATM   23  N4  UNL     1       5.166   0.179   0.780  1.00  0.00    -0.336 N 
HETATM   24  C7  UNL     1       5.845   0.546   1.979  1.00  0.00     0.127 C 
HETATM   25  C10 UNL     1       6.104  -0.239  -0.230  1.00  0.00     0.176 C 
HETATM   26  C8  UNL     1       7.196   1.053   1.447  1.00  0.00     0.022 C 
HETATM   27  C9  UNL     1       7.463   0.114   0.311  1.00  0.00     0.036 C 
BRANCH  25  28
HETATM   28  C11 UNL     1       6.007  -1.706  -0.488  1.00  0.00     0.254 C 
HETATM   29  N5  UNL     1       5.092  -2.462   0.260  1.00  0.00    -0.060 NA
HETATM   30  O3  UNL     1       6.739  -2.212  -1.359  1.00  0.00    -0.275 OA
ENDBRANCH  25  28
ENDBRANCH  20  21
ENDBRANCH  19  20
ENDBRANCH  16  19
ENDBRANCH   1  16
TORSDOF 10
