REMARK  7 active torsions:
REMARK  status: ('A' for Active; 'I' for Inactive)
REMARK    1  A    between atoms: C1_2  and  C2_4 
REMARK    2  A    between atoms: C2_4  and  N1_5 
REMARK       I    between atoms: N1_5  and  C3_7 
REMARK    3  A    between atoms: C3_7  and  C4_9 
REMARK    4  A    between atoms: C4_9  and  C5_10 
REMARK    5  A    between atoms: C4_9  and  C10_17 
REMARK    6  A    between atoms: C5_10  and  N2_11 
REMARK       I    between atoms: C10_17  and  N3_19 
REMARK    7  A    between atoms: N4_22  and  C13_23 
ROOT
HETATM    1  C4  UNL     1      -1.633   0.030  -0.303  1.00  0.00     0.198 C 
ENDROOT
BRANCH   1   2
HETATM    2  C3  UNL     1      -2.293   1.362  -0.521  1.00  0.00     0.233 C 
HETATM    3  N1  UNL     1      -1.614   2.522  -0.096  1.00  0.00    -0.350 N 
ATOM      4  H1  UNL     1      -0.700   2.440   0.349  1.00  0.00     0.163 HD
HETATM    5  O3  UNL     1      -3.423   1.442  -1.068  1.00  0.00    -0.273 OA
BRANCH   3   6
HETATM    6  C2  UNL     1      -2.205   3.825  -0.287  1.00  0.00     0.235 C 
BRANCH   6   7
HETATM    7  C1  UNL     1      -2.398   4.104  -1.716  1.00  0.00     0.191 C 
HETATM    8  O1  UNL     1      -2.048   3.323  -2.652  1.00  0.00    -0.647 OA
HETATM    9  O2  UNL     1      -3.003   5.290  -2.151  1.00  0.00    -0.647 OA
ENDBRANCH   6   7
ENDBRANCH   3   6
ENDBRANCH   1   2
BRANCH   1  10
HETATM   10  C5  UNL     1      -2.539  -1.027  -0.849  1.00  0.00     0.296 C 
BRANCH  10  11
HETATM   11  N2  UNL     1      -3.838  -1.055  -0.259  1.00  0.00     0.093 N 
HETATM   12  C6  UNL     1      -4.725  -1.996  -0.897  1.00  0.00     0.298 C 
HETATM   13  C7  UNL     1      -4.437  -3.408  -0.460  1.00  0.00     0.198 C 
HETATM   14  O4  UNL     1      -3.514  -3.474   0.562  1.00  0.00    -0.388 OA
HETATM   15  C8  UNL     1      -3.951  -2.669   1.616  1.00  0.00     0.198 C 
HETATM   16  C9  UNL     1      -3.801  -1.227   1.153  1.00  0.00     0.298 C 
ENDBRANCH  10  11
ENDBRANCH   1  10
BRANCH   1  17
HETATM   17  C10 UNL     1      -0.338   0.075  -1.055  1.00  0.00     0.236 C 
HETATM   18  O5  UNL     1      -0.402   0.112  -2.317  1.00  0.00    -0.272 OA
HETATM   19  N3  UNL     1       0.934   0.078  -0.448  1.00  0.00    -0.324 N 
HETATM   20  C11 UNL     1       1.200   0.017   0.968  1.00  0.00     0.158 C 
HETATM   21  C18 UNL     1       2.213   0.146  -1.112  1.00  0.00     0.400 C 
HETATM   22  C12 UNL     1       2.518   0.744   1.121  1.00  0.00     0.294 C 
HETATM   23  N4  UNL     1       3.093   0.834  -0.206  1.00  0.00     0.112 N 
BRANCH  23  24
HETATM   24  C13 UNL     1       4.437   0.297  -0.252  1.00  0.00     0.225 C 
HETATM   25  C14 UNL     1       4.508  -1.160   0.071  1.00  0.00     0.036 C 
HETATM   26  C15 UNL     1       5.851  -1.357   0.745  1.00  0.00     0.002 C 
HETATM   27  C16 UNL     1       5.991  -0.117   1.570  1.00  0.00     0.002 C 
HETATM   28  C17 UNL     1       5.338   0.961   0.758  1.00  0.00     0.036 C 
ENDBRANCH  23  24
ENDBRANCH   1  17
TORSDOF 7
