REMARK  3 active torsions:
REMARK  status: ('A' for Active; 'I' for Inactive)
REMARK    1  A    between atoms: C2_2  and  N1_3 
REMARK    2  A    between atoms: N1_3  and  C3_5 
REMARK    3  A    between atoms: C5_10  and  N3_11 
ROOT
HETATM    1  C3  UNL     1       0.694   0.280   0.316  1.00  0.00     0.160 C 
HETATM    2  C4  UNL     1       1.144  -0.711   1.373  1.00  0.00     0.263 C 
HETATM    3  N2  UNL     1       2.452  -0.647   0.695  1.00  0.00    -0.042 N 
ATOM      4  H21 UNL     1       3.145  -1.388   0.796  1.00  0.00     0.279 HD
ATOM      5  H22 UNL     1       3.172   0.017   0.981  1.00  0.00     0.279 HD
HETATM    6  C5  UNL     1       1.701  -0.473  -0.524  1.00  0.00     0.403 C 
ENDROOT
BRANCH   1   7
HETATM    7  N1  UNL     1      -0.627   0.090  -0.191  1.00  0.00    -0.412 N 
ATOM      8  H1  UNL     1      -0.813  -0.136  -1.168  1.00  0.00     0.153 HD
BRANCH   7   9
HETATM    9  C2  UNL     1      -1.678   0.242   0.785  1.00  0.00     0.110 C 
HETATM   10  C1  UNL     1      -2.997  -0.008   0.067  1.00  0.00     0.026 C 
ENDBRANCH   7   9
ENDBRANCH   1   7
BRANCH   6  11
HETATM   11  N3  UNL     1       2.341   0.298  -1.557  1.00  0.00    -0.048 N 
ATOM     12  H33 UNL     1       1.639   0.731  -2.157  1.00  0.00     0.276 HD
ATOM     13  H32 UNL     1       2.773   1.131  -1.156  1.00  0.00     0.276 HD
ATOM     14  H31 UNL     1       3.020  -0.210  -2.124  1.00  0.00     0.276 HD
ENDBRANCH   6  11
TORSDOF 3
