REMARK  4 active torsions:
REMARK  status: ('A' for Active; 'I' for Inactive)
REMARK    1  A    between atoms: C2_2  and  C3_3 
REMARK    2  A    between atoms: C3_3  and  C5_5 
REMARK    3  A    between atoms: C14_14  and  C15_15 
REMARK    4  A    between atoms: C15_15  and  N1_16 
ROOT
HETATM    1  C5  UNL     1      -2.254   0.359  -0.495  1.00  0.00     0.002 C 
HETATM    2  C6  UNL     1      -3.326  -0.407  -1.284  1.00  0.00     0.006 C 
HETATM    3  C7  UNL     1      -2.976  -1.846  -1.278  1.00  0.00     0.006 C 
HETATM    4  C8  UNL     1      -1.659  -1.991  -0.620  1.00  0.00    -0.001 C 
HETATM    5  C9  UNL     1      -0.618  -2.233  -1.643  1.00  0.00    -0.009 C 
HETATM    6  C10 UNL     1       0.399  -3.280  -1.214  1.00  0.00     0.005 C 
HETATM    7  C11 UNL     1       1.497  -2.634  -0.395  1.00  0.00     0.006 C 
HETATM    8  C12 UNL     1       0.990  -1.504   0.471  1.00  0.00    -0.005 C 
HETATM    9  C13 UNL     1       2.234  -0.843   1.051  1.00  0.00     0.011 C 
HETATM   10  C14 UNL     1       3.009  -0.044   0.044  1.00  0.00     0.011 C 
HETATM   11  C17 UNL     1       2.126   0.892  -0.720  1.00  0.00     0.007 C 
HETATM   12  C18 UNL     1       0.683   0.863  -0.257  1.00  0.00     0.011 C 
HETATM   13  C19 UNL     1       0.121  -0.513  -0.259  1.00  0.00    -0.028 C 
HETATM   14  C20 UNL     1       0.131  -0.947  -1.737  1.00  0.00     0.015 C 
HETATM   15  C21 UNL     1      -1.346  -0.643   0.078  1.00  0.00    -0.028 C 
HETATM   16  C22 UNL     1      -1.546  -0.936   1.558  1.00  0.00     0.016 C 
ENDROOT
BRANCH  10  17
HETATM   17  C15 UNL     1       4.085   0.706   0.805  1.00  0.00     0.236 C 
BRANCH  17  18
HETATM   18  N1  UNL     1       3.503   1.581   1.789  1.00  0.00    -0.079 N 
HETATM   19  C16 UNL     1       4.618   2.255   2.469  1.00  0.00     0.267 C 
ATOM     20  H12 UNL     1       2.820   2.229   1.397  1.00  0.00     0.276 HD
ATOM     21  H11 UNL     1       2.872   1.101   2.431  1.00  0.00     0.276 HD
ENDBRANCH  17  18
ENDBRANCH  10  17
BRANCH   1  22
HETATM   22  C3  UNL     1      -3.027   1.255   0.436  1.00  0.00     0.008 C 
HETATM   23  C4  UNL     1      -3.800   2.213  -0.490  1.00  0.00     0.014 C 
BRANCH  22  24
HETATM   24  C2  UNL     1      -2.195   2.114   1.298  1.00  0.00    -0.032 C 
HETATM   25  C1  UNL     1      -2.254   3.440   1.283  1.00  0.00     0.007 C 
ENDBRANCH  22  24
ENDBRANCH   1  22
TORSDOF 4
