REMARK  7 active torsions:
REMARK  status: ('A' for Active; 'I' for Inactive)
REMARK    1  A    between atoms: C6_6  and  C7_7 
REMARK    2  A    between atoms: C7_7  and  N1_8 
REMARK       I    between atoms: N1_8  and  C8_10 
REMARK    3  A    between atoms: C8_10  and  C9_12 
REMARK    4  A    between atoms: C9_12  and  C10_13 
REMARK    5  A    between atoms: C19_23  and  O2_24 
REMARK    6  A    between atoms: O2_24  and  C20_25 
REMARK    7  A    between atoms: C20_25  and  C21_26 
ROOT
HETATM    1  C10 UNL     1      -1.184   0.291  -1.709  1.00  0.00    -0.062 C 
HETATM    2  C11 UNL     1      -1.113   1.769  -1.560  1.00  0.00     0.000 C 
HETATM    3  C12 UNL     1      -0.326   2.084  -0.548  1.00  0.00    -0.020 C 
HETATM    4  C13 UNL     1       0.215   0.834   0.088  1.00  0.00     0.025 C 
HETATM    5  C14 UNL     1       1.681   0.869  -0.098  1.00  0.00     0.002 C 
HETATM    6  C15 UNL     1       2.120   1.425  -1.431  1.00  0.00     0.047 C 
HETATM    7  C16 UNL     1       3.581   1.697  -1.370  1.00  0.00     0.200 C 
HETATM    8  F1  UNL     1       3.755   3.043  -1.077  1.00  0.00    -0.245 F 
HETATM    9  C17 UNL     1       4.323   0.830  -0.418  1.00  0.00    -0.039 C 
HETATM   10  C18 UNL     1       5.571   1.190  -0.110  1.00  0.00     0.011 C 
HETATM   11  C19 UNL     1       6.478   0.485   0.799  1.00  0.00     0.145 C 
HETATM   12  C22 UNL     1       5.742  -0.383   1.801  1.00  0.00     0.037 C 
HETATM   13  C23 UNL     1       4.265  -0.324   1.674  1.00  0.00     0.017 C 
HETATM   14  C24 UNL     1       3.784  -0.377   0.213  1.00  0.00    -0.014 C 
HETATM   15  C25 UNL     1       4.324  -1.674  -0.343  1.00  0.00     0.020 C 
HETATM   16  C26 UNL     1       2.283  -0.453   0.205  1.00  0.00     0.003 C 
HETATM   17  C27 UNL     1       1.759  -1.436  -0.802  1.00  0.00     0.007 C 
HETATM   18  C28 UNL     1       0.299  -1.501  -0.923  1.00  0.00     0.015 C 
HETATM   19  C29 UNL     1      -0.522  -0.329  -0.514  1.00  0.00    -0.013 C 
HETATM   20  C30 UNL     1      -1.482  -0.825   0.555  1.00  0.00     0.021 C 
ENDROOT
BRANCH   1  21
HETATM   21  C9  UNL     1      -2.426  -0.255  -2.230  1.00  0.00     0.137 C 
BRANCH  21  22
HETATM   22  C8  UNL     1      -3.689   0.043  -1.521  1.00  0.00     0.221 C 
HETATM   23  N1  UNL     1      -4.846  -0.650  -1.980  1.00  0.00    -0.359 N 
ATOM     24  H1  UNL     1      -4.697  -1.285  -2.764  1.00  0.00     0.162 HD
HETATM   25  O1  UNL     1      -3.798   0.835  -0.581  1.00  0.00    -0.273 OA
BRANCH  23  26
HETATM   26  C7  UNL     1      -6.171  -0.577  -1.496  1.00  0.00     0.155 C 
BRANCH  26  27
HETATM   27  C6  UNL     1      -6.471  -1.019  -0.118  1.00  0.00     0.207 C 
HETATM   28  C4  UNL     1      -7.977  -0.836   0.111  1.00  0.00     0.016 C 
HETATM   29  C3  UNL     1      -8.001   0.543   0.730  1.00  0.00     0.039 C 
HETATM   30  C5  UNL     1      -8.549  -1.902   0.997  1.00  0.00     0.012 C 
HETATM   31  C2  UNL     1      -6.745   0.550   1.568  1.00  0.00     0.182 C 
HETATM   32  C1  UNL     1      -7.066   0.228   3.009  1.00  0.00     0.040 C 
HETATM   33  N3  UNL     1      -5.835  -0.378   0.968  1.00  0.00    -0.065 N 
ATOM     34  H32 UNL     1      -4.956   0.063   0.696  1.00  0.00     0.278 HD
ATOM     35  H31 UNL     1      -5.460  -1.043   1.644  1.00  0.00     0.278 HD
ENDBRANCH  26  27
ENDBRANCH  23  26
ENDBRANCH  21  22
ENDBRANCH   1  21
BRANCH  11  36
HETATM   36  O2  UNL     1       7.267   1.411   1.458  1.00  0.00    -0.373 OA
BRANCH  36  37
HETATM   37  C20 UNL     1       8.613   1.243   1.374  1.00  0.00     0.268 C 
BRANCH  37  38
HETATM   38  C21 UNL     1       9.243   1.252   0.068  1.00  0.00     0.254 C 
HETATM   39  N2  UNL     1      10.660   1.093   0.007  1.00  0.00    -0.060 NA
HETATM   40  O3  UNL     1       8.635   1.389  -1.005  1.00  0.00    -0.275 OA
ENDBRANCH  37  38
ENDBRANCH  36  37
ENDBRANCH  11  36
TORSDOF 7
