REMARK  8 active torsions:
REMARK  status: ('A' for Active; 'I' for Inactive)
REMARK    1  A    between atoms: C5_8  and  C6_9 
REMARK    2  A    between atoms: C6_9  and  C7_10 
REMARK    3  A    between atoms: C7_10  and  C8_12 
REMARK    4  A    between atoms: N2_20  and  C15_21 
REMARK    5  A    between atoms: C15_21  and  C16_22 
REMARK       I    between atoms: C16_22  and  N3_24 
REMARK    6  A    between atoms: N3_24  and  C17_25 
REMARK    7  A    between atoms: C17_25  and  C18_26 
REMARK    8  A    between atoms: C18_26  and  N4_27 
ROOT
HETATM    1  C1  UNL     1      -1.519  -5.597   3.251  1.00  0.00     0.019 C 
HETATM    2  C2  UNL     1      -2.176  -4.658   2.876  1.00  0.00    -0.063 C 
HETATM    3  C3  UNL     1      -2.948  -3.508   2.444  1.00  0.00     0.109 C 
HETATM    4 CL1  UNL     1      -4.245  -2.999   3.473  1.00  0.00    -0.072 Cl
HETATM    5  C4  UNL     1      -2.653  -2.894   1.322  1.00  0.00     0.046 C 
HETATM    6  N1  UNL     1      -3.401  -1.762   0.888  1.00  0.00    -0.356 N 
ATOM      7  H1  UNL     1      -4.418  -1.842   0.911  1.00  0.00     0.166 HD
HETATM    8  C5  UNL     1      -2.903  -0.625   0.461  1.00  0.00     0.085 C 
HETATM    9  C14 UNL     1      -1.438  -0.310   0.424  1.00  0.00     0.267 C 
HETATM   10  O2  UNL     1      -1.218   0.905   0.366  1.00  0.00    -0.266 OA
HETATM   11  N2  UNL     1      -0.344  -1.208   0.446  1.00  0.00    -0.332 N 
HETATM   12  C23 UNL     1      -0.279  -2.653   0.525  1.00  0.00     0.098 C 
HETATM   13  C24 UNL     1       0.750  -3.278  -0.370  1.00  0.00     0.026 C 
HETATM   14  C25 UNL     1       0.222  -4.555  -1.013  1.00  0.00     0.002 C 
HETATM   15  C26 UNL     1      -1.075  -4.273  -1.765  1.00  0.00     0.001 C 
HETATM   16  C27 UNL     1      -2.034  -3.431  -1.002  1.00  0.00     0.013 C 
HETATM   17  C28 UNL     1      -1.531  -3.419   0.449  1.00  0.00     0.061 C 
ENDROOT
BRANCH   8  18
HETATM   18  C6  UNL     1      -3.819   0.416   0.028  1.00  0.00     0.141 C 
BRANCH  18  19
HETATM   19  C7  UNL     1      -3.820   1.718   0.666  1.00  0.00     0.136 C 
HETATM   20  O1  UNL     1      -3.463   1.950   1.774  1.00  0.00    -0.297 OA
BRANCH  19  21
HETATM   21  C8  UNL     1      -4.324   2.844  -0.208  1.00  0.00     0.056 C 
HETATM   22  C9  UNL     1      -4.608   4.105   0.525  1.00  0.00     0.012 C 
HETATM   23  C10 UNL     1      -6.023   4.081   1.074  1.00  0.00     0.001 C 
HETATM   24  C11 UNL     1      -7.070   3.933   0.015  1.00  0.00     0.000 C 
HETATM   25  C12 UNL     1      -6.406   3.646  -1.306  1.00  0.00     0.001 C 
HETATM   26  C13 UNL     1      -5.505   2.436  -1.044  1.00  0.00     0.012 C 
ENDBRANCH  19  21
ENDBRANCH  18  19
ENDBRANCH   8  18
BRANCH  11  27
HETATM   27  C15 UNL     1       0.969  -0.645   0.530  1.00  0.00     0.245 C 
BRANCH  27  28
HETATM   28  C16 UNL     1       1.439  -0.029  -0.795  1.00  0.00     0.304 C 
HETATM   29  O3  UNL     1       0.536   0.063  -1.689  1.00  0.00    -0.256 OA
HETATM   30  N3  UNL     1       2.715   0.363  -0.912  1.00  0.00    -0.412 NA
BRANCH  30  31
HETATM   31  C17 UNL     1       4.047   0.774  -1.039  1.00  0.00     0.252 C 
BRANCH  31  32
HETATM   32  C18 UNL     1       4.864   0.205   0.146  1.00  0.00     0.305 C 
BRANCH  32  33
HETATM   33  N4  UNL     1       6.243   0.632   0.095  1.00  0.00     0.094 N 
HETATM   34  C19 UNL     1       6.376   2.050   0.430  1.00  0.00     0.291 C 
HETATM   35  C20 UNL     1       7.867   2.304   0.596  1.00  0.00     0.144 C 
HETATM   36  N5  UNL     1       8.605   1.976  -0.591  1.00  0.00    -0.418 N 
HETATM   37  C21 UNL     1       8.268   0.720  -1.178  1.00  0.00     0.144 C 
ATOM     38  H5  UNL     1       9.315   2.593  -0.984  1.00  0.00     0.153 HD
HETATM   39  C22 UNL     1       6.761   0.551  -1.273  1.00  0.00     0.291 C 
ENDBRANCH  32  33
ENDBRANCH  31  32
ENDBRANCH  30  31
ENDBRANCH  27  28
ENDBRANCH  11  27
TORSDOF 8
