REMARK  7 active torsions:
REMARK  status: ('A' for Active; 'I' for Inactive)
REMARK    1  A    between atoms: C2_2  and  C3_3 
REMARK    2  A    between atoms: C3_3  and  C4_4 
REMARK    3  A    between atoms: C4_4  and  S1_5 
REMARK    4  A    between atoms: C4_4  and  C9_18 
REMARK    5  A    between atoms: S1_5  and  C5_6 
REMARK    6  A    between atoms: C6_9  and  C7_10 
REMARK       I    between atoms: C9_18  and  N5_20 
REMARK    7  A    between atoms: N5_20  and  C10_22 
ROOT
HETATM    1  C7  UNL     1       6.940  -0.929   1.070  1.00  0.00     0.296 C 
HETATM    2  O1  UNL     1       7.328  -0.987   2.250  1.00  0.00    -0.272 OA
HETATM    3  C8  UNL     1       7.883  -0.989   0.012  1.00  0.00     0.147 C 
HETATM    4  N2  UNL     1       8.670  -1.049  -0.844  1.00  0.00    -0.188 NA
ENDROOT
BRANCH   1   5
HETATM    5  C6  UNL     1       5.519  -0.799   0.798  1.00  0.00     0.184 A 
HETATM    6  N1  UNL     1       4.494  -0.727   1.643  1.00  0.00    -0.317 N 
HETATM    7  C5  UNL     1       3.323  -0.611   0.971  1.00  0.00     0.161 A 
ATOM      8  H1  UNL     1       4.578  -0.755   2.659  1.00  0.00     0.169 HD
HETATM    9  N4  UNL     1       3.675  -0.617  -0.323  1.00  0.00    -0.278 N 
HETATM   10  N3  UNL     1       4.976  -0.728  -0.425  1.00  0.00    -0.280 N 
ATOM     11  H4  UNL     1       3.028  -0.546  -1.108  1.00  0.00     0.189 HD
ATOM     12  H3  UNL     1       5.497  -0.756  -1.302  1.00  0.00     0.189 HD
BRANCH   7  13
HETATM   13  S1  UNL     1       1.702  -0.465   1.675  1.00  0.00    -0.078 SA
BRANCH  13  14
HETATM   14  C4  UNL     1       0.428   0.029   0.565  1.00  0.00     0.147 C 
BRANCH  14  15
HETATM   15  C3  UNL     1       0.323   1.477   0.215  1.00  0.00     0.025 C 
BRANCH  15  16
HETATM   16  C2  UNL     1       1.525   2.050  -0.410  1.00  0.00    -0.003 C 
HETATM   17  C1  UNL     1       1.352   3.521  -0.777  1.00  0.00     0.005 C 
ENDBRANCH  15  16
ENDBRANCH  14  15
BRANCH  14  18
HETATM   18  C9  UNL     1      -0.923  -0.478   0.956  1.00  0.00     0.232 C 
HETATM   19  O2  UNL     1      -1.057  -0.938   2.108  1.00  0.00    -0.272 OA
HETATM   20  N5  UNL     1      -2.037  -0.456   0.084  1.00  0.00    -0.355 N 
ATOM     21  H5  UNL     1      -1.917  -0.078  -0.856  1.00  0.00     0.162 HD
BRANCH  20  22
HETATM   22  C10 UNL     1      -3.328  -0.945   0.470  1.00  0.00     0.084 C 
HETATM   23  C11 UNL     1      -4.429   0.060   0.398  1.00  0.00     0.025 C 
HETATM   24  C12 UNL     1      -5.422  -0.407  -0.627  1.00  0.00     0.002 C 
HETATM   25  C13 UNL     1      -4.888  -1.689  -1.220  1.00  0.00     0.002 C 
HETATM   26  C14 UNL     1      -3.763  -2.145  -0.341  1.00  0.00     0.025 C 
ENDBRANCH  20  22
ENDBRANCH  14  18
ENDBRANCH  13  14
ENDBRANCH   7  13
ENDBRANCH   1   5
TORSDOF 7
