REMARK  12 active torsions:
REMARK  status: ('A' for Active; 'I' for Inactive)
REMARK    1  A    between atoms: C2_2  and  C3_4 
REMARK    2  A    between atoms: C3_4  and  N1_5 
REMARK    3  A    between atoms: C3_4  and  N11_37 
REMARK       I    between atoms: N1_5  and  C4_7 
REMARK       I    between atoms: C4_7  and  N2_8 
REMARK       I    between atoms: C4_7  and  N4_12 
REMARK    4  A    between atoms: N4_12  and  N5_14 
REMARK    5  A    between atoms: N5_14  and  C6_16 
REMARK    6  A    between atoms: C6_16  and  C8_18 
REMARK    7  A    between atoms: N7_23  and  C10_24 
REMARK    8  A    between atoms: C11_30  and  N10_31 
REMARK    9  A    between atoms: C12_34  and  O3_35 
REMARK   10  A    between atoms: N11_37  and  O4_38 
REMARK   11  A    between atoms: N11_37  and  N12_40 
REMARK   12  A    between atoms: N12_40  and  N13_41 
ROOT
HETATM    1  N1  UNL     1      -3.062   1.039   0.656  1.00  0.00    -0.195 N 
ATOM      2  H1  UNL     1      -2.992   1.186   1.663  1.00  0.00     0.180 HD
HETATM    3  C4  UNL     1      -2.410   1.943  -0.227  1.00  0.00     0.703 C 
HETATM    4  N2  UNL     1      -2.835   3.169  -0.232  1.00  0.00    -0.125 N 
ATOM      5  H2  UNL     1      -3.604   3.426   0.386  1.00  0.00     0.197 HD
HETATM    6  C5  UNL     1      -2.275   4.149  -1.055  1.00  0.00     0.196 C 
HETATM    7  N3  UNL     1      -1.801   4.955  -1.756  1.00  0.00    -0.171 NA
HETATM    8  N4  UNL     1      -1.343   1.535  -1.068  1.00  0.00    -0.131 N 
ATOM      9  H4  UNL     1      -1.514   1.279  -2.041  1.00  0.00     0.205 HD
ENDROOT
BRANCH   1  10
HETATM   10  C3  UNL     1      -3.816  -0.074   0.160  1.00  0.00     0.308 C 
BRANCH  10  11
HETATM   11  C2  UNL     1      -4.391  -0.857   1.268  1.00  0.00     0.165 C 
HETATM   12  C1  UNL     1      -5.223  -2.069   1.070  1.00  0.00     0.095 C 
HETATM   13  O1  UNL     1      -4.185  -0.508   2.414  1.00  0.00    -0.294 OA
ENDBRANCH  10  11
BRANCH  10  14
HETATM   14  N11 UNL     1      -4.867   0.332  -0.765  1.00  0.00     0.014 NA
BRANCH  14  15
HETATM   15  O4  UNL     1      -5.129  -0.713  -1.582  1.00  0.00    -0.280 OA
ATOM     16  H4  UNL     1      -5.814  -0.448  -2.185  1.00  0.00     0.240 HD
ENDBRANCH  14  15
BRANCH  14  17
HETATM   17  N12 UNL     1      -5.980   0.717  -0.126  1.00  0.00    -0.242 NA
BRANCH  17  18
HETATM   18  N13 UNL     1      -6.911   1.038   0.403  1.00  0.00    -0.264 N 
ATOM     19 2H13 UNL     1      -6.191   0.742  -0.256  1.00  0.00     0.193 HD
ATOM     20 1H13 UNL     1      -7.758   1.331   0.889  1.00  0.00     0.193 HD
ENDBRANCH  17  18
ENDBRANCH  14  17
ENDBRANCH  10  14
ENDBRANCH   1  10
BRANCH   8  21
HETATM   21  N5  UNL     1      -0.053   1.491  -0.535  1.00  0.00    -0.289 N 
ATOM     22  H5  UNL     1       0.318   2.295  -0.029  1.00  0.00     0.187 HD
BRANCH  21  23
HETATM   23  C6  UNL     1       0.661   0.445  -0.681  1.00  0.00     0.053 C 
HETATM   24  C7  UNL     1       0.131  -0.719  -1.410  1.00  0.00     0.072 C 
BRANCH  23  25
HETATM   25  C8  UNL     1       1.999   0.394  -0.132  1.00  0.00     0.110 A 
HETATM   26  N6  UNL     1       2.623   1.371   0.557  1.00  0.00    -0.331 N 
HETATM   27  C9  UNL     1       3.863   0.929   0.896  1.00  0.00     0.166 A 
ATOM     28  H6  UNL     1       2.232   2.285   0.785  1.00  0.00     0.168 HD
HETATM   29  S1  UNL     1       5.018   1.925   1.819  1.00  0.00    -0.012 SA
HETATM   30  N7  UNL     1       4.030  -0.317   0.430  1.00  0.00    -0.250 N 
HETATM   31  C12 UNL     1       2.907  -0.669  -0.202  1.00  0.00     0.180 A 
BRANCH  30  32
HETATM   32  C10 UNL     1       5.208  -1.084   0.603  1.00  0.00     0.184 A 
HETATM   33  N8  UNL     1       5.377  -2.178   1.365  1.00  0.00    -0.221 N 
HETATM   34  O2  UNL     1       6.598  -2.593   1.260  1.00  0.00    -0.153 OA
ATOM     35  H8  UNL     1       4.654  -2.614   1.938  1.00  0.00     0.198 HD
HETATM   36  N9  UNL     1       7.251  -1.829   0.465  1.00  0.00    -0.222 N 
HETATM   37  C11 UNL     1       6.436  -0.864   0.020  1.00  0.00     0.168 A 
ATOM     38  H9  UNL     1       8.233  -1.938   0.212  1.00  0.00     0.198 HD
BRANCH  37  39
HETATM   39  N10 UNL     1       6.751   0.105  -0.813  1.00  0.00    -0.381 N 
ATOM     40 2H10 UNL     1       6.130   0.840  -1.152  1.00  0.00     0.157 HD
ATOM     41 1H10 UNL     1       7.661   0.268  -1.245  1.00  0.00     0.157 HD
ENDBRANCH  37  39
ENDBRANCH  30  32
BRANCH  31  42
HETATM   42  O3  UNL     1       2.630  -1.871  -0.839  1.00  0.00    -0.344 OA
ATOM     43  H3  UNL     1       3.246  -2.592  -0.887  1.00  0.00     0.219 HD
ENDBRANCH  31  42
ENDBRANCH  23  25
ENDBRANCH  21  23
ENDBRANCH   8  21
TORSDOF 12
