REMARK  3 active torsions:
REMARK  status: ('A' for Active; 'I' for Inactive)
REMARK    1  A    between atoms: C5_12  and  C6_13 
REMARK    2  A    between atoms: C6_13  and  C7_14 
REMARK    3  A    between atoms: C9_20  and  N5_21 
ROOT
HETATM    1  N1  UNL     1      -1.348  -3.893  -0.315  1.00  0.00    -0.196 NA
HETATM    2  C1  UNL     1      -1.397  -2.898   0.277  1.00  0.00     0.075 C 
HETATM    3  C2  UNL     1      -1.483  -1.620   1.023  1.00  0.00     0.202 C 
HETATM    4  C3  UNL     1      -0.282  -1.372   1.816  1.00  0.00     0.140 C 
HETATM    5  N2  UNL     1      -0.376  -1.888   2.990  1.00  0.00    -0.382 N 
ATOM      6  H21 UNL     1       0.463  -1.715   3.544  1.00  0.00     0.158 HD
ATOM      7  H22 UNL     1      -1.278  -2.354   3.090  1.00  0.00     0.158 HD
HETATM    8  O1  UNL     1       0.963  -0.728   1.678  1.00  0.00    -0.277 OA
HETATM    9  C4  UNL     1       1.705  -0.492   0.504  1.00  0.00     0.182 A 
HETATM   10  N3  UNL     1       3.028  -0.294   0.615  1.00  0.00    -0.324 N 
ATOM     11  H3  UNL     1       3.565  -0.297   1.482  1.00  0.00     0.169 HD
HETATM   12  C5  UNL     1       3.521  -0.091  -0.622  1.00  0.00     0.093 A 
HETATM   13  N4  UNL     1       2.545  -0.152  -1.540  1.00  0.00    -0.339 N 
ATOM     14  H4  UNL     1       2.639  -0.035  -2.549  1.00  0.00     0.167 HD
HETATM   15  C8  UNL     1       1.411  -0.401  -0.848  1.00  0.00     0.136 A 
HETATM   16  C9  UNL     1       0.165  -0.522  -1.595  1.00  0.00     0.168 C 
HETATM   17  O4  UNL     1      -1.175  -0.694  -1.197  1.00  0.00    -0.321 OA
HETATM   18  C10 UNL     1      -1.820  -0.516   0.052  1.00  0.00     0.093 C 
HETATM   19  C11 UNL     1      -1.543   0.834   0.648  1.00  0.00     0.040 C 
HETATM   20  C12 UNL     1      -2.805   1.622   0.906  1.00  0.00     0.003 C 
HETATM   21  C13 UNL     1      -3.673   1.761  -0.310  1.00  0.00     0.000 C 
HETATM   22  C14 UNL     1      -3.805   0.491  -1.095  1.00  0.00     0.003 C 
HETATM   23  C15 UNL     1      -3.316  -0.652  -0.236  1.00  0.00     0.040 C 
ENDROOT
BRANCH  16  24
HETATM   24  N5  UNL     1       0.314  -0.460  -2.874  1.00  0.00    -0.378 N 
ATOM     25  H52 UNL     1       1.284  -0.335  -3.162  1.00  0.00     0.158 HD
ATOM     26  H51 UNL     1      -0.558  -0.545  -3.397  1.00  0.00     0.158 HD
ENDBRANCH  16  24
BRANCH  12  27
HETATM   27  C6  UNL     1       4.943   0.163  -0.909  1.00  0.00     0.189 C 
BRANCH  27  28
HETATM   28  C7  UNL     1       5.275   1.608  -0.882  1.00  0.00     0.179 C 
HETATM   29  O2  UNL     1       4.356   2.425  -0.630  1.00  0.00    -0.648 OA
HETATM   30  O3  UNL     1       6.545   2.097  -1.121  1.00  0.00    -0.648 OA
ENDBRANCH  27  28
ENDBRANCH  12  27
TORSDOF 3
