REMARK  8 active torsions:
REMARK  status: ('A' for Active; 'I' for Inactive)
REMARK    1  A    between atoms: C2_2  and  N1_3 
REMARK    2  A    between atoms: N1_3  and  C3_4 
REMARK    3  A    between atoms: N1_3  and  C5_6 
REMARK    4  A    between atoms: C5_6  and  C7_8 
REMARK    5  A    between atoms: C7_8  and  N2_9 
REMARK       I    between atoms: N2_9  and  C8_11 
REMARK    6  A    between atoms: C8_11  and  C9_13 
REMARK    7  A    between atoms: N3_18  and  O2_20 
REMARK    8  A    between atoms: N4_22  and  C14_23 
ROOT
HETATM    1  C9  UNL     1      -0.256  -0.188  -3.753  1.00  0.00     0.189 C 
HETATM    2  C10 UNL     1      -0.781  -1.409  -4.440  1.00  0.00     0.021 C 
HETATM    3  C11 UNL     1      -1.738  -2.175  -3.495  1.00  0.00     0.013 C 
HETATM    4  C12 UNL     1       0.364  -2.311  -4.670  1.00  0.00     0.085 C 
HETATM    5  C13 UNL     1       1.503  -1.646  -3.942  1.00  0.00     0.106 C 
HETATM    6  N3  UNL     1       2.730  -2.019  -4.060  1.00  0.00    -0.257 N 
ATOM      7  H3  UNL     1       2.899  -2.807  -4.686  1.00  0.00     0.195 HD
HETATM    8  N4  UNL     1       0.984  -0.588  -3.164  1.00  0.00    -0.301 N 
ENDROOT
BRANCH   8   9
HETATM    9  C14 UNL     1       1.582  -0.006  -1.972  1.00  0.00     0.153 A 
HETATM   10  N5  UNL     1       2.469  -0.467  -1.128  1.00  0.00    -0.339 N 
HETATM   11  C15 UNL     1       2.897   0.255  -0.144  1.00  0.00     0.027 A 
ATOM     12  H5  UNL     1       2.830  -1.413  -1.248  1.00  0.00     0.168 HD
HETATM   13  C16 UNL     1       2.387   1.524  -0.023  1.00  0.00     0.027 A 
HETATM   14  C23 UNL     1       3.907  -0.139   0.921  1.00  0.00     0.078 C 
HETATM   15  S1  UNL     1       1.312   1.589  -1.348  1.00  0.00    -0.055 SA
HETATM   16  C17 UNL     1       2.788   2.482   1.070  1.00  0.00     0.037 C 
HETATM   17  C18 UNL     1       4.070   3.185   0.770  1.00  0.00     0.032 C 
HETATM   18  C19 UNL     1       1.676   3.528   1.133  1.00  0.00     0.032 C 
HETATM   19  S2  UNL     1       2.794   1.584   2.624  1.00  0.00    -0.145 SA
HETATM   20  C20 UNL     1       3.233  -0.142   2.274  1.00  0.00     0.007 C 
HETATM   21  C21 UNL     1       4.259  -0.573   3.293  1.00  0.00     0.027 C 
HETATM   22  C22 UNL     1       2.057  -1.061   2.336  1.00  0.00     0.027 C 
ENDBRANCH   8   9
BRANCH   1  23
HETATM   23  C8  UNL     1      -1.274   0.293  -2.763  1.00  0.00     0.241 C 
HETATM   24  N2  UNL     1      -1.390  -0.081  -1.434  1.00  0.00    -0.357 N 
ATOM     25  H2  UNL     1      -0.739  -0.755  -1.031  1.00  0.00     0.162 HD
HETATM   26  O1  UNL     1      -2.107   1.134  -3.244  1.00  0.00    -0.271 OA
BRANCH  24  27
HETATM   27  C7  UNL     1      -2.447   0.495  -0.618  1.00  0.00     0.147 C 
BRANCH  27  28
HETATM   28  C5  UNL     1      -2.371  -0.060   0.787  1.00  0.00     0.097 C 
HETATM   29  C6  UNL     1      -2.177  -1.564   0.795  1.00  0.00     0.034 C 
BRANCH  28  30
HETATM   30  N1  UNL     1      -3.312   0.391   1.701  1.00  0.00    -0.388 N 
BRANCH  30  31
HETATM   31  C2  UNL     1      -4.651   0.073   1.705  1.00  0.00     0.054 C 
HETATM   32  C1  UNL     1      -5.260  -0.758   0.646  1.00  0.00     0.054 C 
ENDBRANCH  30  31
BRANCH  30  33
HETATM   33  C3  UNL     1      -2.832   1.207   2.778  1.00  0.00     0.118 C 
HETATM   34  C4  UNL     1      -2.896   0.420   4.066  1.00  0.00     0.026 C 
ENDBRANCH  30  33
ENDBRANCH  28  30
ENDBRANCH  27  28
ENDBRANCH  24  27
ENDBRANCH   1  23
BRANCH   6  35
HETATM   35  O2  UNL     1       3.813  -1.500  -3.462  1.00  0.00    -0.288 OA
ATOM     36  H2  UNL     1       4.718  -1.775  -3.549  1.00  0.00     0.244 HD
ENDBRANCH   6  35
TORSDOF 8
