REMARK  7 active torsions:
REMARK  status: ('A' for Active; 'I' for Inactive)
REMARK    1  A    between atoms: N1_2  and  C3_4 
REMARK    2  A    between atoms: C3_4  and  C4_5 
REMARK    3  A    between atoms: C4_5  and  C5_6 
REMARK    4  A    between atoms: C5_6  and  C6_7 
REMARK    5  A    between atoms: C6_7  and  N2_8 
REMARK    6  A    between atoms: N2_8  and  C7_10 
REMARK    7  A    between atoms: C8_13  and  N4_14 
ROOT
HETATM    1  C7  UNL     1      -2.270   0.494   0.009  1.00  0.00     0.147 A 
HETATM    2  N3  UNL     1      -3.104   1.481  -0.437  1.00  0.00    -0.175 N 
ATOM      3  H3  UNL     1      -2.716   2.415  -0.570  1.00  0.00     0.186 HD
HETATM    4  C8  UNL     1      -4.376   1.296  -0.704  1.00  0.00     0.679 A 
HETATM    5  N5  UNL     1      -4.954   0.092  -0.551  1.00  0.00    -0.174 N 
ATOM      6  H5  UNL     1      -5.942  -0.056  -0.757  1.00  0.00     0.186 HD
HETATM    7  C9  UNL     1      -4.172  -0.905  -0.116  1.00  0.00     0.152 A 
HETATM    8  N6  UNL     1      -4.483  -2.210   0.126  1.00  0.00    -0.336 N 
ATOM      9  H6  UNL     1      -5.404  -2.632   0.003  1.00  0.00     0.168 HD
HETATM   10  C10 UNL     1      -3.391  -2.847   0.549  1.00  0.00     0.182 A 
HETATM   11  N7  UNL     1      -2.366  -1.962   0.585  1.00  0.00    -0.346 N 
ATOM     12  H7  UNL     1      -1.408  -2.167   0.870  1.00  0.00     0.167 HD
HETATM   13  C11 UNL     1      -2.832  -0.758   0.177  1.00  0.00     0.123 A 
ENDROOT
BRANCH   1  14
HETATM   14  N2  UNL     1      -1.080   0.753   0.240  1.00  0.00    -0.374 N 
ATOM     15  H2  UNL     1      -0.889   1.737   0.048  1.00  0.00     0.161 HD
BRANCH  14  16
HETATM   16  C6  UNL     1       0.057   0.126   0.673  1.00  0.00     0.121 C 
BRANCH  16  17
HETATM   17  C5  UNL     1       0.845  -0.574  -0.457  1.00  0.00     0.021 C 
BRANCH  17  18
HETATM   18  C4  UNL     1       2.047  -1.235   0.163  1.00  0.00     0.032 C 
BRANCH  18  19
HETATM   19  C3  UNL     1       2.910  -0.239   0.822  1.00  0.00     0.271 C 
BRANCH  19  20
HETATM   20  N1  UNL     1       3.433   0.798  -0.003  1.00  0.00     0.080 N 
HETATM   21  C1  UNL     1       4.245   1.720   0.758  1.00  0.00     0.309 C 
HETATM   22  C2  UNL     1       4.051   0.371  -1.216  1.00  0.00     0.309 C 
ENDBRANCH  19  20
ENDBRANCH  18  19
ENDBRANCH  17  18
ENDBRANCH  16  17
ENDBRANCH  14  16
ENDBRANCH   1  14
BRANCH   4  23
HETATM   23  N4  UNL     1      -5.120   2.299  -1.132  1.00  0.00    -0.234 N 
ATOM     24  H42 UNL     1      -4.681   3.213  -1.248  1.00  0.00     0.174 HD
ATOM     25  H41 UNL     1      -6.108   2.155  -1.339  1.00  0.00     0.174 HD
ENDBRANCH   4  23
TORSDOF 7
