REMARK  1 active torsions:
REMARK  status: ('A' for Active; 'I' for Inactive)
REMARK    1  A    between atoms: C1_2  and  C2_4 
ROOT
HETATM    1  C2  UNL     1      -0.425   0.386  -0.076  1.00  0.00     0.150 C 
HETATM    2  S2  UNL     1       0.636   0.820  -1.481  1.00  0.00    -0.126 SA
HETATM    3  C3  UNL     1       2.328   0.880  -0.842  1.00  0.00     0.249 C 
HETATM    4  O1  UNL     1       2.273   0.453   0.511  1.00  0.00    -0.352 OA
HETATM    5  C4  UNL     1       1.513  -0.655   0.896  1.00  0.00     0.152 C 
HETATM    6  C5  UNL     1       0.221  -0.730   0.636  1.00  0.00     0.030 C 
HETATM    7 BR1  UNL     1      -0.831  -2.224   1.131  1.00  0.00    -0.052 Br
ENDROOT
BRANCH   1   8
HETATM    8  C1  UNL     1      -1.800   0.070  -0.508  1.00  0.00     0.109 C 
HETATM    9  N1  UNL     1      -2.754  -0.288   0.465  1.00  0.00    -0.093 NA
HETATM   10  S1  UNL     1      -2.141   0.153  -2.102  1.00  0.00    -0.067 SA
ENDBRANCH   1   8
TORSDOF 1
