REMARK  1 active torsions:
REMARK  status: ('A' for Active; 'I' for Inactive)
REMARK    1  A    between atoms: S1_2  and  C2_3 
ROOT
HETATM    1  C2  UNL     1       0.074   0.810   0.152  1.00  0.00     0.165 A 
HETATM    2 CL1  UNL     1       0.862   1.668   1.468  1.00  0.00    -0.083 Cl
HETATM    3  C3  UNL     1      -1.259   1.282  -0.294  1.00  0.00     0.135 A 
HETATM    4  C4  UNL     1      -1.773  -0.057   0.175  1.00  0.00     0.077 A 
HETATM    5  N1  UNL     1      -2.969  -0.519   0.177  1.00  0.00    -0.389 N 
ATOM      6  H11 UNL     1      -3.316  -1.424   0.494  1.00  0.00     0.157 HD
ATOM      7  H12 UNL     1      -3.901  -0.208  -0.099  1.00  0.00     0.157 HD
HETATM    8  N2  UNL     1      -0.483  -0.487   0.557  1.00  0.00    -0.349 N 
ATOM      9  H2  UNL     1      -0.097  -1.345   0.952  1.00  0.00     0.163 HD
ENDROOT
BRANCH   1  10
HETATM   10  S1  UNL     1       1.284   0.455  -1.180  1.00  0.00    -0.126 SA
HETATM   11  C1  UNL     1       2.477  -0.733  -0.478  1.00  0.00     0.093 C 
ENDBRANCH   1  10
TORSDOF 1
