REMARK  2 active torsions:
REMARK  status: ('A' for Active; 'I' for Inactive)
REMARK    1  A    between atoms: C2_2  and  C4_4 
REMARK    2  A    between atoms: C7_8  and  O1_9 
ROOT
HETATM    1  C4  UNL     1       0.016   0.227   0.466  1.00  0.00     0.137 C 
HETATM    2  C5  UNL     1       0.456  -1.032   1.134  1.00  0.00     0.106 C 
HETATM    3  S1  UNL     1       1.305  -2.169  -0.011  1.00  0.00    -0.162 SA
HETATM    4  C6  UNL     1       2.157  -1.048  -1.167  1.00  0.00     0.134 C 
HETATM    5  C7  UNL     1       2.157   0.293  -0.417  1.00  0.00     0.266 C 
HETATM    6  O2  UNL     1       0.875   0.761  -0.435  1.00  0.00    -0.354 OA
ENDROOT
BRANCH   1   7
HETATM    7  C2  UNL     1      -1.380   0.013  -0.125  1.00  0.00     0.007 C 
HETATM    8  C1  UNL     1      -2.371  -0.346   0.961  1.00  0.00     0.012 C 
HETATM    9  C3  UNL     1      -1.880   1.266  -0.805  1.00  0.00     0.012 C 
ENDBRANCH   1   7
BRANCH   5  10
HETATM   10  O1  UNL     1       3.035   1.186  -1.036  1.00  0.00    -0.370 OA
ATOM     11  H1  UNL     1       3.035   2.015  -0.572  1.00  0.00     0.212 HD
ENDBRANCH   5  10
TORSDOF 2
