REMARK  4 active torsions:
REMARK  status: ('A' for Active; 'I' for Inactive)
REMARK    1  A    between atoms: C2_2  and  C3_6 
REMARK    2  A    between atoms: C5_8  and  C6_9 
REMARK    3  A    between atoms: C8_13  and  C9_14 
REMARK    4  A    between atoms: C9_14  and  C10_15 
ROOT
HETATM    1  C6  UNL     1      -0.610  -0.914   0.899  1.00  0.00     0.124 C 
HETATM    2  C7  UNL     1       0.224  -2.176   1.056  1.00  0.00     0.150 C 
HETATM    3  N2  UNL     1       1.537  -1.599   1.306  1.00  0.00    -0.378 N 
ATOM      4  H2  UNL     1       2.301  -2.098   1.761  1.00  0.00     0.160 HD
HETATM    5  C8  UNL     1       1.619  -0.397   0.889  1.00  0.00     0.073 C 
HETATM    6  N3  UNL     1       0.378  -0.033   0.311  1.00  0.00    -0.370 N 
ATOM      7  H3  UNL     1       0.214   0.700  -0.379  1.00  0.00     0.161 HD
ENDROOT
BRANCH   1   8
HETATM    8  C5  UNL     1      -1.789  -1.122   0.061  1.00  0.00     0.008 C 
HETATM    9  C3  UNL     1      -2.769  -0.244   0.088  1.00  0.00    -0.042 C 
HETATM   10  C4  UNL     1      -2.692   0.957   0.961  1.00  0.00     0.050 C 
BRANCH   9  11
HETATM   11  C2  UNL     1      -3.956  -0.427  -0.737  1.00  0.00     0.004 C 
HETATM   12  C1  UNL     1      -5.062   0.538  -0.724  1.00  0.00     0.068 C 
HETATM   13  N1  UNL     1      -4.039  -1.461  -1.499  1.00  0.00    -0.402 N 
ATOM     14  H12 UNL     1      -4.870  -1.589  -2.077  1.00  0.00     0.156 HD
ATOM     15  H11 UNL     1      -3.270  -2.132  -1.508  1.00  0.00     0.156 HD
ENDBRANCH   9  11
ENDBRANCH   1   8
BRANCH   5  16
HETATM   16  C9  UNL     1       2.846   0.473   1.001  1.00  0.00     0.079 C 
BRANCH  16  17
HETATM   17  C10 UNL     1       3.280   0.869  -0.374  1.00  0.00    -0.016 C 
HETATM   18  C11 UNL     1       4.515   1.745  -0.275  1.00  0.00     0.010 C 
HETATM   19  C12 UNL     1       3.640  -0.326  -1.221  1.00  0.00     0.010 C 
ENDBRANCH  16  17
ENDBRANCH   5  16
TORSDOF 4
