REMARK  11 active torsions:
REMARK  status: ('A' for Active; 'I' for Inactive)
REMARK    1  A    between atoms: C3_3  and  C4_4 
REMARK    2  A    between atoms: C4_4  and  O1_5 
REMARK    3  A    between atoms: C4_4  and  O2_7 
REMARK    4  A    between atoms: O2_7  and  C5_8 
REMARK    5  A    between atoms: C5_8  and  C7_10 
REMARK    6  A    between atoms: C12_15  and  O3_16 
REMARK    7  A    between atoms: N1_18  and  C13_19 
REMARK    8  A    between atoms: C13_19  and  C14_20 
REMARK    9  A    between atoms: C15_21  and  C16_22 
REMARK   10  A    between atoms: C16_22  and  O4_23 
REMARK   11  A    between atoms: N2_25  and  O5_27 
ROOT
HETATM    1  C1  UNL     1       1.901   1.796   0.159  1.00  0.00     0.069 C 
HETATM    2  C2  UNL     1       1.392   0.427   0.491  1.00  0.00     0.021 A 
HETATM    3  C3  UNL     1       0.089   0.018   0.254  1.00  0.00     0.023 A 
HETATM    4  C11 UNL     1       0.050  -1.287   0.701  1.00  0.00     0.070 A 
HETATM    5  C12 UNL     1       1.298  -1.613   1.181  1.00  0.00     0.143 A 
HETATM    6  N1  UNL     1       2.101  -0.545   1.041  1.00  0.00    -0.328 N 
ENDROOT
BRANCH   3   7
HETATM    7  C4  UNL     1      -0.969   0.850  -0.364  1.00  0.00     0.293 C 
BRANCH   7   8
HETATM    8  O1  UNL     1      -0.295   1.444  -1.495  1.00  0.00    -0.367 OA
ATOM      9  H1  UNL     1      -0.974   1.978  -1.891  1.00  0.00     0.213 HD
ENDBRANCH   7   8
BRANCH   7  10
HETATM   10  O2  UNL     1      -2.035   0.213  -0.886  1.00  0.00    -0.351 OA
BRANCH  10  11
HETATM   11  C5  UNL     1      -3.278   0.724  -0.696  1.00  0.00     0.128 C 
HETATM   12  C6  UNL     1      -3.931   1.229  -1.969  1.00  0.00     0.040 C 
BRANCH  11  13
HETATM   13  C7  UNL     1      -4.150  -0.211   0.058  1.00  0.00    -0.025 C 
HETATM   14  C8  UNL     1      -3.622  -0.525   1.427  1.00  0.00     0.017 C 
HETATM   15  C9  UNL     1      -4.253  -1.502  -0.731  1.00  0.00     0.017 C 
HETATM   16  C10 UNL     1      -5.564   0.309   0.232  1.00  0.00     0.017 C 
ENDBRANCH  11  13
ENDBRANCH  10  11
ENDBRANCH   7  10
ENDBRANCH   3   7
BRANCH   6  17
HETATM   17  C13 UNL     1       3.520  -0.459   1.426  1.00  0.00     0.158 C 
BRANCH  17  18
HETATM   18  C14 UNL     1       4.398  -0.860   0.336  1.00  0.00    -0.002 C 
HETATM   19  C15 UNL     1       5.282  -0.022  -0.155  1.00  0.00     0.055 C 
BRANCH  19  20
HETATM   20  C16 UNL     1       6.166  -0.395  -1.239  1.00  0.00     0.159 C 
HETATM   21  N2  UNL     1       7.025   0.418  -1.718  1.00  0.00    -0.248 N 
ATOM     22  H2  UNL     1       7.636   0.130  -2.482  1.00  0.00     0.196 HD
BRANCH  20  23
HETATM   23  O4  UNL     1       6.076  -1.667  -1.769  1.00  0.00    -0.345 OA
ATOM     24  H4  UNL     1       6.656  -1.912  -2.480  1.00  0.00     0.219 HD
ENDBRANCH  20  23
BRANCH  21  25
HETATM   25  O5  UNL     1       7.120   1.691  -1.193  1.00  0.00    -0.288 OA
ATOM     26  H5  UNL     1       7.760   2.296  -1.550  1.00  0.00     0.244 HD
ENDBRANCH  21  25
ENDBRANCH  19  20
ENDBRANCH  17  18
ENDBRANCH   6  17
BRANCH   5  27
HETATM   27  O3  UNL     1       1.678  -2.835   1.722  1.00  0.00    -0.346 OA
ATOM     28  H3  UNL     1       2.539  -3.060   2.053  1.00  0.00     0.219 HD
ENDBRANCH   5  27
TORSDOF 11
