REMARK  20 active torsions:
REMARK  status: ('A' for Active; 'I' for Inactive)
REMARK    1  A    between atoms: O1_2  and  C2_3 
REMARK    2  A    between atoms: C3_5  and  C4_6 
REMARK    3  A    between atoms: C3_5  and  C11_26 
REMARK    4  A    between atoms: C4_6  and  C5_7 
REMARK    5  A    between atoms: C6_8  and  O3_9 
REMARK    6  A    between atoms: C7_11  and  O4_12 
REMARK    7  A    between atoms: C8_14  and  O5_15 
REMARK    8  A    between atoms: C9_17  and  O6_18 
REMARK    9  A    between atoms: C10_20  and  N1_21 
REMARK   10  A    between atoms: N1_21  and  O7_22 
REMARK   11  A    between atoms: N1_21  and  O8_24 
REMARK   12  A    between atoms: C11_26  and  O9_27 
REMARK   13  A    between atoms: C11_26  and  C12_29 
REMARK   14  A    between atoms: C12_29  and  O10_30 
REMARK   15  A    between atoms: C13_32  and  O11_33 
REMARK   16  A    between atoms: C16_38  and  O13_39 
REMARK   17  A    between atoms: O13_39  and  C17_40 
REMARK   18  A    between atoms: C19_43  and  O15_44 
REMARK   19  A    between atoms: C19_43  and  C20_46 
REMARK   20  A    between atoms: C20_46  and  O16_47 
ROOT
HETATM    1  C2  UNL     1      -2.220  -0.541   0.072  1.00  0.00     0.231 C 
HETATM    2  O2  UNL     1      -1.059  -0.580  -0.530  1.00  0.00    -0.329 OA
HETATM    3  C3  UNL     1       0.232  -0.662  -0.023  1.00  0.00     0.139 C 
HETATM    4  C13 UNL     1       0.028  -1.260   1.326  1.00  0.00     0.191 C 
HETATM    5  C14 UNL     1      -1.161  -0.788   2.121  1.00  0.00     0.195 C 
HETATM    6  O12 UNL     1      -1.272   0.538   2.368  1.00  0.00    -0.377 OA
HETATM    7  C15 UNL     1      -2.253   1.287   1.826  1.00  0.00     0.206 C 
HETATM    8  C16 UNL     1      -2.732   0.839   0.420  1.00  0.00     0.221 C 
HETATM    9  C19 UNL     1      -2.393  -1.263   1.418  1.00  0.00     0.166 C 
ENDROOT
BRANCH   3  10
HETATM   10  C4  UNL     1       0.921   0.618  -0.227  1.00  0.00     0.033 C 
BRANCH  10  11
HETATM   11  C5  UNL     1       2.280   0.994   0.113  1.00  0.00     0.028 A 
HETATM   12  C6  UNL     1       2.623   1.340   1.419  1.00  0.00     0.114 A 
HETATM   13  C7  UNL     1       3.917   1.669   1.777  1.00  0.00     0.136 A 
HETATM   14  C8  UNL     1       4.934   1.666   0.814  1.00  0.00     0.137 A 
HETATM   15  C9  UNL     1       4.617   1.338  -0.467  1.00  0.00     0.129 A 
HETATM   16  C10 UNL     1       3.302   1.006  -0.818  1.00  0.00     0.114 A 
BRANCH  12  17
HETATM   17  O3  UNL     1       1.680   1.388   2.443  1.00  0.00    -0.357 OA
ATOM     18  H3  UNL     1       1.914   1.624   3.333  1.00  0.00     0.217 HD
ENDBRANCH  12  17
BRANCH  13  19
HETATM   19  O4  UNL     1       4.235   2.003   3.077  1.00  0.00    -0.356 OA
ATOM     20  H4  UNL     1       5.124   2.229   3.323  1.00  0.00     0.218 HD
ENDBRANCH  13  19
BRANCH  14  21
HETATM   21  O5  UNL     1       6.213   2.004   1.238  1.00  0.00    -0.356 OA
ATOM     22  H5  UNL     1       6.903   2.002   0.585  1.00  0.00     0.218 HD
ENDBRANCH  14  21
BRANCH  15  23
HETATM   23  O6  UNL     1       5.644   1.346  -1.401  1.00  0.00    -0.356 OA
ATOM     24  H6  UNL     1       5.423   1.117  -2.296  1.00  0.00     0.218 HD
ENDBRANCH  15  23
BRANCH  16  25
HETATM   25  N1  UNL     1       3.164   0.797  -2.221  1.00  0.00    -0.033 NA
BRANCH  25  26
HETATM   26  O7  UNL     1       3.869   1.827  -2.858  1.00  0.00    -0.284 OA
ATOM     27  H7  UNL     1       3.777   1.688  -3.793  1.00  0.00     0.240 HD
ENDBRANCH  25  26
BRANCH  25  28
HETATM   28  O8  UNL     1       3.815  -0.313  -2.635  1.00  0.00    -0.284 OA
ATOM     29  H8  UNL     1       3.723  -0.452  -3.570  1.00  0.00     0.240 HD
ENDBRANCH  25  28
ENDBRANCH  16  25
ENDBRANCH  10  11
ENDBRANCH   3  10
BRANCH   3  30
HETATM   30  C11 UNL     1       0.850  -1.714  -0.943  1.00  0.00     0.183 C 
BRANCH  30  31
HETATM   31  O9  UNL     1       0.692  -1.425  -2.303  1.00  0.00    -0.390 OA
ATOM     32  H9  UNL     1       1.076  -2.079  -2.875  1.00  0.00     0.210 HD
ENDBRANCH  30  31
BRANCH  30  33
HETATM   33  C12 UNL     1       0.596  -3.136  -0.782  1.00  0.00     0.199 C 
BRANCH  33  34
HETATM   34  O10 UNL     1      -0.637  -3.592  -1.271  1.00  0.00    -0.398 OA
ATOM     35  H10 UNL     1      -0.803  -4.521  -1.166  1.00  0.00     0.209 HD
ENDBRANCH  33  34
ENDBRANCH  30  33
ENDBRANCH   3  30
BRANCH   4  36
HETATM   36  O11 UNL     1       1.079  -1.614   2.089  1.00  0.00    -0.389 OA
ATOM     37  H11 UNL     1       0.949  -1.995   2.949  1.00  0.00     0.210 HD
ENDBRANCH   4  36
BRANCH   1  38
HETATM   38  O1  UNL     1      -3.129  -1.216  -0.720  1.00  0.00    -0.355 OA
HETATM   39  C1  UNL     1      -3.387  -0.859  -1.975  1.00  0.00     0.205 C 
ENDBRANCH   1  38
BRANCH   8  40
HETATM   40  O13 UNL     1      -2.414   1.849  -0.502  1.00  0.00    -0.308 OA
BRANCH  40  41
HETATM   41  C17 UNL     1      -3.347   2.726  -0.961  1.00  0.00     0.255 C 
HETATM   42  C18 UNL     1      -2.928   3.771  -1.939  1.00  0.00     0.126 C 
HETATM   43  O14 UNL     1      -4.532   2.680  -0.589  1.00  0.00    -0.266 OA
ENDBRANCH  40  41
ENDBRANCH   8  40
BRANCH   9  44
HETATM   44  O15 UNL     1      -3.577  -0.706   2.024  1.00  0.00    -0.379 OA
ATOM     45  H15 UNL     1      -3.684  -1.152   2.856  1.00  0.00     0.211 HD
ENDBRANCH   9  44
BRANCH   9  46
HETATM   46  C20 UNL     1      -2.709  -2.686   1.420  1.00  0.00     0.210 C 
BRANCH  46  47
HETATM   47  O16 UNL     1      -3.877  -2.929   0.653  1.00  0.00    -0.398 OA
ATOM     48  H16 UNL     1      -4.083  -3.856   0.654  1.00  0.00     0.209 HD
ENDBRANCH  46  47
ENDBRANCH   9  46
TORSDOF 20
