REMARK  12 active torsions:
REMARK  status: ('A' for Active; 'I' for Inactive)
REMARK    1  A    between atoms: C2_5  and  C3_6 
REMARK       I    between atoms: C3_6  and  N2_8 
REMARK    2  A    between atoms: N2_8  and  N3_9 
REMARK    3  A    between atoms: N3_9  and  C4_11 
REMARK    4  A    between atoms: C4_11  and  N4_12 
REMARK    5  A    between atoms: C4_11  and  C5_16 
REMARK    6  A    between atoms: C5_16  and  O2_17 
REMARK    7  A    between atoms: N6_23  and  C9_24 
REMARK    8  A    between atoms: C10_30  and  C11_31 
REMARK    9  A    between atoms: C12_35  and  C13_36 
REMARK   10  A    between atoms: C15_42  and  O6_43 
REMARK   11  A    between atoms: C16_45  and  O7_46 
REMARK   12  A    between atoms: C17_48  and  O8_49 
ROOT
HETATM    1  N1  UNL     1       1.352   1.515   1.005  1.00  0.00    -0.384 N 
ATOM      2  H11 UNL     1       0.732   1.962   1.680  1.00  0.00     0.157 HD
ATOM      3  H12 UNL     1       2.282   1.889   0.815  1.00  0.00     0.157 HD
HETATM    4  C1  UNL     1       1.020   0.476   0.328  1.00  0.00     0.126 A 
HETATM    5  C2  UNL     1       1.852  -0.123  -0.578  1.00  0.00     0.119 A 
HETATM    6  C6  UNL     1       1.431  -1.271  -1.265  1.00  0.00     0.095 A 
HETATM    7  N5  UNL     1       2.284  -1.873  -2.197  1.00  0.00    -0.099 NA
HETATM    8  C7  UNL     1       0.160  -1.758  -0.986  1.00  0.00     0.078 A 
HETATM    9  C8  UNL     1      -0.661  -1.138  -0.067  1.00  0.00     0.057 A 
HETATM   10  N6  UNL     1      -0.225  -0.025   0.582  1.00  0.00    -0.280 N 
HETATM   11  C14 UNL     1      -1.908  -1.884   0.008  1.00  0.00     0.095 C 
HETATM   12  C15 UNL     1      -2.039  -2.904   1.084  1.00  0.00     0.161 C 
HETATM   13  C16 UNL     1      -3.067  -3.862   0.488  1.00  0.00     0.178 C 
HETATM   14  C17 UNL     1      -2.533  -4.065  -0.908  1.00  0.00     0.172 C 
HETATM   15  C18 UNL     1      -1.896  -2.738  -1.277  1.00  0.00     0.125 C 
HETATM   16  N12 UNL     1      -0.482  -2.907  -1.553  1.00  0.00    -0.379 N 
ATOM     17  H12 UNL     1      -0.038  -3.681  -2.047  1.00  0.00     0.160 HD
ENDROOT
BRANCH  10  18
HETATM   18  C9  UNL     1      -1.058   0.625   1.505  1.00  0.00     0.168 A 
HETATM   19  N7  UNL     1      -0.971   0.540   2.866  1.00  0.00    -0.223 N 
HETATM   20  O3  UNL     1      -1.877   1.241   3.419  1.00  0.00    -0.155 OA
ATOM     21  H7  UNL     1      -0.275  -0.010   3.369  1.00  0.00     0.198 HD
HETATM   22  N8  UNL     1      -2.590   1.809   2.494  1.00  0.00    -0.234 N 
HETATM   23  C10 UNL     1      -2.111   1.452   1.267  1.00  0.00     0.148 A 
ATOM     24  H8  UNL     1      -3.385   2.426   2.659  1.00  0.00     0.197 HD
BRANCH  23  25
HETATM   25  C11 UNL     1      -2.646   1.863  -0.020  1.00  0.00     0.161 A 
HETATM   26  N9  UNL     1      -2.194   1.614  -1.253  1.00  0.00    -0.240 N 
HETATM   27  O4  UNL     1      -2.977   2.134  -2.145  1.00  0.00    -0.212 OA
ATOM     28  H9  UNL     1      -1.347   1.086  -1.463  1.00  0.00     0.196 HD
HETATM   29  C12 UNL     1      -3.981   2.749  -1.561  1.00  0.00     0.237 A 
HETATM   30  N11 UNL     1      -3.788   2.588  -0.223  1.00  0.00    -0.314 N 
ATOM     31  H11 UNL     1      -4.397   2.950   0.511  1.00  0.00     0.170 HD
BRANCH  29  32
HETATM   32  C13 UNL     1      -5.094   3.468  -2.163  1.00  0.00     0.308 C 
HETATM   33  N10 UNL     1      -6.178   3.979  -1.429  1.00  0.00    -0.054 NA
HETATM   34  O5  UNL     1      -5.058   3.628  -3.409  1.00  0.00    -0.267 OA
ENDBRANCH  29  32
ENDBRANCH  23  25
ENDBRANCH  10  18
BRANCH   5  35
HETATM   35  C3  UNL     1       3.193   0.346  -0.862  1.00  0.00     0.351 C 
HETATM   36  O1  UNL     1       3.848  -0.299  -1.708  1.00  0.00    -0.249 OA
HETATM   37  N2  UNL     1       3.737   1.480  -0.202  1.00  0.00    -0.284 NA
BRANCH  37  38
HETATM   38  N3  UNL     1       4.218   2.469   0.371  1.00  0.00    -0.235 N 
ATOM     39  H3  UNL     1       3.562   3.206   0.627  1.00  0.00     0.197 HD
BRANCH  38  40
HETATM   40  C4  UNL     1       5.586   2.693   0.713  1.00  0.00     0.331 C 
BRANCH  40  41
HETATM   41  N4  UNL     1       6.424   2.662  -0.446  1.00  0.00    -0.054 N 
ATOM     42  H43 UNL     1       6.306   1.795  -0.970  1.00  0.00     0.277 HD
ATOM     43  H42 UNL     1       6.104   3.319  -1.157  1.00  0.00     0.277 HD
ATOM     44  H41 UNL     1       7.401   2.822  -0.202  1.00  0.00     0.277 HD
ENDBRANCH  40  41
BRANCH  40  45
HETATM   45  C5  UNL     1       6.057   1.678   1.770  1.00  0.00     0.220 C 
BRANCH  45  46
HETATM   46  O2  UNL     1       5.350   1.744   2.941  1.00  0.00    -0.397 OA
ATOM     47  H2  UNL     1       5.641   1.118   3.593  1.00  0.00     0.209 HD
ENDBRANCH  45  46
ENDBRANCH  40  45
ENDBRANCH  38  40
ENDBRANCH  37  38
ENDBRANCH   5  35
BRANCH  12  48
HETATM   48  O6  UNL     1      -2.634  -2.379   2.213  1.00  0.00    -0.392 OA
ATOM     49  H6  UNL     1      -2.718  -3.030   2.900  1.00  0.00     0.210 HD
ENDBRANCH  12  48
BRANCH  13  50
HETATM   50  O7  UNL     1      -3.185  -5.009   1.226  1.00  0.00    -0.390 OA
ATOM     51  H7  UNL     1      -3.825  -5.605   0.855  1.00  0.00     0.210 HD
ENDBRANCH  13  50
BRANCH  14  52
HETATM   52  O8  UNL     1      -3.613  -4.262  -1.759  1.00  0.00    -0.391 OA
ATOM     53  H8  UNL     1      -3.277  -4.390  -2.638  1.00  0.00     0.210 HD
ENDBRANCH  14  52
TORSDOF 12
