REMARK  15 active torsions:
REMARK  status: ('A' for Active; 'I' for Inactive)
REMARK    1  A    between atoms: N1_2  and  C2_3 
REMARK    2  A    between atoms: N1_2  and  C8_18 
REMARK    3  A    between atoms: C2_3  and  C3_4 
REMARK    4  A    between atoms: C3_4  and  N2_5 
REMARK    5  A    between atoms: N2_5  and  C4_6 
REMARK    6  A    between atoms: N2_5  and  C5_9 
REMARK    7  A    between atoms: C4_6  and  O1_7 
REMARK    8  A    between atoms: C5_9  and  C6_10 
REMARK    9  A    between atoms: C6_10  and  N3_11 
REMARK       I    between atoms: N3_11  and  C7_13 
REMARK   10  A    between atoms: C8_18  and  C9_19 
REMARK   11  A    between atoms: C9_19  and  O2_20 
REMARK   12  A    between atoms: C9_19  and  C10_22 
REMARK   13  A    between atoms: C10_22  and  O3_23 
REMARK   14  A    between atoms: O3_23  and  C11_24 
REMARK   15  A    between atoms: C11_24  and  C12_25 
ROOT
HETATM    1  C1  UNL     1      -0.724   1.633  -0.935  1.00  0.00     0.148 C 
HETATM    2  N1  UNL     1      -0.344   0.450  -0.252  1.00  0.00    -0.393 N 
ENDROOT
BRANCH   2   3
HETATM    3  C2  UNL     1      -0.656  -0.789  -0.818  1.00  0.00     0.088 C 
BRANCH   3   4
HETATM    4  C3  UNL     1      -2.026  -1.295  -0.870  1.00  0.00     0.319 C 
BRANCH   4   5
HETATM    5  N2  UNL     1      -2.618  -1.511   0.417  1.00  0.00     0.117 N 
BRANCH   5   6
HETATM    6  C4  UNL     1      -3.668  -2.519   0.358  1.00  0.00     0.438 C 
BRANCH   6   7
HETATM    7  O1  UNL     1      -4.069  -2.785   1.658  1.00  0.00    -0.373 OA
ATOM      8  H1  UNL     1      -4.754  -3.442   1.620  1.00  0.00     0.211 HD
ENDBRANCH   6   7
ENDBRANCH   5   6
BRANCH   5   9
HETATM    9  C5  UNL     1      -3.040  -0.360   1.125  1.00  0.00     0.295 C 
BRANCH   9  10
HETATM   10  C6  UNL     1      -4.148   0.474   0.634  1.00  0.00     0.152 C 
BRANCH  10  11
HETATM   11  N3  UNL     1      -5.468  -0.025   0.545  1.00  0.00    -0.363 N 
HETATM   12  C7  UNL     1      -6.517   0.745  -0.114  1.00  0.00     0.181 C 
HETATM   13  N4  UNL     1      -7.141   1.687   0.515  1.00  0.00    -0.374 N 
HETATM   14  N5  UNL     1      -6.826   0.434  -1.454  1.00  0.00    -0.064 NA
ATOM     15  H42 UNL     1      -6.917   1.912   1.484  1.00  0.00     0.158 HD
ATOM     16  H41 UNL     1      -7.875   2.225   0.054  1.00  0.00     0.158 HD
ATOM     17  H3  UNL     1      -5.690  -0.936   0.947  1.00  0.00     0.162 HD
ENDBRANCH  10  11
ENDBRANCH   9  10
ENDBRANCH   5   9
ENDBRANCH   4   5
ENDBRANCH   3   4
ENDBRANCH   2   3
BRANCH   2  18
HETATM   18  C8  UNL     1       1.001   0.510   0.300  1.00  0.00     0.155 C 
BRANCH  18  19
HETATM   19  C9  UNL     1       2.068   0.534  -0.759  1.00  0.00     0.159 C 
BRANCH  19  20
HETATM   20  O2  UNL     1       1.818   1.688  -1.546  1.00  0.00    -0.392 OA
ATOM     21  H2  UNL     1       2.492   1.703  -2.215  1.00  0.00     0.210 HD
ENDBRANCH  19  20
BRANCH  19  22
HETATM   22  C10 UNL     1       3.439   0.855  -0.126  1.00  0.00     0.201 C 
BRANCH  22  23
HETATM   23  O3  UNL     1       4.328   1.093  -1.149  1.00  0.00    -0.383 OA
BRANCH  23  24
HETATM   24  C11 UNL     1       5.612   1.419  -0.778  1.00  0.00     0.224 C 
BRANCH  24  25
HETATM   25  C12 UNL     1       6.250   0.291  -0.055  1.00  0.00     0.033 A 
HETATM   26  C13 UNL     1       7.333   0.419   0.809  1.00  0.00     0.028 A 
HETATM   27  C14 UNL     1       7.632  -0.846   1.254  1.00  0.00     0.019 A 
HETATM   28  C15 UNL     1       6.758  -1.739   0.681  1.00  0.00     0.088 A 
HETATM   29  N6  UNL     1       5.954  -1.002  -0.092  1.00  0.00    -0.367 N 
ATOM     30  H6  UNL     1       5.195  -1.392  -0.650  1.00  0.00     0.165 HD
ENDBRANCH  24  25
ENDBRANCH  23  24
ENDBRANCH  22  23
ENDBRANCH  19  22
ENDBRANCH  18  19
ENDBRANCH   2  18
TORSDOF 15
