REMARK  5 active torsions:
REMARK  status: ('A' for Active; 'I' for Inactive)
REMARK       I    between atoms: C2_4  and  N2_5 
REMARK       I    between atoms: C2_4  and  N4_14 
REMARK    1  A    between atoms: N2_5  and  C3_7 
REMARK    2  A    between atoms: N4_14  and  C8_16 
REMARK    3  A    between atoms: C9_19  and  C10_20 
REMARK    4  A    between atoms: C10_20  and  C12_25 
REMARK    5  A    between atoms: N6_21  and  O1_23 
ROOT
HETATM    1  C8  UNL     1       0.433  -0.278   0.233  1.00  0.00     0.164 A 
HETATM    2  N5  UNL     1      -0.741   0.318   0.251  1.00  0.00    -0.334 N 
ATOM      3  H5  UNL     1      -0.794   1.331   0.144  1.00  0.00     0.168 HD
HETATM    4  C9  UNL     1      -1.831  -0.370   0.403  1.00  0.00     0.070 A 
HETATM    5  C18 UNL     1      -1.695  -1.728   0.544  1.00  0.00     0.085 A 
HETATM    6  S1  UNL     1       0.013  -1.919   0.443  1.00  0.00    -0.063 SA
ENDROOT
BRANCH   1   7
HETATM    7  N4  UNL     1       1.736   0.293   0.078  1.00  0.00    -0.170 N 
HETATM    8  C2  UNL     1       2.866  -0.547   0.090  1.00  0.00     0.681 C 
HETATM    9  N1  UNL     1       2.816  -1.671  -0.525  1.00  0.00    -0.230 N 
HETATM   10  N2  UNL     1       4.041  -0.157   0.769  1.00  0.00    -0.177 N 
HETATM   11  C1  UNL     1       3.908  -2.611  -0.582  1.00  0.00     0.165 C 
ATOM     12  H1  UNL     1       1.949  -1.916  -1.004  1.00  0.00     0.177 HD
ATOM     13  H2  UNL     1       4.121  -0.357   1.766  1.00  0.00     0.186 HD
ATOM     14  H4  UNL     1       1.845   1.300  -0.040  1.00  0.00     0.186 HD
BRANCH  10  15
HETATM   15  C3  UNL     1       5.018   0.443   0.176  1.00  0.00     0.120 A 
HETATM   16  C4  UNL     1       6.127   0.780   0.947  1.00  0.00     0.049 A 
HETATM   17  C5  UNL     1       7.205   1.420   0.383  1.00  0.00     0.005 A 
HETATM   18  C6  UNL     1       7.151   1.716  -0.963  1.00  0.00     0.017 A 
HETATM   19  C7  UNL     1       6.040   1.368  -1.691  1.00  0.00     0.089 A 
HETATM   20  N3  UNL     1       4.993   0.741  -1.125  1.00  0.00    -0.352 N 
ATOM     21  H3  UNL     1       4.180   0.493  -1.690  1.00  0.00     0.166 HD
ENDBRANCH  10  15
ENDBRANCH   1   7
BRANCH   4  22
HETATM   22  C10 UNL     1      -3.170   0.291   0.593  1.00  0.00     0.093 C 
HETATM   23  N6  UNL     1      -3.146   1.445   1.130  1.00  0.00    -0.264 N 
ATOM     24  H6  UNL     1      -2.189   1.724   1.345  1.00  0.00     0.194 HD
BRANCH  23  25
HETATM   25  O1  UNL     1      -3.987   2.372   1.484  1.00  0.00    -0.285 OA
HETATM   26  C11 UNL     1      -4.407   3.453   0.673  1.00  0.00     0.237 C 
ENDBRANCH  23  25
BRANCH  22  27
HETATM   27  C12 UNL     1      -4.420  -0.353   0.298  1.00  0.00     0.017 A 
HETATM   28  C13 UNL     1      -5.510  -0.085   1.168  1.00  0.00     0.015 A 
HETATM   29  C14 UNL     1      -6.673  -0.811   1.083  1.00  0.00     0.001 A 
HETATM   30  C15 UNL     1      -6.870  -1.820   0.179  1.00  0.00     0.002 A 
HETATM   31  C16 UNL     1      -5.835  -2.100  -0.677  1.00  0.00     0.025 A 
HETATM   32  C17 UNL     1      -4.658  -1.360  -0.590  1.00  0.00     0.046 A 
HETATM   33 CL1  UNL     1      -3.473  -1.609  -1.897  1.00  0.00    -0.083 Cl
ENDBRANCH  22  27
ENDBRANCH   4  22
TORSDOF 5
