REMARK  6 active torsions:
REMARK  status: ('A' for Active; 'I' for Inactive)
REMARK    1  A    between atoms: O1_1  and  C1_3 
REMARK    2  A    between atoms: C1_3  and  C2_4 
REMARK    3  A    between atoms: C3_6  and  N1_7 
REMARK    4  A    between atoms: C7_13  and  O3_14 
REMARK    5  A    between atoms: C8_16  and  O4_17 
REMARK    6  A    between atoms: C9_19  and  O5_20 
ROOT
HETATM    1  C2  UNL     1      -1.232   1.134  -0.453  1.00  0.00     0.179 C 
HETATM    2  O2  UNL     1      -0.039   1.067   0.135  1.00  0.00    -0.352 OA
HETATM    3  C3  UNL     1       0.527  -0.107   0.460  1.00  0.00     0.275 C 
HETATM    4  C7  UNL     1       0.078  -1.332  -0.235  1.00  0.00     0.200 C 
HETATM    5  C8  UNL     1      -1.083  -1.138  -1.172  1.00  0.00     0.182 C 
HETATM    6  C9  UNL     1      -2.010  -0.149  -0.453  1.00  0.00     0.180 C 
ENDROOT
BRANCH   3   7
HETATM    7  N1  UNL     1       1.986   0.064   0.354  1.00  0.00    -0.272 N 
HETATM    8  C4  UNL     1       2.940  -0.532   1.094  1.00  0.00     0.114 A 
HETATM    9  C5  UNL     1       4.195  -0.092   0.667  1.00  0.00     0.037 A 
HETATM   10  C6  UNL     1       3.939   0.782  -0.347  1.00  0.00     0.108 A 
HETATM   11  N2  UNL     1       2.610   0.858  -0.516  1.00  0.00    -0.308 N 
ATOM     12  H2  UNL     1       2.144   1.441  -1.211  1.00  0.00     0.186 HD
ENDBRANCH   3   7
BRANCH   4  13
HETATM   13  O3  UNL     1      -0.360  -2.334   0.667  1.00  0.00    -0.388 OA
ATOM     14  H3  UNL     1      -0.649  -3.121   0.220  1.00  0.00     0.210 HD
ENDBRANCH   4  13
BRANCH   1  15
HETATM   15  C1  UNL     1      -2.043   2.269   0.185  1.00  0.00     0.198 C 
BRANCH  15  16
HETATM   16  O1  UNL     1      -2.206   2.020   1.545  1.00  0.00    -0.398 OA
ATOM     17  H1  UNL     1      -2.708   2.723   1.940  1.00  0.00     0.209 HD
ENDBRANCH  15  16
ENDBRANCH   1  15
BRANCH   5  18
HETATM   18  O4  UNL     1      -1.714  -2.307  -1.495  1.00  0.00    -0.390 OA
ATOM     19  H4  UNL     1      -2.447  -2.185  -2.087  1.00  0.00     0.210 HD
ENDBRANCH   5  18
BRANCH   6  20
HETATM   20  O5  UNL     1      -2.116  -0.573   0.886  1.00  0.00    -0.390 OA
ATOM     21  H5  UNL     1      -2.609  -1.385   0.886  1.00  0.00     0.210 HD
ENDBRANCH   6  20
TORSDOF 6
