REMARK  2 active torsions:
REMARK  status: ('A' for Active; 'I' for Inactive)
REMARK    1  A    between atoms: C3_4  and  C4_5 
REMARK    2  A    between atoms: C8_9  and  N2_10 
REMARK       I    between atoms: N2_10  and  C9_12 
ROOT
HETATM    1  C1  UNL     1      -0.979   2.265   3.120  1.00  0.00     0.221 C 
HETATM    2  N1  UNL     1      -1.281   2.063   2.018  1.00  0.00    -0.465 NA
HETATM    3  C2  UNL     1      -1.635   1.810   0.671  1.00  0.00     0.178 A 
HETATM    4  C3  UNL     1      -2.144   0.493   0.305  1.00  0.00     0.042 A 
HETATM    5  C4  UNL     1      -2.115  -0.151  -1.026  1.00  0.00     0.003 C 
HETATM    6  C5  UNL     1      -1.230  -1.395  -1.021  1.00  0.00    -0.003 C 
HETATM    7  C6  UNL     1      -0.917  -1.967   0.318  1.00  0.00     0.008 C 
HETATM    8  C7  UNL     1       0.057  -1.038   1.005  1.00  0.00     0.033 C 
HETATM    9  C8  UNL     1       0.307   0.115   0.070  1.00  0.00     0.050 C 
HETATM   10  C10 UNL     1      -0.053  -0.500  -1.270  1.00  0.00     0.024 C 
HETATM   11  C11 UNL     1      -0.949   0.606  -1.521  1.00  0.00     0.012 C 
HETATM   12  C12 UNL     1      -0.755   1.085  -0.135  1.00  0.00     0.029 A 
ENDROOT
BRANCH   9  13
HETATM   13  N2  UNL     1       1.630   0.698   0.106  1.00  0.00    -0.335 N 
HETATM   14  C9  UNL     1       2.806  -0.028  -0.188  1.00  0.00     0.329 C 
HETATM   15  N3  UNL     1       4.060   0.629  -0.126  1.00  0.00    -0.040 NA
HETATM   16  O1  UNL     1       2.777  -1.241  -0.503  1.00  0.00    -0.251 OA
ATOM     17  H2  UNL     1       1.719   1.683   0.356  1.00  0.00     0.164 HD
ENDBRANCH   9  13
TORSDOF 2
