REMARK  0 active torsions:
REMARK  status: ('A' for Active; 'I' for Inactive)
ROOT
HETATM    1  C1  UNL     1      -3.377  -0.226  -0.432  1.00  0.00     0.016 C 
HETATM    2  C2  UNL     1      -1.924  -0.027   0.025  1.00  0.00    -0.031 C 
HETATM    3  C3  UNL     1      -1.985   0.755   1.332  1.00  0.00     0.016 C 
HETATM    4  C4  UNL     1      -1.205   0.710  -1.041  1.00  0.00     0.012 C 
HETATM    5  C5  UNL     1       0.209   0.346  -1.254  1.00  0.00     0.032 C 
HETATM    6  C6  UNL     1       0.898  -0.344  -0.140  1.00  0.00     0.097 C 
HETATM    7  C7  UNL     1       0.098  -1.414   0.537  1.00  0.00     0.052 C 
HETATM    8  C8  UNL     1      -1.353  -1.395   0.227  1.00  0.00     0.092 C 
HETATM    9 CL1  UNL     1      -2.254  -2.216   1.540  1.00  0.00    -0.124 Cl
HETATM   10  S1  UNL     1       1.493   0.837   1.134  1.00  0.00    -0.146 SA
HETATM   11  C9  UNL     1       3.312   0.882   0.927  1.00  0.00     0.102 C 
HETATM   12  C10 UNL     1       3.543   1.045  -0.582  1.00  0.00     0.189 C 
HETATM   13  O1  UNL     1       3.070  -0.131  -1.249  1.00  0.00    -0.319 OA
HETATM   14  C11 UNL     1       2.132  -0.982  -0.687  1.00  0.00     0.278 C 
HETATM   15  O2  UNL     1       2.311  -2.244  -0.639  1.00  0.00    -0.263 OA
ENDROOT
TORSDOF 0
