REMARK  5 active torsions:
REMARK  status: ('A' for Active; 'I' for Inactive)
REMARK    1  A    between atoms: C2_2  and  C3_3 
REMARK    2  A    between atoms: C3_3  and  N1_4 
REMARK    3  A    between atoms: C4_5  and  C5_6 
REMARK    4  A    between atoms: C7_8  and  N2_9 
REMARK    5  A    between atoms: C16_23  and  C17_24 
ROOT
HETATM    1  C5  UNL     1       2.176   1.410   0.092  1.00  0.00     0.083 A 
HETATM    2  C6  UNL     1       1.080   0.677  -0.237  1.00  0.00     0.082 A 
HETATM    3  C7  UNL     1      -0.143   1.323  -0.501  1.00  0.00     0.106 A 
HETATM    4  N4  UNL     1      -0.208   2.648  -0.424  1.00  0.00    -0.332 N 
ATOM      5  H4  UNL     1      -1.096   3.111  -0.617  1.00  0.00     0.168 HD
HETATM    6  C16 UNL     1       0.870   3.405  -0.097  1.00  0.00     0.087 A 
HETATM    7  N5  UNL     1       2.022   2.775   0.150  1.00  0.00    -0.342 N 
ATOM      8  H5  UNL     1       2.835   3.340   0.396  1.00  0.00     0.167 HD
ENDROOT
BRANCH   3   9
HETATM    9  N2  UNL     1      -1.236   0.482  -0.838  1.00  0.00    -0.366 N 
HETATM   10  C8  UNL     1      -2.559   1.029  -1.137  1.00  0.00     0.125 C 
HETATM   11  C9  UNL     1      -3.488   0.035  -0.508  1.00  0.00     0.031 C 
HETATM   12  C10 UNL     1      -2.762  -1.271  -0.650  1.00  0.00    -0.020 C 
HETATM   13  C11 UNL     1      -3.398  -2.058  -1.769  1.00  0.00     0.039 C 
HETATM   14  C14 UNL     1      -2.812  -2.046   0.643  1.00  0.00     0.039 C 
HETATM   15  C15 UNL     1      -1.314  -0.941  -0.955  1.00  0.00     0.134 C 
HETATM   16  C12 UNL     1      -4.759  -2.521  -1.350  1.00  0.00     0.233 C 
HETATM   17  N3  UNL     1      -4.755  -3.222  -0.088  1.00  0.00    -0.075 N 
HETATM   18  C13 UNL     1      -4.236  -2.366   0.961  1.00  0.00     0.233 C 
ATOM     19  H32 UNL     1      -5.676  -3.593   0.144  1.00  0.00     0.277 HD
ATOM     20  H31 UNL     1      -4.247  -4.105  -0.145  1.00  0.00     0.277 HD
ENDBRANCH   3   9
BRANCH   1  21
HETATM   21  C4  UNL     1       3.511   0.916   0.401  1.00  0.00     0.151 A 
HETATM   22  N1  UNL     1       4.040  -0.303   0.443  1.00  0.00    -0.306 N 
HETATM   23  C20 UNL     1       5.371  -0.164   0.796  1.00  0.00     0.194 A 
HETATM   24  N7  UNL     1       5.630   1.125   0.961  1.00  0.00    -0.274 N 
HETATM   25  S1  UNL     1       6.398  -1.419   0.967  1.00  0.00    -0.039 SA
HETATM   26  N6  UNL     1       4.542   1.777   0.732  1.00  0.00    -0.281 N 
ATOM     27  H7  UNL     1       6.529   1.529   1.222  1.00  0.00     0.189 HD
ATOM     28  H6  UNL     1       4.453   2.792   0.787  1.00  0.00     0.188 HD
BRANCH  22  29
HETATM   29  C3  UNL     1       3.397  -1.548   0.181  1.00  0.00     0.133 C 
BRANCH  29  30
HETATM   30  C2  UNL     1       2.787  -2.189   1.423  1.00  0.00     0.016 C 
HETATM   31  C1  UNL     1       2.122  -3.503   1.079  1.00  0.00     0.006 C 
ENDBRANCH  29  30
ENDBRANCH  22  29
ENDBRANCH   1  21
BRANCH   6  32
HETATM   32  C17 UNL     1       0.756   4.889  -0.021  1.00  0.00     0.053 A 
HETATM   33  C18 UNL     1       1.511   5.651   0.996  1.00  0.00     0.013 A 
HETATM   34  C19 UNL     1       1.873   5.745  -0.487  1.00  0.00     0.013 A 
ENDBRANCH   6  32
TORSDOF 5
