REMARK  11 active torsions:
REMARK  status: ('A' for Active; 'I' for Inactive)
REMARK    1  A    between atoms: C2_2  and  O1_3 
REMARK    2  A    between atoms: O1_3  and  C3_4 
REMARK    3  A    between atoms: C4_9  and  N3_10 
REMARK    4  A    between atoms: N3_10  and  N4_12 
REMARK    5  A    between atoms: C5_15  and  N5_16 
REMARK    6  A    between atoms: C6_19  and  C7_20 
REMARK    7  A    between atoms: C7_20  and  O4_21 
REMARK    8  A    between atoms: C7_20  and  C8_23 
REMARK    9  A    between atoms: C8_23  and  N6_24 
REMARK   10  A    between atoms: C9_29  and  C10_30 
REMARK   11  A    between atoms: C12_35  and  N11_36 
ROOT
HETATM    1  N6  UNL     1       0.754   1.355   0.354  1.00  0.00    -0.212 N 
HETATM    2  N7  UNL     1       0.996   1.783  -0.853  1.00  0.00    -0.224 N 
ATOM      3  H7  UNL     1       0.357   2.358  -1.401  1.00  0.00     0.210 HD
HETATM    4  N8  UNL     1       2.181   1.372  -1.273  1.00  0.00    -0.268 N 
ATOM      5  H8  UNL     1       2.602   1.573  -2.180  1.00  0.00     0.190 HD
HETATM    6  C9  UNL     1       2.739   0.630  -0.272  1.00  0.00     0.154 A 
HETATM    7  N14 UNL     1       1.817   0.652   0.707  1.00  0.00    -0.265 N 
ATOM      8  H14 UNL     1       1.924   0.185   1.608  1.00  0.00     0.190 HD
ENDROOT
BRANCH   1   9
HETATM    9  C8  UNL     1      -0.405   1.528   1.243  1.00  0.00     0.236 C 
BRANCH   9  10
HETATM   10  C7  UNL     1      -1.361   0.454   1.052  1.00  0.00     0.081 C 
BRANCH  10  11
HETATM   11  C6  UNL     1      -2.669   0.371   0.527  1.00  0.00     0.084 A 
HETATM   12  C3  UNL     1      -3.290  -0.895   0.494  1.00  0.00     0.172 A 
HETATM   13  N1  UNL     1      -4.537  -1.040   0.028  1.00  0.00    -0.278 N 
HETATM   14  N2  UNL     1      -5.250  -0.034  -0.422  1.00  0.00    -0.280 N 
ATOM     15  H1  UNL     1      -4.951  -1.972   0.022  1.00  0.00     0.189 HD
HETATM   16  C4  UNL     1      -4.739   1.230  -0.433  1.00  0.00     0.169 A 
ATOM     17  H2  UNL     1      -6.196  -0.199  -0.767  1.00  0.00     0.188 HD
HETATM   18  C5  UNL     1      -3.431   1.394   0.056  1.00  0.00     0.166 A 
BRANCH  12  19
HETATM   19  O1  UNL     1      -2.643  -2.044   0.941  1.00  0.00    -0.334 OA
BRANCH  19  20
HETATM   20  C2  UNL     1      -3.267  -3.311   0.907  1.00  0.00     0.173 C 
HETATM   21  C1  UNL     1      -3.656  -3.723  -0.484  1.00  0.00     0.034 C 
ENDBRANCH  19  20
ENDBRANCH  12  19
BRANCH  16  22
HETATM   22  N3  UNL     1      -5.455   2.152  -0.887  1.00  0.00    -0.289 N 
ATOM     23  H3  UNL     1      -6.362   1.802  -1.195  1.00  0.00     0.188 HD
BRANCH  22  24
HETATM   24  N4  UNL     1      -5.351   3.475  -1.077  1.00  0.00    -0.344 N 
ATOM     25  H42 UNL     1      -4.437   3.801  -0.762  1.00  0.00     0.176 HD
ATOM     26  H41 UNL     1      -5.934   4.226  -1.447  1.00  0.00     0.176 HD
ENDBRANCH  22  24
ENDBRANCH  16  22
BRANCH  18  27
HETATM   27  N5  UNL     1      -2.969   2.717   0.006  1.00  0.00    -0.111 N 
HETATM   28  O2  UNL     1      -3.248   3.573   0.899  1.00  0.00    -0.532 OA
HETATM   29  O3  UNL     1      -2.191   3.115  -1.051  1.00  0.00    -0.532 OA
ENDBRANCH  18  27
ENDBRANCH  10  11
BRANCH  10  30
HETATM   30  O4  UNL     1      -0.881  -0.708   1.472  1.00  0.00    -0.362 OA
ATOM     31  H4  UNL     1      -0.001  -0.652   1.825  1.00  0.00     0.217 HD
ENDBRANCH  10  30
ENDBRANCH   9  10
ENDBRANCH   1   9
BRANCH   6  32
HETATM   32  C10 UNL     1       4.047  -0.016  -0.315  1.00  0.00     0.096 A 
HETATM   33  C11 UNL     1       5.187   0.629   0.117  1.00  0.00     0.149 A 
HETATM   34  N9  UNL     1       5.073   1.945   0.614  1.00  0.00    -0.081 NA
HETATM   35  N10 UNL     1       6.402   0.055   0.085  1.00  0.00    -0.178 N 
HETATM   36  C12 UNL     1       6.527  -1.184  -0.379  1.00  0.00     0.678 A 
ATOM     37  H10 UNL     1       7.221   0.566   0.414  1.00  0.00     0.185 HD
HETATM   38  N12 UNL     1       5.438  -1.844  -0.809  1.00  0.00    -0.176 N 
HETATM   39  C13 UNL     1       4.206  -1.301  -0.791  1.00  0.00     0.132 A 
ATOM     40  H12 UNL     1       5.549  -2.794  -1.163  1.00  0.00     0.186 HD
HETATM   41  N13 UNL     1       3.160  -1.924  -1.201  1.00  0.00    -0.384 N 
ATOM     42 2H13 UNL     1       2.227  -1.513  -1.187  1.00  0.00     0.157 HD
ATOM     43 1H13 UNL     1       3.278  -2.874  -1.553  1.00  0.00     0.157 HD
BRANCH  36  44
HETATM   44  N11 UNL     1       7.711  -1.751  -0.415  1.00  0.00    -0.234 N 
ATOM     45 2H11 UNL     1       8.537  -1.250  -0.089  1.00  0.00     0.174 HD
ATOM     46 1H11 UNL     1       7.807  -2.702  -0.771  1.00  0.00     0.174 HD
ENDBRANCH  36  44
ENDBRANCH   6  32
TORSDOF 11
