REMARK  12 active torsions:
REMARK  status: ('A' for Active; 'I' for Inactive)
REMARK    1  A    between atoms: N1_1  and  C1_4 
REMARK    2  A    between atoms: C2_7  and  C3_8 
REMARK    3  A    between atoms: C3_8  and  O1_9 
REMARK    4  A    between atoms: O1_9  and  C4_10 
REMARK    5  A    between atoms: C4_10  and  C5_12 
REMARK    6  A    between atoms: N5_17  and  C6_18 
REMARK    7  A    between atoms: C7_19  and  O3_20 
REMARK    8  A    between atoms: C9_28  and  N8_29 
REMARK    9  A    between atoms: N8_29  and  O5_31 
REMARK   10  A    between atoms: C10_33  and  C11_34 
REMARK   11  A    between atoms: C11_34  and  O6_35 
REMARK   12  A    between atoms: C11_34  and  O7_37 
ROOT
HETATM    1  C5  UNL     1      -0.471  -0.010   0.145  1.00  0.00     0.154 A 
HETATM    2  N3  UNL     1      -0.595   1.195  -0.499  1.00  0.00    -0.278 N 
ATOM      3  H3  UNL     1       0.177   1.753  -0.865  1.00  0.00     0.189 HD
HETATM    4  N4  UNL     1      -1.865   1.515  -0.568  1.00  0.00    -0.234 N 
ATOM      5  H4  UNL     1      -2.226   2.366  -1.000  1.00  0.00     0.209 HD
HETATM    6  N5  UNL     1      -2.611   0.586  -0.003  1.00  0.00    -0.231 N 
HETATM    7  C10 UNL     1      -1.753  -0.374   0.446  1.00  0.00     0.124 A 
ENDROOT
BRANCH   1   8
HETATM    8  C4  UNL     1       0.791  -0.643   0.396  1.00  0.00     0.313 C 
HETATM    9  O2  UNL     1       0.915  -1.723   0.988  1.00  0.00    -0.257 OA
BRANCH   8  10
HETATM   10  O1  UNL     1       1.986  -0.042  -0.034  1.00  0.00    -0.313 OA
BRANCH  10  11
HETATM   11  C3  UNL     1       3.227  -0.660   0.212  1.00  0.00     0.220 C 
BRANCH  11  12
HETATM   12  C2  UNL     1       4.303   0.141  -0.321  1.00  0.00     0.133 C 
HETATM   13  N2  UNL     1       4.411   1.505   0.233  1.00  0.00    -0.343 N 
HETATM   14  C1  UNL     1       5.900   1.851   0.160  1.00  0.00     0.172 C 
ATOM     15  H2  UNL     1       3.655   2.091   0.588  1.00  0.00     0.164 HD
HETATM   16  N9  UNL     1       6.185   0.723  -0.525  1.00  0.00    -0.344 N 
HETATM   17  C12 UNL     1       5.722  -0.378   0.290  1.00  0.00     0.167 C 
HETATM   18  C13 UNL     1       6.302   0.145  -1.783  1.00  0.00     0.207 C 
HETATM   19  C14 UNL     1       4.681  -0.024  -1.744  1.00  0.00     0.176 C 
HETATM   20  O8  UNL     1       4.096  -0.229  -2.718  1.00  0.00    -0.293 OA
BRANCH  14  21
HETATM   21  N1  UNL     1       6.403   2.886   0.610  1.00  0.00    -0.371 N 
ATOM     22  H12 UNL     1       6.188   3.738   1.128  1.00  0.00     0.159 HD
ATOM     23  H11 UNL     1       7.395   3.117   0.561  1.00  0.00     0.159 HD
ENDBRANCH  14  21
ENDBRANCH  11  12
ENDBRANCH  10  11
ENDBRANCH   8  10
ENDBRANCH   1   8
BRANCH   7  24
HETATM   24  C11 UNL     1      -2.199  -1.591   1.114  1.00  0.00     0.310 C 
BRANCH  24  25
HETATM   25  O6  UNL     1      -1.630  -2.753   0.619  1.00  0.00    -0.366 OA
ATOM     26  H6  UNL     1      -1.921  -3.546   1.054  1.00  0.00     0.213 HD
ENDBRANCH  24  25
BRANCH  24  27
HETATM   27  O7  UNL     1      -1.795  -1.512   2.468  1.00  0.00    -0.366 OA
ATOM     28  H7  UNL     1      -2.086  -2.305   2.903  1.00  0.00     0.213 HD
ENDBRANCH  24  27
ENDBRANCH   7  24
BRANCH   6  29
HETATM   29  C6  UNL     1      -4.021   0.559   0.127  1.00  0.00     0.154 A 
HETATM   30  C7  UNL     1      -4.647   0.851   1.322  1.00  0.00     0.177 A 
HETATM   31  N6  UNL     1      -6.008   0.815   1.410  1.00  0.00    -0.287 N 
HETATM   32  C8  UNL     1      -6.776   0.498   0.353  1.00  0.00     0.327 A 
ATOM     33  H6  UNL     1      -6.454   1.034   2.301  1.00  0.00     0.172 HD
HETATM   34  O4  UNL     1      -8.043   0.463   0.432  1.00  0.00    -0.247 OA
HETATM   35  N7  UNL     1      -6.181   0.211  -0.815  1.00  0.00    -0.291 N 
HETATM   36  C9  UNL     1      -4.838   0.238  -0.936  1.00  0.00     0.162 A 
ATOM     37  H7  UNL     1      -6.753  -0.031  -1.624  1.00  0.00     0.172 HD
BRANCH  30  38
HETATM   38  O3  UNL     1      -3.883   1.178   2.415  1.00  0.00    -0.344 OA
ATOM     39  H3  UNL     1      -4.314   1.379   3.237  1.00  0.00     0.219 HD
ENDBRANCH  30  38
BRANCH  36  40
HETATM   40  N8  UNL     1      -4.283  -0.044  -2.082  1.00  0.00    -0.251 N 
ATOM     41  H8  UNL     1      -3.266  -0.017  -2.152  1.00  0.00     0.196 HD
BRANCH  40  42
HETATM   42  O5  UNL     1      -5.001  -0.372  -3.186  1.00  0.00    -0.288 OA
ATOM     43  H5  UNL     1      -4.597  -0.577  -4.021  1.00  0.00     0.244 HD
ENDBRANCH  40  42
ENDBRANCH  36  40
ENDBRANCH   6  29
TORSDOF 12
