REMARK  4 active torsions:
REMARK  status: ('A' for Active; 'I' for Inactive)
REMARK    1  A    between atoms: C2_2  and  O2_4 
REMARK    2  A    between atoms: O2_4  and  C3_5 
REMARK    3  A    between atoms: C4_6  and  C5_7 
REMARK    4  A    between atoms: C15_17  and  O3_18 
ROOT
HETATM    1  C3  UNL     1       2.757   0.454   0.311  1.00  0.00     0.166 C 
HETATM    2  C4  UNL     1       3.037   0.094  -1.109  1.00  0.00    -0.050 C 
HETATM    3  C8  UNL     1       2.455   1.013  -1.863  1.00  0.00    -0.016 C 
HETATM    4  C9  UNL     1       1.752   2.044  -1.121  1.00  0.00     0.016 C 
HETATM    5  C10 UNL     1       0.328   2.284  -1.505  1.00  0.00     0.014 C 
HETATM    6  C11 UNL     1      -0.300   2.474  -0.175  1.00  0.00    -0.008 C 
HETATM    7  C12 UNL     1      -1.759   2.200  -0.097  1.00  0.00     0.011 C 
HETATM    8  C13 UNL     1      -1.840   1.173   0.966  1.00  0.00     0.002 C 
HETATM    9  C14 UNL     1      -3.053   0.382   1.088  1.00  0.00     0.028 C 
HETATM   10  C15 UNL     1      -4.295   0.862   0.372  1.00  0.00     0.128 C 
HETATM   11  C16 UNL     1      -4.509  -0.535  -0.129  1.00  0.00     0.019 C 
HETATM   12  C17 UNL     1      -4.826  -0.685  -1.582  1.00  0.00     0.013 C 
HETATM   13  C18 UNL     1      -3.130  -0.885   0.311  1.00  0.00    -0.032 C 
HETATM   14  C19 UNL     1      -3.160  -2.176   1.134  1.00  0.00     0.016 C 
HETATM   15  C20 UNL     1      -2.064  -0.957  -0.710  1.00  0.00     0.011 C 
HETATM   16  C21 UNL     1      -0.673  -0.699  -0.144  1.00  0.00     0.011 C 
HETATM   17  C22 UNL     1      -0.533   0.349   0.838  1.00  0.00    -0.035 C 
HETATM   18  C23 UNL     1      -0.401  -0.282   2.240  1.00  0.00     0.016 C 
HETATM   19  C24 UNL     1       0.403   1.451   0.751  1.00  0.00     0.006 C 
HETATM   20  C25 UNL     1       1.747   1.534   0.322  1.00  0.00     0.032 C 
ENDROOT
BRANCH   1  21
HETATM   21  O2  UNL     1       2.545  -0.621   1.140  1.00  0.00    -0.311 OA
BRANCH  21  22
HETATM   22  C2  UNL     1       3.390  -1.021   2.130  1.00  0.00     0.255 C 
HETATM   23  C1  UNL     1       3.113  -2.183   2.986  1.00  0.00     0.126 C 
HETATM   24  O1  UNL     1       4.420  -0.352   2.282  1.00  0.00    -0.266 OA
ENDBRANCH  21  22
ENDBRANCH   1  21
BRANCH   2  25
HETATM   25  C5  UNL     1       3.816  -1.083  -1.646  1.00  0.00     0.009 C 
HETATM   26  C6  UNL     1       5.254  -1.045  -1.185  1.00  0.00     0.014 C 
HETATM   27  C7  UNL     1       3.813  -1.058  -3.154  1.00  0.00     0.014 C 
ENDBRANCH   2  25
BRANCH  10  28
HETATM   28  O3  UNL     1      -5.293   1.345   1.224  1.00  0.00    -0.395 OA
ATOM     29  H3  UNL     1      -6.073   1.647   0.774  1.00  0.00     0.210 HD
ENDBRANCH  10  28
TORSDOF 4
