REMARK  3 active torsions:
REMARK  status: ('A' for Active; 'I' for Inactive)
REMARK    1  A    between atoms: C2_2  and  C3_3 
REMARK    2  A    between atoms: C13_17  and  O5_18 
REMARK    3  A    between atoms: C16_22  and  O6_23 
ROOT
HETATM    1  C3  UNL     1      -2.399  -1.499  -0.009  1.00  0.00     0.140 C 
HETATM    2  O1  UNL     1      -1.362  -2.116   0.661  1.00  0.00    -0.292 OA
HETATM    3  C4  UNL     1      -0.552  -3.156   0.362  1.00  0.00     0.414 C 
HETATM    4  O2  UNL     1      -0.561  -4.256   1.037  1.00  0.00    -0.229 OA
HETATM    5  O3  UNL     1       0.363  -3.157  -0.682  1.00  0.00    -0.221 OA
HETATM    6  C5  UNL     1       1.277  -2.220  -1.031  1.00  0.00     0.271 C 
HETATM    7  O4  UNL     1       1.317  -1.847  -2.235  1.00  0.00    -0.264 OA
HETATM    8  C6  UNL     1       2.251  -1.585  -0.105  1.00  0.00     0.082 C 
HETATM    9  C7  UNL     1       2.979  -2.748   0.586  1.00  0.00     0.020 C 
HETATM   10  C8  UNL     1       3.305  -0.810  -0.841  1.00  0.00     0.014 C 
HETATM   11  C9  UNL     1       3.367   0.643  -0.442  1.00  0.00     0.001 C 
HETATM   12  C10 UNL     1       2.022   1.315  -0.594  1.00  0.00     0.007 C 
HETATM   13  C11 UNL     1       1.758   2.367   0.430  1.00  0.00     0.011 C 
HETATM   14  C12 UNL     1       1.837   3.760  -0.172  1.00  0.00     0.012 C 
HETATM   15  C13 UNL     1       0.504   2.160   1.212  1.00  0.00     0.128 C 
HETATM   16  C14 UNL     1      -0.700   1.816   0.377  1.00  0.00     0.040 C 
HETATM   17  C15 UNL     1      -1.634   2.987   0.378  1.00  0.00     0.015 C 
HETATM   18  C16 UNL     1      -1.305   0.558   0.954  1.00  0.00     0.130 C 
HETATM   19  C17 UNL     1      -2.415   0.003   0.134  1.00  0.00     0.040 C 
HETATM   20  C18 UNL     1      -3.732   0.500   0.747  1.00  0.00     0.015 C 
ENDROOT
BRANCH   1  21
HETATM   21  C2  UNL     1      -2.511  -1.814  -1.480  1.00  0.00     0.028 C 
HETATM   22  C1  UNL     1      -2.721  -3.277  -1.771  1.00  0.00     0.007 C 
ENDBRANCH   1  21
BRANCH  18  23
HETATM   23  O6  UNL     1      -1.643   0.763   2.282  1.00  0.00    -0.395 OA
ATOM     24  H6  UNL     1      -2.024  -0.028   2.645  1.00  0.00     0.210 HD
ENDBRANCH  18  23
BRANCH  15  25
HETATM   25  O5  UNL     1       0.727   1.204   2.231  1.00  0.00    -0.395 OA
ATOM     26  H5  UNL     1      -0.071   1.072   2.729  1.00  0.00     0.210 HD
ENDBRANCH  15  25
TORSDOF 3
