REMARK  6 active torsions:
REMARK  status: ('A' for Active; 'I' for Inactive)
REMARK    1  A    between atoms: C8_11  and  C9_12 
REMARK    2  A    between atoms: C9_12  and  C10_13 
REMARK    3  A    between atoms: C10_13  and  N1_14 
REMARK    4  A    between atoms: C10_13  and  C11_18 
REMARK    5  A    between atoms: C11_18  and  O4_19 
REMARK    6  A    between atoms: N2_21  and  O5_23 
ROOT
HETATM    1  C1  UNL     1      -0.390   2.851   1.346  1.00  0.00     0.055 C 
HETATM    2  C2  UNL     1      -1.148   2.122   0.259  1.00  0.00     0.127 C 
HETATM    3  C3  UNL     1      -1.815   3.227  -0.581  1.00  0.00     0.055 C 
HETATM    4  O1  UNL     1      -2.198   1.387   0.815  1.00  0.00    -0.302 OA
HETATM    5  C4  UNL     1      -2.405   0.083   1.170  1.00  0.00     0.279 C 
HETATM    6  O2  UNL     1      -3.416  -0.198   1.839  1.00  0.00    -0.264 OA
HETATM    7  C5  UNL     1      -1.524  -1.045   0.826  1.00  0.00     0.138 C 
HETATM    8  C6  UNL     1      -1.775  -2.186   1.784  1.00  0.00     0.038 C 
HETATM    9  C7  UNL     1      -0.119  -0.574   0.885  1.00  0.00     0.190 C 
HETATM   10  O3  UNL     1       0.576  -0.635   1.861  1.00  0.00    -0.293 OA
HETATM   11  C8  UNL     1       0.165  -0.058  -0.452  1.00  0.00     0.188 C 
HETATM   12  O6  UNL     1      -0.759  -0.680  -1.321  1.00  0.00    -0.352 OA
HETATM   13  C12 UNL     1      -1.641  -1.423  -0.605  1.00  0.00     0.079 C 
HETATM   14  C13 UNL     1      -3.097  -1.159  -1.015  1.00  0.00     0.047 C 
HETATM   15  C14 UNL     1      -1.344  -2.886  -0.868  1.00  0.00     0.047 C 
HETATM   16  C15 UNL     1      -0.214   1.372  -0.561  1.00  0.00     0.203 C 
HETATM   17  O7  UNL     1       0.343   1.955  -1.458  1.00  0.00    -0.291 OA
ENDROOT
BRANCH  11  18
HETATM   18  C9  UNL     1       1.523  -0.413  -0.927  1.00  0.00     0.096 C 
BRANCH  18  19
HETATM   19  C10 UNL     1       2.688   0.033  -0.139  1.00  0.00     0.262 C 
BRANCH  19  20
HETATM   20  N1  UNL     1       2.839   1.444   0.029  1.00  0.00    -0.068 N 
ATOM     21  H13 UNL     1       2.846   1.900  -0.883  1.00  0.00     0.275 HD
ATOM     22  H12 UNL     1       1.985   1.836   0.426  1.00  0.00     0.275 HD
ATOM     23  H11 UNL     1       3.644   1.752   0.574  1.00  0.00     0.275 HD
ENDBRANCH  19  20
BRANCH  19  24
HETATM   24  C11 UNL     1       3.919  -0.416  -0.897  1.00  0.00     0.166 C 
HETATM   25  N2  UNL     1       4.779  -1.211  -0.383  1.00  0.00    -0.249 N 
ATOM     26  H2  UNL     1       5.582  -1.467  -0.957  1.00  0.00     0.196 HD
BRANCH  24  27
HETATM   27  O4  UNL     1       4.056   0.088  -2.181  1.00  0.00    -0.347 OA
ATOM     28  H4  UNL     1       4.829  -0.194  -2.657  1.00  0.00     0.219 HD
ENDBRANCH  24  27
BRANCH  25  29
HETATM   29  O5  UNL     1       4.710  -1.740   0.861  1.00  0.00    -0.288 OA
ATOM     30  H5  UNL     1       5.349  -2.331   1.243  1.00  0.00     0.244 HD
ENDBRANCH  25  29
ENDBRANCH  19  24
ENDBRANCH  18  19
ENDBRANCH  11  18
TORSDOF 6
