REMARK  5 active torsions:
REMARK  status: ('A' for Active; 'I' for Inactive)
REMARK    1  A    between atoms: N2_6  and  C5_7 
REMARK    2  A    between atoms: C5_7  and  C6_8 
REMARK    3  A    between atoms: C6_8  and  N3_9 
REMARK       I    between atoms: N3_9  and  C7_11 
REMARK    4  A    between atoms: C7_11  and  C8_13 
REMARK    5  A    between atoms: C11_18  and  N5_19 
ROOT
HETATM    1  N1  UNL     1     -10.215  -0.086   0.590  1.00  0.00    -0.197 NA
HETATM    2  C1  UNL     1      -9.210   0.205   1.093  1.00  0.00     0.065 C 
HETATM    3  C2  UNL     1      -7.939   0.592   1.711  1.00  0.00     0.122 C 
HETATM    4  C3  UNL     1      -7.493   1.949   1.271  1.00  0.00     0.051 C 
HETATM    5  C4  UNL     1      -6.238   1.753   0.437  1.00  0.00     0.273 C 
HETATM    6  N2  UNL     1      -6.144   0.367   0.187  1.00  0.00     0.091 N 
HETATM    7  C22 UNL     1      -6.853  -0.341   1.220  1.00  0.00     0.291 C 
ENDROOT
BRANCH   6   8
HETATM    8  C5  UNL     1      -4.891  -0.173  -0.173  1.00  0.00     0.292 C 
BRANCH   8   9
HETATM    9  C6  UNL     1      -3.850  -0.170   0.882  1.00  0.00     0.153 C 
BRANCH   9  10
HETATM   10  N3  UNL     1      -2.575  -0.721   0.504  1.00  0.00    -0.354 N 
HETATM   11  C7  UNL     1      -2.393  -2.057   0.083  1.00  0.00     0.268 C 
HETATM   12  O1  UNL     1      -3.358  -2.834   0.026  1.00  0.00    -0.266 OA
ATOM     13  H3  UNL     1      -1.757  -0.113   0.542  1.00  0.00     0.162 HD
BRANCH  11  14
HETATM   14  C8  UNL     1      -1.050  -2.530  -0.288  1.00  0.00     0.118 A 
HETATM   15  C9  UNL     1      -0.898  -3.840  -0.685  1.00  0.00     0.053 A 
HETATM   16  C10 UNL     1       0.363  -4.275  -1.034  1.00  0.00     0.108 A 
HETATM   17  N4  UNL     1       1.394  -3.408  -0.974  1.00  0.00    -0.202 N 
HETATM   18  C11 UNL     1       1.255  -2.128  -0.588  1.00  0.00     0.680 A 
ATOM     19  H4  UNL     1       2.323  -3.739  -1.234  1.00  0.00     0.183 HD
HETATM   20  N6  UNL     1       0.019  -1.715  -0.250  1.00  0.00    -0.186 N 
ATOM     21  H6  UNL     1      -0.112  -0.748   0.046  1.00  0.00     0.184 HD
BRANCH  18  22
HETATM   22  N5  UNL     1       2.364  -1.230  -0.536  1.00  0.00    -0.218 N 
HETATM   23  C12 UNL     1       2.205   0.147  -0.118  1.00  0.00     0.142 C 
HETATM   24  C13 UNL     1       3.490   0.485   0.651  1.00  0.00     0.030 C 
HETATM   25  C14 UNL     1       4.621   0.595  -0.316  1.00  0.00    -0.037 C 
HETATM   26  C15 UNL     1       4.727   1.957  -0.952  1.00  0.00     0.010 C 
HETATM   27  C19 UNL     1       5.918   0.290   0.400  1.00  0.00     0.010 C 
HETATM   28  C20 UNL     1       4.392  -0.410  -1.435  1.00  0.00     0.030 C 
HETATM   29  C16 UNL     1       5.390   2.924   0.010  1.00  0.00     0.001 C 
HETATM   30  C17 UNL     1       6.874   2.571   0.016  1.00  0.00     0.000 C 
HETATM   31  C18 UNL     1       7.077   1.082  -0.160  1.00  0.00     0.001 C 
HETATM   32  C21 UNL     1       3.700  -1.656  -0.900  1.00  0.00     0.142 C 
ENDBRANCH  18  22
ENDBRANCH  11  14
ENDBRANCH   9  10
ENDBRANCH   8   9
ENDBRANCH   6   8
TORSDOF 5
