REMARK  12 active torsions:
REMARK  status: ('A' for Active; 'I' for Inactive)
REMARK    1  A    between atoms: C2_2  and  C3_3 
REMARK    2  A    between atoms: C3_3  and  C4_4 
REMARK    3  A    between atoms: C4_4  and  C5_5 
REMARK    4  A    between atoms: C5_5  and  C6_6 
REMARK    5  A    between atoms: C6_6  and  O2_8 
REMARK    6  A    between atoms: O2_8  and  C7_9 
REMARK    7  A    between atoms: C7_9  and  C8_10 
REMARK    8  A    between atoms: C15_19  and  O5_20 
REMARK    9  A    between atoms: C16_22  and  O6_23 
REMARK   10  A    between atoms: O6_23  and  C17_24 
REMARK   11  A    between atoms: C19_27  and  O8_28 
REMARK   12  A    between atoms: O8_28  and  C20_29 
ROOT
HETATM    1  C7  UNL     1       0.924  -0.494  -2.053  1.00  0.00     0.162 C 
HETATM    2  C9  UNL     1       1.062  -1.992  -2.303  1.00  0.00     0.051 C 
HETATM    3  C10 UNL     1      -0.261  -2.598  -1.789  1.00  0.00     0.015 C 
HETATM    4  C11 UNL     1      -0.351  -1.802  -0.498  1.00  0.00    -0.012 C 
HETATM    5  C12 UNL     1       0.826  -2.206   0.320  1.00  0.00     0.018 C 
HETATM    6  C13 UNL     1      -0.265  -0.426  -1.116  1.00  0.00     0.044 C 
HETATM    7  C14 UNL     1      -0.138   0.555  -0.024  1.00  0.00     0.044 C 
HETATM    8  C15 UNL     1      -1.157   0.396   1.031  1.00  0.00     0.158 C 
HETATM    9  C16 UNL     1      -2.152  -0.691   0.897  1.00  0.00     0.144 C 
HETATM   10  C19 UNL     1      -3.387  -0.301   0.155  1.00  0.00     0.161 C 
HETATM   11  C23 UNL     1      -3.638  -1.384  -0.895  1.00  0.00     0.037 C 
HETATM   12  C24 UNL     1      -2.757  -2.514  -0.512  1.00  0.00     0.032 C 
HETATM   13  C25 UNL     1      -1.609  -1.962   0.264  1.00  0.00     0.081 C 
HETATM   14 CL1  UNL     1      -1.251  -3.205   1.533  1.00  0.00    -0.115 Cl
ENDROOT
BRANCH   1  15
HETATM   15  O2  UNL     1       2.039   0.089  -1.480  1.00  0.00    -0.298 OA
BRANCH  15  16
HETATM   16  C6  UNL     1       3.319   0.160  -1.931  1.00  0.00     0.260 C 
HETATM   17  O1  UNL     1       3.582  -0.371  -3.025  1.00  0.00    -0.265 OA
BRANCH  16  18
HETATM   18  C5  UNL     1       4.337   0.870  -1.092  1.00  0.00     0.111 C 
BRANCH  18  19
HETATM   19  C4  UNL     1       5.115  -0.143  -0.293  1.00  0.00     0.010 C 
BRANCH  19  20
HETATM   20  C3  UNL     1       6.137   0.577   0.553  1.00  0.00     0.000 C 
BRANCH  20  21
HETATM   21  C2  UNL     1       5.512   1.544   1.517  1.00  0.00    -0.005 C 
HETATM   22  C1  UNL     1       6.671   2.177   2.301  1.00  0.00     0.005 C 
ENDBRANCH  20  21
ENDBRANCH  19  20
ENDBRANCH  18  19
ENDBRANCH  16  18
ENDBRANCH  15  16
ENDBRANCH   1  15
BRANCH   1  23
HETATM   23  C8  UNL     1       0.561   0.096  -3.368  1.00  0.00     0.210 C 
HETATM   24  O3  UNL     1      -0.407  -0.304  -4.057  1.00  0.00    -0.646 OA
HETATM   25  O4  UNL     1       1.317   1.137  -3.869  1.00  0.00    -0.646 OA
ENDBRANCH   1  23
BRANCH   8  26
HETATM   26  O5  UNL     1      -0.471   0.330   2.276  1.00  0.00    -0.392 OA
ATOM     27  H5  UNL     1      -1.127   0.228   2.955  1.00  0.00     0.210 HD
ENDBRANCH   8  26
BRANCH   9  28
HETATM   28  O6  UNL     1      -2.473  -1.104   2.228  1.00  0.00    -0.303 OA
BRANCH  28  29
HETATM   29  C17 UNL     1      -2.995  -0.327   3.213  1.00  0.00     0.255 C 
HETATM   30  C18 UNL     1      -3.273  -0.937   4.559  1.00  0.00     0.126 C 
HETATM   31  O7  UNL     1      -3.227   0.861   2.978  1.00  0.00    -0.266 OA
ENDBRANCH  28  29
ENDBRANCH   9  28
BRANCH  10  32
HETATM   32  O8  UNL     1      -3.407   0.901  -0.486  1.00  0.00    -0.378 OA
BRANCH  32  33
HETATM   33  C20 UNL     1      -4.442   1.739  -0.317  1.00  0.00     0.114 C 
HETATM   34  C21 UNL     1      -5.304   1.952  -1.546  1.00  0.00     0.039 C 
HETATM   35  C22 UNL     1      -4.063   3.087   0.218  1.00  0.00     0.039 C 
ENDBRANCH  32  33
ENDBRANCH  10  32
TORSDOF 12
