REMARK  5 active torsions:
REMARK  status: ('A' for Active; 'I' for Inactive)
REMARK    1  A    between atoms: N1_2  and  C2_4 
REMARK    2  A    between atoms: C2_4  and  C3_5 
REMARK    3  A    between atoms: C3_5  and  N2_6 
REMARK    4  A    between atoms: N2_6  and  C4_9 
REMARK    5  A    between atoms: C8_16  and  N4_17 
ROOT
HETATM    1  C4  UNL     1      -0.360  -0.636  -0.206  1.00  0.00     0.242 C 
HETATM    2  C5  UNL     1      -0.891  -1.852   0.462  1.00  0.00     0.267 C 
HETATM    3  N3  UNL     1      -2.157  -2.181  -0.220  1.00  0.00    -0.073 N 
ATOM      4  H31 UNL     1      -2.527  -3.081   0.088  1.00  0.00     0.277 HD
ATOM      5  H32 UNL     1      -2.007  -2.403  -1.204  1.00  0.00     0.277 HD
HETATM    6  C6  UNL     1      -3.120  -1.130  -0.056  1.00  0.00     0.234 C 
HETATM    7  C7  UNL     1      -2.599   0.031   0.739  1.00  0.00     0.062 C 
HETATM    8  C8  UNL     1      -1.250   0.526   0.245  1.00  0.00     0.219 C 
ENDROOT
BRANCH   1   9
HETATM    9  N2  UNL     1       0.996  -0.270   0.174  1.00  0.00    -0.063 N 
ATOM     10  H22 UNL     1       1.047  -0.050   1.169  1.00  0.00     0.278 HD
ATOM     11  H21 UNL     1       1.248   0.640  -0.212  1.00  0.00     0.278 HD
BRANCH   9  12
HETATM   12  C3  UNL     1       1.964  -1.254  -0.177  1.00  0.00     0.277 C 
BRANCH  12  13
HETATM   13  C2  UNL     1       3.322  -0.887   0.276  1.00  0.00     0.082 C 
BRANCH  13  14
HETATM   14  N1  UNL     1       3.935   0.278  -0.173  1.00  0.00    -0.405 N 
HETATM   15  C1  UNL     1       3.491   1.553   0.214  1.00  0.00     0.145 C 
ATOM     16  H1  UNL     1       4.733   0.204  -0.804  1.00  0.00     0.158 HD
ENDBRANCH  13  14
ENDBRANCH  12  13
ENDBRANCH   9  12
ENDBRANCH   1   9
BRANCH   8  17
HETATM   17  N4  UNL     1      -1.404   1.444  -0.843  1.00  0.00    -0.073 N 
HETATM   18  C9  UNL     1      -2.215   2.585  -0.443  1.00  0.00     0.267 C 
ATOM     19  H42 UNL     1      -0.503   1.735  -1.222  1.00  0.00     0.277 HD
ATOM     20  H41 UNL     1      -1.779   0.986  -1.674  1.00  0.00     0.277 HD
ENDBRANCH   8  17
TORSDOF 5
