REMARK  9 active torsions:
REMARK  status: ('A' for Active; 'I' for Inactive)
REMARK    1  A    between atoms: N1_2  and  C4_5 
REMARK    2  A    between atoms: C4_5  and  C5_6 
REMARK    3  A    between atoms: C5_6  and  N2_7 
REMARK       I    between atoms: N2_7  and  C6_9 
REMARK       I    between atoms: C6_9  and  N3_10 
REMARK       I    between atoms: C6_9  and  N5_13 
REMARK    4  A    between atoms: N5_13  and  C8_15 
REMARK    5  A    between atoms: C8_15  and  C9_16 
REMARK    6  A    between atoms: C9_16  and  C10_17 
REMARK    7  A    between atoms: C10_17  and  C11_18 
REMARK    8  A    between atoms: C11_18  and  N6_19 
REMARK       I    between atoms: N6_19  and  C12_21 
REMARK       I    between atoms: C12_21  and  N8_25 
REMARK    9  A    between atoms: N8_25  and  C13_27 
ROOT
HETATM    1  N2  UNL     1       6.072  -0.802  -0.578  1.00  0.00    -0.348 N 
ATOM      2  H2  UNL     1       5.607  -1.462  -1.202  1.00  0.00     0.163 HD
HETATM    3  C6  UNL     1       5.493   0.481  -0.110  1.00  0.00     0.263 C 
HETATM    4  N3  UNL     1       5.082   1.374   0.211  1.00  0.00    -0.294 NA
HETATM    5  C7  UNL     1       4.735   2.528   0.741  1.00  0.00     0.271 C 
HETATM    6  N4  UNL     1       4.488   3.545   1.218  1.00  0.00    -0.156 NA
HETATM    7  N5  UNL     1       4.104   0.141  -1.215  1.00  0.00    -0.350 N 
ATOM      8  H5  UNL     1       4.142  -0.150  -2.192  1.00  0.00     0.163 HD
ENDROOT
BRANCH   1   9
HETATM    9  C5  UNL     1       7.424  -0.982  -0.005  1.00  0.00     0.151 C 
BRANCH   9  10
HETATM   10  C4  UNL     1       8.280   0.119  -0.546  1.00  0.00     0.255 C 
BRANCH  10  11
HETATM   11  N1  UNL     1       9.629   0.029  -0.006  1.00  0.00    -0.077 N 
HETATM   12  C1  UNL     1      10.473   0.774  -0.876  1.00  0.00     0.271 C 
HETATM   13  C2  UNL     1       9.640   0.684   1.307  1.00  0.00     0.271 C 
HETATM   14  C3  UNL     1      10.068  -1.335   0.061  1.00  0.00     0.271 C 
ENDBRANCH  10  11
ENDBRANCH   9  10
ENDBRANCH   1   9
BRANCH   7  15
HETATM   15  C8  UNL     1       2.991   0.360  -0.453  1.00  0.00     0.123 C 
BRANCH  15  16
HETATM   16  C9  UNL     1       1.835  -0.403  -1.112  1.00  0.00     0.021 C 
BRANCH  16  17
HETATM   17  C10 UNL     1       0.555  -0.107  -0.424  1.00  0.00     0.022 C 
BRANCH  17  18
HETATM   18  C11 UNL     1       0.499  -0.507   1.001  1.00  0.00     0.138 C 
BRANCH  18  19
HETATM   19  N6  UNL     1      -0.760  -0.177   1.631  1.00  0.00    -0.227 N 
HETATM   20  C12 UNL     1      -2.030  -0.836   1.261  1.00  0.00     0.669 C 
HETATM   21  N7  UNL     1      -1.806  -2.047   1.055  1.00  0.00    -0.235 N 
HETATM   22  N8  UNL     1      -3.111   0.021   1.170  1.00  0.00    -0.191 N 
ATOM     23  H72 UNL     1      -1.008  -2.679   1.122  1.00  0.00     0.174 HD
ATOM     24  H71 UNL     1      -2.683  -2.502   0.800  1.00  0.00     0.174 HD
ATOM     25  H8  UNL     1      -3.201   0.696   1.929  1.00  0.00     0.180 HD
ATOM     26  H6  UNL     1      -0.772   0.538   2.358  1.00  0.00     0.177 HD
BRANCH  22  27
HETATM   27  C13 UNL     1      -4.140   0.094   0.139  1.00  0.00     0.219 C 
HETATM   28  C14 UNL     1      -4.068   1.487  -0.420  1.00  0.00     0.090 C 
HETATM   29  C15 UNL     1      -4.977   1.782  -1.573  1.00  0.00     0.241 C 
HETATM   30  N9  UNL     1      -5.354   0.557  -2.247  1.00  0.00    -0.069 N 
HETATM   31  C16 UNL     1      -5.740   0.926  -3.601  1.00  0.00     0.272 C 
HETATM   32  C17 UNL     1      -4.237  -0.348  -2.343  1.00  0.00     0.241 C 
HETATM   33  C19 UNL     1      -6.504   0.035  -1.600  1.00  0.00     0.265 C 
HETATM   34  C18 UNL     1      -3.700  -0.803  -1.037  1.00  0.00     0.090 C 
HETATM   35  C20 UNL     1      -6.266  -0.877  -0.450  1.00  0.00     0.268 C 
HETATM   36  N10 UNL     1      -5.437  -0.284   0.620  1.00  0.00    -0.038 N 
HETATM   37  C21 UNL     1      -5.246  -1.384   1.549  1.00  0.00     0.240 C 
HETATM   38  C25 UNL     1      -6.222   0.717   1.251  1.00  0.00     0.240 C 
HETATM   39  C22 UNL     1      -6.481  -1.714   2.346  1.00  0.00     0.028 C 
HETATM   40  C23 UNL     1      -6.868  -0.613   3.297  1.00  0.00     0.003 C 
HETATM   41  C24 UNL     1      -6.261   0.672   2.761  1.00  0.00     0.028 C 
ENDBRANCH  22  27
ENDBRANCH  18  19
ENDBRANCH  17  18
ENDBRANCH  16  17
ENDBRANCH  15  16
ENDBRANCH   7  15
TORSDOF 9
