REMARK  11 active torsions:
REMARK  status: ('A' for Active; 'I' for Inactive)
REMARK    1  A    between atoms: C2_2  and  C3_3 
REMARK    2  A    between atoms: C3_3  and  C4_4 
REMARK    3  A    between atoms: C5_7  and  O1_8 
REMARK    4  A    between atoms: C7_11  and  C8_12 
REMARK    5  A    between atoms: C10_16  and  C11_17 
REMARK    6  A    between atoms: C13_20  and  C14_21 
REMARK    7  A    between atoms: C14_21  and  C15_22 
REMARK    8  A    between atoms: C15_22  and  N3_23 
REMARK    9  A    between atoms: C18_30  and  C19_31 
REMARK   10  A    between atoms: C19_31  and  O4_33 
REMARK   11  A    between atoms: O4_33  and  C20_34 
ROOT
HETATM    1  C8  UNL     1       0.343  -1.834   2.077  1.00  0.00     0.084 A 
HETATM    2  N2  UNL     1       0.808  -3.080   2.277  1.00  0.00    -0.362 N 
ATOM      3  H2  UNL     1       0.397  -3.651   3.015  1.00  0.00     0.165 HD
HETATM    4  C9  UNL     1       1.793  -3.589   1.535  1.00  0.00     0.097 A 
HETATM    5  C10 UNL     1       2.433  -2.886   0.487  1.00  0.00    -0.019 A 
HETATM    6  C12 UNL     1       1.986  -1.618   0.251  1.00  0.00     0.021 A 
HETATM    7  C13 UNL     1       2.409  -0.866  -0.735  1.00  0.00    -0.009 C 
HETATM    8  C17 UNL     1       0.941  -1.134   1.072  1.00  0.00     0.208 A 
HETATM    9  O2  UNL     1       0.513   0.032   0.879  1.00  0.00    -0.285 OA
ENDROOT
BRANCH   1  10
HETATM   10  C7  UNL     1      -0.628  -1.371   2.837  1.00  0.00     0.050 C 
HETATM   11  C6  UNL     1      -1.244  -0.077   2.768  1.00  0.00     0.035 A 
HETATM   12  C5  UNL     1      -0.886   1.071   3.428  1.00  0.00     0.151 A 
HETATM   13  C18 UNL     1      -2.344   0.274   2.015  1.00  0.00     0.076 A 
HETATM   14  N1  UNL     1      -1.723   2.085   3.100  1.00  0.00    -0.339 N 
HETATM   15  C4  UNL     1      -2.642   1.600   2.214  1.00  0.00     0.028 A 
ATOM     16  H1  UNL     1      -1.675   3.041   3.452  1.00  0.00     0.168 HD
BRANCH  12  17
HETATM   17  O1  UNL     1       0.175   1.253   4.325  1.00  0.00    -0.345 OA
ATOM     18  H1  UNL     1       0.762   0.542   4.555  1.00  0.00     0.219 HD
ENDBRANCH  12  17
BRANCH  15  19
HETATM   19  C3  UNL     1      -3.731   2.403   1.615  1.00  0.00     0.058 C 
BRANCH  19  20
HETATM   20  C2  UNL     1      -3.501   2.827   0.209  1.00  0.00     0.002 C 
HETATM   21  C1  UNL     1      -4.727   3.636  -0.220  1.00  0.00     0.005 C 
ENDBRANCH  19  20
ENDBRANCH  15  19
BRANCH  13  22
HETATM   22  C19 UNL     1      -3.060  -0.631   1.150  1.00  0.00     0.296 C 
HETATM   23  O3  UNL     1      -4.039  -1.336   1.492  1.00  0.00    -0.259 OA
BRANCH  22  24
HETATM   24  O4  UNL     1      -2.653  -0.756  -0.185  1.00  0.00    -0.313 OA
BRANCH  24  25
HETATM   25  C20 UNL     1      -3.262  -1.600  -1.112  1.00  0.00     0.124 C 
HETATM   26  C21 UNL     1      -3.748  -0.947  -2.361  1.00  0.00     0.040 C 
HETATM   27  C22 UNL     1      -2.236  -2.681  -1.452  1.00  0.00     0.040 C 
ENDBRANCH  24  25
ENDBRANCH  22  24
ENDBRANCH  13  22
ENDBRANCH   1  10
BRANCH   5  28
HETATM   28  C11 UNL     1       3.585  -3.548  -0.178  1.00  0.00     0.126 C 
HETATM   29 BR1  UNL     1       5.231  -3.068   0.731  1.00  0.00    -0.091 Br
ENDBRANCH   5  28
BRANCH   7  30
HETATM   30  C14 UNL     1       3.358  -1.041  -1.802  1.00  0.00     0.048 C 
BRANCH  30  31
HETATM   31  C15 UNL     1       3.477   0.299  -2.576  1.00  0.00     0.126 C 
BRANCH  31  32
HETATM   32  N3  UNL     1       3.923   1.341  -1.707  1.00  0.00    -0.367 N 
HETATM   33  C16 UNL     1       4.747   2.275  -1.965  1.00  0.00     0.196 C 
HETATM   34  N4  UNL     1       5.374   2.417  -3.229  1.00  0.00    -0.067 NA
HETATM   35  N5  UNL     1       5.062   3.222  -0.952  1.00  0.00    -0.067 NA
ATOM     36  H3  UNL     1       3.533   1.336  -0.764  1.00  0.00     0.161 HD
ENDBRANCH  31  32
ENDBRANCH  30  31
ENDBRANCH   7  30
TORSDOF 11
