REMARK  11 active torsions:
REMARK  status: ('A' for Active; 'I' for Inactive)
REMARK    1  A    between atoms: C2_2  and  C4_4 
REMARK    2  A    between atoms: C4_4  and  C5_5 
REMARK    3  A    between atoms: C9_12  and  C10_13 
REMARK    4  A    between atoms: C10_13  and  C11_14 
REMARK    5  A    between atoms: C11_14  and  C12_15 
REMARK    6  A    between atoms: C12_15  and  N2_16 
REMARK    7  A    between atoms: C15_25  and  C16_26 
REMARK    8  A    between atoms: C16_26  and  C17_27 
REMARK    9  A    between atoms: C21_31  and  C22_32 
REMARK   10  A    between atoms: C22_32  and  C23_33 
REMARK   11  A    between atoms: C23_33  and  C24_34 
ROOT
HETATM    1  C5  UNL     1      -1.263  -2.789  -0.936  1.00  0.00    -0.010 C 
HETATM    2  C6  UNL     1      -0.033  -2.707  -1.749  1.00  0.00     0.062 C 
HETATM    3  C7  UNL     1       1.281  -2.846  -1.104  1.00  0.00     0.108 C 
HETATM    4  C8  UNL     1       2.175  -1.745  -1.568  1.00  0.00     0.218 C 
HETATM    5  O1  UNL     1       2.859  -1.980  -2.625  1.00  0.00    -0.274 OA
HETATM    6  N1  UNL     1       2.315  -0.494  -0.938  1.00  0.00    -0.348 N 
ATOM      7  H1  UNL     1       2.244   0.330  -1.535  1.00  0.00     0.163 HD
HETATM    8  C9  UNL     1       2.548  -0.261   0.459  1.00  0.00     0.176 C 
HETATM    9  C14 UNL     1       1.447  -0.643   1.341  1.00  0.00     0.241 C 
HETATM   10  O2  UNL     1       1.764  -1.239   2.433  1.00  0.00    -0.271 OA
HETATM   11  N5  UNL     1       0.088  -0.435   1.136  1.00  0.00    -0.346 N 
ATOM     12  H5  UNL     1      -0.542  -0.980   1.726  1.00  0.00     0.163 HD
HETATM   13  C15 UNL     1      -0.546   0.462   0.186  1.00  0.00     0.181 C 
HETATM   14  C26 UNL     1      -1.505  -0.227  -0.705  1.00  0.00     0.244 C 
HETATM   15  O3  UNL     1      -1.977   0.539  -1.632  1.00  0.00    -0.271 OA
HETATM   16  N6  UNL     1      -1.951  -1.548  -0.674  1.00  0.00    -0.333 N 
ATOM     17  H6  UNL     1      -2.934  -1.656  -0.423  1.00  0.00     0.168 HD
ENDROOT
BRANCH  13  18
HETATM   18  C16 UNL     1      -1.156   1.528   1.065  1.00  0.00     0.073 C 
BRANCH  18  19
HETATM   19  C17 UNL     1      -1.878   2.594   0.402  1.00  0.00    -0.055 A 
HETATM   20  C18 UNL     1      -1.241   3.714  -0.071  1.00  0.00     0.007 A 
HETATM   21  C19 UNL     1      -1.985   4.715  -0.674  1.00  0.00     0.001 A 
HETATM   22  C20 UNL     1      -3.345   4.640  -0.822  1.00  0.00     0.007 A 
HETATM   23  C21 UNL     1      -3.994   3.502  -0.341  1.00  0.00    -0.058 A 
HETATM   24  C25 UNL     1      -3.246   2.510   0.257  1.00  0.00     0.014 A 
BRANCH  23  25
HETATM   25  C22 UNL     1      -5.466   3.353  -0.468  1.00  0.00     0.039 C 
BRANCH  25  26
HETATM   26  C23 UNL     1      -6.182   3.928   0.745  1.00  0.00     0.020 C 
BRANCH  26  27
HETATM   27  C24 UNL     1      -7.672   3.772   0.607  1.00  0.00     0.115 C 
HETATM   28 CL1  UNL     1      -8.261   4.626  -0.848  1.00  0.00    -0.130 Cl
ENDBRANCH  26  27
ENDBRANCH  25  26
ENDBRANCH  23  25
ENDBRANCH  18  19
ENDBRANCH  13  18
BRANCH   8  29
HETATM   29  C10 UNL     1       3.836  -0.912   0.936  1.00  0.00     0.036 C 
BRANCH  29  30
HETATM   30  C11 UNL     1       5.048  -0.394   0.204  1.00  0.00     0.022 C 
BRANCH  30  31
HETATM   31  C12 UNL     1       5.252   1.084   0.364  1.00  0.00     0.122 C 
BRANCH  31  32
HETATM   32  N2  UNL     1       6.438   1.446  -0.380  1.00  0.00    -0.367 N 
HETATM   33  C13 UNL     1       7.247   2.373   0.020  1.00  0.00     0.196 C 
HETATM   34  N3  UNL     1       6.931   3.038   1.235  1.00  0.00    -0.067 NA
HETATM   35  N4  UNL     1       8.412   2.728  -0.711  1.00  0.00    -0.067 NA
ATOM     36  H2  UNL     1       6.644   0.954  -1.249  1.00  0.00     0.161 HD
ENDBRANCH  31  32
ENDBRANCH  30  31
ENDBRANCH  29  30
ENDBRANCH   8  29
BRANCH   1  37
HETATM   37  C4  UNL     1      -1.221  -3.679   0.274  1.00  0.00     0.056 C 
BRANCH  37  38
HETATM   38  C2  UNL     1      -0.933  -5.121  -0.059  1.00  0.00    -0.018 C 
HETATM   39  C1  UNL     1      -0.923  -5.897   1.266  1.00  0.00     0.010 C 
HETATM   40  C3  UNL     1      -1.945  -5.761  -0.937  1.00  0.00     0.010 C 
ENDBRANCH  37  38
ENDBRANCH   1  37
TORSDOF 11
