REMARK  13 active torsions:
REMARK  status: ('A' for Active; 'I' for Inactive)
REMARK       I    between atoms: C2_2  and  N1_4 
REMARK    1  A    between atoms: N1_4  and  C3_6 
REMARK    2  A    between atoms: C4_9  and  C5_10 
REMARK    3  A    between atoms: C5_10  and  C6_11 
REMARK    4  A    between atoms: C6_11  and  N3_12 
REMARK    5  A    between atoms: N3_12  and  C8_14 
REMARK    6  A    between atoms: C8_14  and  C9_15 
REMARK    7  A    between atoms: C9_15  and  N4_16 
REMARK    8  A    between atoms: C12_23  and  O2_24 
REMARK    9  A    between atoms: O2_24  and  C13_25 
REMARK   10  A    between atoms: C13_25  and  C14_26 
REMARK       I    between atoms: C14_26  and  N5_28 
REMARK   11  A    between atoms: N5_28  and  C15_30 
REMARK   12  A    between atoms: C15_30  and  C16_31 
REMARK   13  A    between atoms: C16_31  and  C17_32 
ROOT
HETATM    1  C3  UNL     1      -1.864  -0.136   0.309  1.00  0.00     0.143 A 
HETATM    2  N2  UNL     1      -3.126  -0.097  -0.095  1.00  0.00    -0.344 N 
ATOM      3  H2  UNL     1      -3.870   0.055   0.586  1.00  0.00     0.167 HD
HETATM    4  C4  UNL     1      -3.433  -0.256  -1.389  1.00  0.00     0.013 A 
HETATM    5  C10 UNL     1      -2.417  -0.464  -2.322  1.00  0.00     0.047 A 
HETATM    6  C11 UNL     1      -1.097  -0.509  -1.924  1.00  0.00     0.050 A 
HETATM    7 BR1  UNL     1       0.305  -0.793  -3.183  1.00  0.00    -0.048 Br
HETATM    8  C12 UNL     1      -0.807  -0.343  -0.586  1.00  0.00     0.130 A 
ENDROOT
BRANCH   8   9
HETATM    9  O2  UNL     1       0.512  -0.387  -0.178  1.00  0.00    -0.337 OA
BRANCH   9  10
HETATM   10  C13 UNL     1       1.316   0.754  -0.118  1.00  0.00     0.278 C 
BRANCH  10  11
HETATM   11  C14 UNL     1       2.711   0.404   0.353  1.00  0.00     0.241 C 
HETATM   12  O3  UNL     1       2.982  -0.801   0.626  1.00  0.00    -0.271 OA
HETATM   13  N5  UNL     1       3.631   1.464   0.459  1.00  0.00    -0.359 N 
ATOM     14  H5  UNL     1       3.316   2.404   0.220  1.00  0.00     0.162 HD
BRANCH  13  15
HETATM   15  C15 UNL     1       4.995   1.289   0.887  1.00  0.00     0.127 C 
BRANCH  15  16
HETATM   16  C16 UNL     1       5.726   0.391  -0.048  1.00  0.00     0.060 C 
BRANCH  16  17
HETATM   17  C17 UNL     1       7.148   0.195   0.364  1.00  0.00    -0.029 A 
HETATM   18  C18 UNL     1       7.833   0.730   1.425  1.00  0.00     0.096 A 
HETATM   19  N6  UNL     1       9.107   0.257   1.381  1.00  0.00    -0.365 N 
HETATM   20  C19 UNL     1       9.264  -0.562   0.331  1.00  0.00     0.042 A 
ATOM     21  H6  UNL     1       9.839   0.492   2.051  1.00  0.00     0.165 HD
HETATM   22  C20 UNL     1      10.310  -1.301  -0.186  1.00  0.00     0.030 A 
HETATM   23  C24 UNL     1       8.056  -0.601  -0.298  1.00  0.00    -0.002 A 
HETATM   24  C21 UNL     1      10.183  -2.077  -1.311  1.00  0.00     0.002 A 
HETATM   25  C22 UNL     1       8.950  -2.112  -1.947  1.00  0.00     0.001 A 
HETATM   26  C23 UNL     1       7.895  -1.375  -1.436  1.00  0.00     0.014 A 
ENDBRANCH  16  17
ENDBRANCH  15  16
ENDBRANCH  13  15
ENDBRANCH  10  11
ENDBRANCH   9  10
ENDBRANCH   8   9
BRANCH   1  27
HETATM   27  N1  UNL     1      -1.552   0.016   1.525  1.00  0.00    -0.311 N 
HETATM   28  C2  UNL     1      -2.405   0.241   2.619  1.00  0.00     0.219 C 
HETATM   29  C1  UNL     1      -2.381  -0.658   3.790  1.00  0.00     0.117 C 
HETATM   30  O1  UNL     1      -3.202   1.210   2.618  1.00  0.00    -0.274 OA
ATOM     31  H1  UNL     1      -0.556  -0.031   1.739  1.00  0.00     0.170 HD
ENDBRANCH   1  27
BRANCH   4  32
HETATM   32  C5  UNL     1      -4.827  -0.224  -1.895  1.00  0.00     0.076 C 
BRANCH  32  33
HETATM   33  C6  UNL     1      -5.829  -0.013  -0.793  1.00  0.00     0.122 C 
BRANCH  33  34
HETATM   34  N3  UNL     1      -7.175   0.027  -1.217  1.00  0.00    -0.415 N 
HETATM   35  C7  UNL     1      -7.597   1.129  -2.002  1.00  0.00     0.143 C 
BRANCH  34  36
HETATM   36  C8  UNL     1      -8.153  -0.542  -0.357  1.00  0.00     0.143 C 
BRANCH  36  37
HETATM   37  C9  UNL     1      -8.309   0.268   0.912  1.00  0.00     0.248 C 
BRANCH  37  38
HETATM   38  N4  UNL     1      -9.326  -0.394   1.715  1.00  0.00    -0.078 N 
ATOM     39  H43 UNL     1     -10.205  -0.531   1.216  1.00  0.00     0.274 HD
ATOM     40  H42 UNL     1      -9.122  -1.378   1.890  1.00  0.00     0.274 HD
ATOM     41  H41 UNL     1      -9.431   0.152   2.570  1.00  0.00     0.274 HD
ENDBRANCH  37  38
ENDBRANCH  36  37
ENDBRANCH  34  36
ENDBRANCH  33  34
ENDBRANCH  32  33
ENDBRANCH   4  32
TORSDOF 13
