REMARK  11 active torsions:
REMARK  status: ('A' for Active; 'I' for Inactive)
REMARK    1  A    between atoms: C3_5  and  N2_6 
REMARK    2  A    between atoms: C4_8  and  C5_9 
REMARK    3  A    between atoms: C5_9  and  C6_10 
REMARK    4  A    between atoms: C12_18  and  N4_19 
REMARK    5  A    between atoms: C13_21  and  C14_22 
REMARK    6  A    between atoms: C19_27  and  C20_28 
REMARK    7  A    between atoms: N5_29  and  C21_31 
REMARK    8  A    between atoms: C21_31  and  C22_32 
REMARK    9  A    between atoms: C22_32  and  N6_33 
REMARK   10  A    between atoms: N6_33  and  S1_35 
REMARK   11  A    between atoms: S1_35  and  C23_38 
ROOT
HETATM    1  C14 UNL     1       0.981  -0.237  -0.521  1.00  0.00    -0.009 A 
HETATM    2  C15 UNL     1       0.677   1.004  -1.130  1.00  0.00     0.013 A 
HETATM    3  C16 UNL     1       1.612   1.575  -1.991  1.00  0.00     0.001 A 
HETATM    4  C17 UNL     1       2.790   0.939  -2.243  1.00  0.00     0.001 A 
HETATM    5  C18 UNL     1       3.097  -0.287  -1.654  1.00  0.00     0.013 A 
HETATM    6  C19 UNL     1       2.202  -0.853  -0.804  1.00  0.00    -0.009 A 
ENDROOT
BRANCH   1   7
HETATM    7  C13 UNL     1       0.257  -0.849   0.599  1.00  0.00     0.118 C 
HETATM    8  N4  UNL     1      -0.892  -1.540   0.663  1.00  0.00    -0.200 N 
ATOM      9  H4  UNL     1      -0.640  -2.512   0.842  1.00  0.00     0.183 HD
BRANCH   8  10
HETATM   10  C12 UNL     1      -2.130  -1.499   0.597  1.00  0.00     0.698 A 
HETATM   11  N3  UNL     1      -2.958  -0.381   0.364  1.00  0.00    -0.022 N 
HETATM   12  C3  UNL     1      -4.380  -0.372   0.417  1.00  0.00     0.698 A 
ATOM     13  H3  UNL     1      -2.496   0.500   0.137  1.00  0.00     0.203 HD
HETATM   14  N1  UNL     1      -5.064  -1.613   0.744  1.00  0.00    -0.176 N 
HETATM   15  C2  UNL     1      -4.298  -2.769   0.988  1.00  0.00     0.127 A 
ATOM     16  H1  UNL     1      -6.082  -1.645   0.796  1.00  0.00     0.185 HD
HETATM   17  C1  UNL     1      -4.887  -3.950   1.279  1.00  0.00     0.064 C 
HETATM   18  N7  UNL     1      -2.840  -2.748   0.920  1.00  0.00    -0.176 N 
ATOM     19  H7  UNL     1      -2.311  -3.602   1.097  1.00  0.00     0.185 HD
BRANCH  12  20
HETATM   20  N2  UNL     1      -5.100   0.526   0.058  1.00  0.00    -0.204 N 
HETATM   21  C4  UNL     1      -5.428   1.747  -0.367  1.00  0.00     0.083 C 
ATOM     22  H2  UNL     1      -6.016   0.081   0.112  1.00  0.00     0.183 HD
BRANCH  21  23
HETATM   23  C5  UNL     1      -6.616   1.680  -1.306  1.00  0.00     0.083 C 
BRANCH  23  24
HETATM   24  C6  UNL     1      -7.964   1.573  -0.707  1.00  0.00    -0.053 A 
HETATM   25  C7  UNL     1      -8.482   0.467  -0.052  1.00  0.00     0.007 A 
HETATM   26  C8  UNL     1      -9.769   0.473   0.418  1.00  0.00     0.001 A 
HETATM   27  C9  UNL     1     -10.611   1.564   0.262  1.00  0.00     0.000 A 
HETATM   28  C10 UNL     1     -10.108   2.672  -0.398  1.00  0.00     0.001 A 
HETATM   29  C11 UNL     1      -8.819   2.663  -0.861  1.00  0.00     0.007 A 
ENDBRANCH  23  24
ENDBRANCH  21  23
ENDBRANCH  12  20
ENDBRANCH   8  10
ENDBRANCH   1   7
BRANCH   6  30
HETATM   30  C20 UNL     1       2.477  -2.251  -0.284  1.00  0.00     0.099 C 
HETATM   31  N5  UNL     1       3.438  -2.219   0.680  1.00  0.00    -0.376 N 
ATOM     32  H5  UNL     1       3.060  -1.827   1.542  1.00  0.00     0.164 HD
BRANCH  31  33
HETATM   33  C21 UNL     1       4.763  -2.553   0.850  1.00  0.00     0.080 C 
BRANCH  33  34
HETATM   34  C22 UNL     1       5.793  -1.643   0.170  1.00  0.00     0.176 C 
BRANCH  34  35
HETATM   35  N6  UNL     1       7.100  -1.864   0.688  1.00  0.00    -0.311 N 
ATOM     36  H6  UNL     1       7.287  -2.533   1.435  1.00  0.00     0.172 HD
BRANCH  35  37
HETATM   37  S1  UNL     1       8.330  -0.930  -0.030  1.00  0.00     0.259 S 
HETATM   38  O1  UNL     1       9.599  -1.250   0.792  1.00  0.00    -0.201 OA
HETATM   39  O2  UNL     1       8.614  -1.269  -1.421  1.00  0.00    -0.201 OA
BRANCH  37  40
HETATM   40  C23 UNL     1       8.071   0.780   0.152  1.00  0.00     0.079 A 
HETATM   41  C24 UNL     1       8.111   1.435   1.337  1.00  0.00     0.028 A 
HETATM   42  C25 UNL     1       7.935   2.817   1.356  1.00  0.00     0.044 A 
HETATM   43  C26 UNL     1       7.721   3.538   0.213  1.00  0.00     0.116 A 
HETATM   44  F1  UNL     1       7.555   4.883   0.210  1.00  0.00    -0.206 F 
HETATM   45  C27 UNL     1       7.677   2.892  -1.014  1.00  0.00     0.044 A 
HETATM   46  C28 UNL     1       7.854   1.529  -1.018  1.00  0.00     0.028 A 
ENDBRANCH  37  40
ENDBRANCH  35  37
ENDBRANCH  34  35
ENDBRANCH  33  34
ENDBRANCH  31  33
ENDBRANCH   6  30
TORSDOF 11
