REMARK  12 active torsions:
REMARK  status: ('A' for Active; 'I' for Inactive)
REMARK    1  A    between atoms: C2_2  and  C4_4 
REMARK    2  A    between atoms: C4_4  and  C5_5 
REMARK    3  A    between atoms: C7_10  and  C8_11 
REMARK    4  A    between atoms: C8_11  and  C9_12 
REMARK    5  A    between atoms: C12_17  and  C13_18 
REMARK    6  A    between atoms: C13_18  and  C14_19 
REMARK    7  A    between atoms: C14_19  and  C15_20 
REMARK    8  A    between atoms: C15_20  and  N3_21 
REMARK    9  A    between atoms: C18_28  and  O2_29 
REMARK   10  A    between atoms: C19_31  and  C20_32 
REMARK   11  A    between atoms: C20_32  and  C21_33 
REMARK   12  A    between atoms: C24_36  and  O3_37 
ROOT
HETATM    1  C5  UNL     1      -2.683  -1.251   1.647  1.00  0.00     0.177 C 
HETATM    2  N1  UNL     1      -1.561  -1.669   2.397  1.00  0.00    -0.346 N 
ATOM      3  H1  UNL     1      -1.604  -1.355   3.367  1.00  0.00     0.163 HD
HETATM    4  C6  UNL     1      -0.411  -2.406   2.130  1.00  0.00     0.240 C 
HETATM    5  O1  UNL     1       0.168  -3.022   3.113  1.00  0.00    -0.271 OA
HETATM    6  C7  UNL     1       0.305  -2.617   0.841  1.00  0.00     0.171 C 
HETATM    7  N2  UNL     1       0.946  -1.424   0.503  1.00  0.00    -0.389 N 
ATOM      8  H2  UNL     1       0.920  -1.134  -0.475  1.00  0.00     0.156 HD
HETATM    9  C12 UNL     1       1.616  -0.603   1.400  1.00  0.00     0.181 C 
HETATM   10  N6  UNL     1       0.929   0.286   2.280  1.00  0.00    -0.344 N 
HETATM   11  C17 UNL     1       1.556   0.289   3.653  1.00  0.00     0.154 C 
HETATM   12  C18 UNL     1      -0.151   1.137   2.185  1.00  0.00     0.163 C 
HETATM   13  C19 UNL     1      -0.939   1.759   1.122  1.00  0.00     0.067 C 
HETATM   14  N7  UNL     1      -2.337   1.296   1.145  1.00  0.00    -0.325 N 
ATOM     15  H7  UNL     1      -2.971   1.868   0.587  1.00  0.00     0.169 HD
HETATM   16  C27 UNL     1      -2.949   0.241   1.775  1.00  0.00     0.244 C 
HETATM   17  O4  UNL     1      -3.884   0.503   2.594  1.00  0.00    -0.271 OA
ENDROOT
BRANCH  13  18
HETATM   18  C20 UNL     1      -0.359   1.954  -0.210  1.00  0.00     0.100 C 
BRANCH  18  19
HETATM   19  C21 UNL     1      -1.312   2.637  -1.163  1.00  0.00    -0.051 A 
HETATM   20  C22 UNL     1      -1.319   4.020  -1.200  1.00  0.00     0.010 A 
HETATM   21  C23 UNL     1      -2.132   4.760  -2.031  1.00  0.00     0.039 A 
HETATM   22  C24 UNL     1      -2.972   4.042  -2.857  1.00  0.00     0.087 A 
HETATM   23  C25 UNL     1      -2.999   2.649  -2.854  1.00  0.00     0.067 A 
HETATM   24 CL1  UNL     1      -4.060   1.765  -3.904  1.00  0.00    -0.081 Cl
HETATM   25  C26 UNL     1      -2.160   1.982  -1.999  1.00  0.00     0.034 A 
BRANCH  22  26
HETATM   26  O3  UNL     1      -3.836   4.666  -3.736  1.00  0.00    -0.359 OA
ATOM     27  H3  UNL     1      -4.414   4.172  -4.305  1.00  0.00     0.217 HD
ENDBRANCH  22  26
ENDBRANCH  18  19
ENDBRANCH  13  18
BRANCH  12  28
HETATM   28  O2  UNL     1      -0.637   1.517   3.378  1.00  0.00    -0.345 OA
ATOM     29  H2  UNL     1      -1.381   2.104   3.313  1.00  0.00     0.219 HD
ENDBRANCH  12  28
BRANCH   9  30
HETATM   30  C13 UNL     1       2.680   0.186   0.616  1.00  0.00     0.048 C 
BRANCH  30  31
HETATM   31  C14 UNL     1       3.449   1.139   1.502  1.00  0.00     0.023 C 
BRANCH  31  32
HETATM   32  C15 UNL     1       4.494   1.901   0.669  1.00  0.00     0.122 C 
BRANCH  32  33
HETATM   33  N3  UNL     1       3.857   2.659  -0.377  1.00  0.00    -0.367 N 
HETATM   34  C16 UNL     1       4.538   2.968  -1.426  1.00  0.00     0.196 C 
HETATM   35  N4  UNL     1       3.893   3.716  -2.450  1.00  0.00    -0.067 NA
HETATM   36  N5  UNL     1       5.904   2.587  -1.590  1.00  0.00    -0.067 NA
ATOM     37  H3  UNL     1       2.882   2.947  -0.289  1.00  0.00     0.161 HD
ENDBRANCH  32  33
ENDBRANCH  31  32
ENDBRANCH  30  31
ENDBRANCH   9  30
BRANCH   1  38
HETATM   38  C4  UNL     1      -2.741  -1.666   0.201  1.00  0.00     0.038 C 
BRANCH  38  39
HETATM   39  C2  UNL     1      -4.045  -1.161  -0.450  1.00  0.00    -0.020 C 
HETATM   40  C1  UNL     1      -4.071  -1.590  -1.912  1.00  0.00     0.009 C 
HETATM   41  C3  UNL     1      -5.248  -1.812   0.200  1.00  0.00     0.009 C 
ENDBRANCH  38  39
ENDBRANCH   1  38
BRANCH   6  42
HETATM   42  C8  UNL     1       1.111  -3.889   0.899  1.00  0.00     0.038 C 
BRANCH  42  43
HETATM   43  C9  UNL     1       1.845  -4.280  -0.333  1.00  0.00    -0.020 C 
HETATM   44  C10 UNL     1       2.872  -3.343  -0.850  1.00  0.00     0.009 C 
HETATM   45  C11 UNL     1       0.883  -4.596  -1.485  1.00  0.00     0.009 C 
ENDBRANCH  42  43
ENDBRANCH   6  42
TORSDOF 12
