REMARK  8 active torsions:
REMARK  status: ('A' for Active; 'I' for Inactive)
REMARK    1  A    between atoms: C2_2  and  C3_3 
REMARK    2  A    between atoms: C10_13  and  C11_14 
REMARK    3  A    between atoms: C13_16  and  C14_17 
REMARK       I    between atoms: C14_17  and  N2_19 
REMARK    4  A    between atoms: N2_19  and  C15_21 
REMARK    5  A    between atoms: C15_21  and  C16_22 
REMARK    6  A    between atoms: C16_22  and  C17_23 
REMARK    7  A    between atoms: C17_23  and  N3_24 
REMARK       I    between atoms: N3_24  and  C19_26 
REMARK    8  A    between atoms: C19_26  and  C20_28 
ROOT
HETATM    1  C3  UNL     1      -6.019   2.308  -0.225  1.00  0.00    -0.019 A 
HETATM    2  C4  UNL     1      -7.335   2.237   0.276  1.00  0.00     0.086 A 
HETATM    3  C5  UNL     1      -7.771   1.112   0.934  1.00  0.00     0.246 A 
HETATM    4  O1  UNL     1      -8.966   1.049   1.387  1.00  0.00    -0.268 OA
HETATM    5  N1  UNL     1      -6.980   0.072   1.117  1.00  0.00    -0.323 N 
ATOM      6  H1  UNL     1      -7.341  -0.745   1.610  1.00  0.00     0.169 HD
HETATM    7  C6  UNL     1      -5.694   0.058   0.666  1.00  0.00     0.047 A 
HETATM    8  C7  UNL     1      -4.896  -1.037   0.885  1.00  0.00     0.042 A 
HETATM    9  C8  UNL     1      -3.602  -1.038   0.441  1.00  0.00    -0.023 A 
HETATM   10  C9  UNL     1      -2.802  -2.142   0.656  1.00  0.00     0.020 A 
HETATM   11  C10 UNL     1      -1.481  -2.118   0.184  1.00  0.00    -0.042 A 
HETATM   12  C13 UNL     1      -1.022  -1.013  -0.468  1.00  0.00     0.039 A 
HETATM   13  C22 UNL     1      -1.860   0.103  -0.676  1.00  0.00     0.030 A 
HETATM   14  C23 UNL     1      -3.146   0.079  -0.219  1.00  0.00    -0.024 A 
HETATM   15  C24 UNL     1      -3.940   1.212  -0.456  1.00  0.00     0.027 A 
HETATM   16  C25 UNL     1      -5.235   1.200  -0.008  1.00  0.00     0.002 A 
ENDROOT
BRANCH  12  17
HETATM   17  C14 UNL     1       0.333  -0.844  -0.925  1.00  0.00     0.252 C 
HETATM   18  O2  UNL     1       0.506  -0.581  -2.152  1.00  0.00    -0.268 OA
HETATM   19  N2  UNL     1       1.444  -0.949  -0.074  1.00  0.00    -0.357 N 
ATOM     20  H2  UNL     1       1.297  -1.145   0.916  1.00  0.00     0.162 HD
BRANCH  19  21
HETATM   21  C15 UNL     1       2.819  -0.783  -0.579  1.00  0.00     0.124 C 
BRANCH  21  22
HETATM   22  C16 UNL     1       3.797  -0.920   0.555  1.00  0.00     0.039 C 
BRANCH  22  23
HETATM   23  C17 UNL     1       5.227  -0.803   0.179  1.00  0.00     0.127 C 
BRANCH  23  24
HETATM   24  N3  UNL     1       5.629   0.412  -0.446  1.00  0.00    -0.356 N 
HETATM   25  C18 UNL     1       5.594   0.463  -1.909  1.00  0.00     0.152 C 
HETATM   26  C19 UNL     1       6.066   1.553   0.265  1.00  0.00     0.218 C 
HETATM   27  O3  UNL     1       6.434   2.605  -0.365  1.00  0.00    -0.273 OA
BRANCH  26  28
HETATM   28  C20 UNL     1       6.134   1.627   1.754  1.00  0.00     0.098 C 
HETATM   29  C21 UNL     1       7.587   1.626   2.246  1.00  0.00     0.014 C 
ENDBRANCH  26  28
ENDBRANCH  23  24
ENDBRANCH  22  23
ENDBRANCH  21  22
ENDBRANCH  19  21
ENDBRANCH  12  17
BRANCH  11  30
HETATM   30  C11 UNL     1      -0.641  -3.329   0.325  1.00  0.00     0.035 C 
HETATM   31  C12 UNL     1      -0.604  -4.105  -0.988  1.00  0.00     0.010 C 
ENDBRANCH  11  30
BRANCH   1  32
HETATM   32  C2  UNL     1      -5.614   3.517  -0.896  1.00  0.00     0.002 C 
HETATM   33  C1  UNL     1      -5.052   3.657  -2.069  1.00  0.00     0.012 C 
ENDBRANCH   1  32
TORSDOF 8
