REMARK  6 active torsions:
REMARK  status: ('A' for Active; 'I' for Inactive)
REMARK    1  A    between atoms: C2_2  and  C3_3 
REMARK    2  A    between atoms: C2_2  and  N1_28 
REMARK    3  A    between atoms: C3_3  and  C4_4 
REMARK    4  A    between atoms: C15_15  and  C16_16 
REMARK    5  A    between atoms: C19_19  and  O1_20 
REMARK       I    between atoms: N1_28  and  C26_30 
REMARK       I    between atoms: C26_30  and  N2_32 
REMARK    6  A    between atoms: N2_32  and  N3_33 
ROOT
HETATM    1  C4  UNL     1       2.867   0.182  -0.644  1.00  0.00    -0.004 C 
HETATM    2  C5  UNL     1       2.566  -1.048  -1.442  1.00  0.00     0.006 C 
HETATM    3  C6  UNL     1       1.039  -1.288  -1.337  1.00  0.00     0.010 C 
HETATM    4  C7  UNL     1       0.525   0.106  -1.239  1.00  0.00    -0.036 C 
HETATM    5  C8  UNL     1       0.600   0.737  -2.624  1.00  0.00     0.016 C 
HETATM    6  C9  UNL     1       1.504   0.818  -0.353  1.00  0.00    -0.002 C 
HETATM    7  C10 UNL     1       1.144   0.838   1.080  1.00  0.00     0.006 C 
HETATM    8  C11 UNL     1       0.039  -0.078   1.515  1.00  0.00     0.011 C 
HETATM    9  C12 UNL     1      -1.119  -0.228   0.635  1.00  0.00    -0.028 C 
HETATM   10  C13 UNL     1      -1.537  -1.681   0.571  1.00  0.00     0.011 C 
HETATM   11  C14 UNL     1      -2.964  -1.701   1.063  1.00  0.00     0.006 C 
HETATM   12  C15 UNL     1      -3.464  -0.379   0.569  1.00  0.00    -0.001 C 
HETATM   13  C21 UNL     1      -2.374   0.536   0.995  1.00  0.00    -0.032 C 
HETATM   14  C22 UNL     1      -2.462   0.943   2.416  1.00  0.00     0.016 C 
HETATM   15  C23 UNL     1      -2.415   1.766   0.144  1.00  0.00     0.011 C 
HETATM   16  C24 UNL     1      -1.265   1.686  -0.799  1.00  0.00     0.007 C 
HETATM   17  C25 UNL     1      -0.895   0.223  -0.786  1.00  0.00     0.003 C 
ENDROOT
BRANCH   1  18
HETATM   18  C3  UNL     1       3.782   1.170  -1.275  1.00  0.00     0.057 C 
BRANCH  18  19
HETATM   19  C2  UNL     1       5.154   0.801  -1.614  1.00  0.00    -0.011 C 
HETATM   20  C1  UNL     1       5.336  -0.358  -2.581  1.00  0.00     0.063 C 
BRANCH  19  21
HETATM   21  N1  UNL     1       6.190   0.986  -0.669  1.00  0.00    -0.303 N 
HETATM   22  C26 UNL     1       7.203   0.055  -0.363  1.00  0.00     0.415 C 
HETATM   23  O2  UNL     1       7.117  -1.066  -0.955  1.00  0.00    -0.228 OA
HETATM   24  N2  UNL     1       8.253   0.308   0.522  1.00  0.00    -0.272 NA
ATOM     25  H1  UNL     1       6.205   1.872  -0.164  1.00  0.00     0.171 HD
BRANCH  24  26
HETATM   26  N3  UNL     1       9.225   0.541   1.340  1.00  0.00    -0.275 N 
ATOM     27  H32 UNL     1       8.489   0.316   0.670  1.00  0.00     0.191 HD
ATOM     28  H31 UNL     1       9.992   0.726   1.986  1.00  0.00     0.191 HD
ENDBRANCH  24  26
ENDBRANCH  19  21
ENDBRANCH  18  19
ENDBRANCH   1  18
BRANCH  12  29
HETATM   29  C16 UNL     1      -4.858  -0.035   0.792  1.00  0.00    -0.007 C 
HETATM   30  C17 UNL     1      -5.419  -0.049   2.159  1.00  0.00     0.007 C 
HETATM   31  C18 UNL     1      -6.767  -0.787   2.103  1.00  0.00     0.032 C 
HETATM   32  C19 UNL     1      -7.114  -0.690   0.606  1.00  0.00     0.118 C 
HETATM   33  C20 UNL     1      -5.733  -1.044   0.041  1.00  0.00     0.036 C 
BRANCH  32  34
HETATM   34  O1  UNL     1      -8.074  -1.599   0.229  1.00  0.00    -0.396 OA
ATOM     35  H1  UNL     1      -8.288  -1.539  -0.695  1.00  0.00     0.210 HD
ENDBRANCH  32  34
ENDBRANCH  12  29
TORSDOF 6
