REMARK  3 active torsions:
REMARK  status: ('A' for Active; 'I' for Inactive)
REMARK    1  A    between atoms: C1_2  and  N1_3 
REMARK    2  A    between atoms: C1_2  and  N2_6 
REMARK    3  A    between atoms: N2_6  and  C2_8 
ROOT
HETATM    1  C2  UNL     1       0.853   0.119  -0.433  1.00  0.00     0.092 C 
HETATM    2  C3  UNL     1      -0.239  -0.667  -1.139  1.00  0.00     0.009 C 
HETATM    3  C4  UNL     1      -1.156   0.345  -1.788  1.00  0.00     0.011 C 
HETATM    4  C5  UNL     1      -1.801   1.164  -0.695  1.00  0.00    -0.013 C 
HETATM    5  C6  UNL     1      -2.607   0.280   0.215  1.00  0.00     0.009 C 
HETATM    6  C7  UNL     1      -1.700  -0.730   0.851  1.00  0.00    -0.013 C 
HETATM    7  C8  UNL     1      -1.029  -1.561  -0.255  1.00  0.00     0.011 C 
HETATM    8  C9  UNL     1      -0.582  -0.127   1.633  1.00  0.00     0.011 C 
HETATM    9  C10 UNL     1       0.196   0.813   0.740  1.00  0.00     0.009 C 
HETATM   10  C11 UNL     1      -0.745   1.850   0.130  1.00  0.00     0.011 C 
ENDROOT
BRANCH   1  11
HETATM   11  N2  UNL     1       1.971  -0.690  -0.106  1.00  0.00    -0.361 N 
ATOM     12  H2  UNL     1       1.898  -1.698  -0.242  1.00  0.00     0.162 HD
BRANCH  11  13
HETATM   13  C1  UNL     1       3.187  -0.163   0.402  1.00  0.00     0.182 C 
HETATM   14  S1  UNL     1       3.410   1.451   0.624  1.00  0.00    -0.040 SA
BRANCH  13  15
HETATM   15  N1  UNL     1       4.287  -0.996   0.731  1.00  0.00    -0.275 N 
HETATM   16 CL1  UNL     1       5.758  -0.352   1.346  1.00  0.00     0.013 Cl
ATOM     17  H1  UNL     1       4.203  -2.004   0.599  1.00  0.00     0.183 HD
ENDBRANCH  13  15
ENDBRANCH  11  13
ENDBRANCH   1  11
TORSDOF 3
