REMARK  2 active torsions:
REMARK  status: ('A' for Active; 'I' for Inactive)
REMARK       I    between atoms: N1_1  and  C1_5 
REMARK       I    between atoms: C1_5  and  N2_6 
REMARK       I    between atoms: C1_5  and  N3_10 
REMARK    1  A    between atoms: N3_10  and  N4_12 
REMARK    2  A    between atoms: N4_12  and  C2_14 
ROOT
HETATM    1  C2  UNL     1      -0.288   0.362  -0.279  1.00  0.00     0.150 A 
HETATM    2  N5  UNL     1      -0.117   1.686  -0.145  1.00  0.00    -0.336 N 
ATOM      3  H5  UNL     1       0.797   2.094  -0.340  1.00  0.00     0.168 HD
HETATM    4  C3  UNL     1      -1.141   2.497   0.246  1.00  0.00     0.182 A 
HETATM    5  N6  UNL     1      -2.328   1.914   0.491  1.00  0.00    -0.346 N 
ATOM      6  H6  UNL     1      -3.101   2.511   0.785  1.00  0.00     0.167 HD
HETATM    7  C4  UNL     1      -2.558   0.609   0.375  1.00  0.00     0.132 A 
HETATM    8  C5  UNL     1      -3.806   0.036   0.637  1.00  0.00     0.275 A 
HETATM    9  O1  UNL     1      -4.761   0.772   0.999  1.00  0.00    -0.266 OA
HETATM   10  N7  UNL     1      -3.995  -1.274   0.509  1.00  0.00    -0.318 N 
ATOM     11  H7  UNL     1      -4.906  -1.690   0.700  1.00  0.00     0.169 HD
HETATM   12  C6  UNL     1      -2.954  -2.041   0.120  1.00  0.00     0.184 A 
HETATM   13  N8  UNL     1      -1.740  -1.506  -0.139  1.00  0.00    -0.347 N 
ATOM     14  H8  UNL     1      -0.977  -2.116  -0.432  1.00  0.00     0.167 HD
HETATM   15  C7  UNL     1      -1.521  -0.204  -0.020  1.00  0.00     0.111 A 
ENDROOT
BRANCH   1  16
HETATM   16  N4  UNL     1       0.674  -0.411  -0.648  1.00  0.00    -0.285 N 
ATOM     17  H4  UNL     1       0.491  -1.411  -0.735  1.00  0.00     0.188 HD
BRANCH  16  18
HETATM   18  N3  UNL     1       1.952   0.058  -0.933  1.00  0.00    -0.282 N 
HETATM   19  C1  UNL     1       3.114  -0.721  -0.571  1.00  0.00     0.494 C 
HETATM   20  N1  UNL     1       4.326  -0.046  -0.960  1.00  0.00    -0.032 N 
HETATM   21  N2  UNL     1       3.194  -0.979   0.849  1.00  0.00    -0.032 N 
ATOM     22  H13 UNL     1       4.505   0.796  -0.413  1.00  0.00     0.279 HD
ATOM     23  H12 UNL     1       5.168  -0.558  -0.696  1.00  0.00     0.279 HD
ATOM     24  H11 UNL     1       4.270   0.136  -1.962  1.00  0.00     0.279 HD
ATOM     25  H23 UNL     1       4.036  -1.491   1.113  1.00  0.00     0.279 HD
ATOM     26  H22 UNL     1       3.373  -0.137   1.396  1.00  0.00     0.279 HD
ATOM     27  H21 UNL     1       2.336  -1.457   1.124  1.00  0.00     0.279 HD
ATOM     28  H3  UNL     1       2.070   0.957  -1.400  1.00  0.00     0.184 HD
ENDBRANCH  16  18
ENDBRANCH   1  16
TORSDOF 2
