REMARK  1 active torsions:
REMARK  status: ('A' for Active; 'I' for Inactive)
REMARK    1  A    between atoms: N1_2  and  C2_5 
ROOT
HETATM    1  C2  UNL     1       0.594   0.007  -0.022  1.00  0.00     0.280 C 
HETATM    2  C3  UNL     1      -0.349   1.114  -0.479  1.00  0.00     0.054 C 
HETATM    3  C4  UNL     1      -1.431   1.147   0.585  1.00  0.00     0.007 C 
HETATM    4  C5  UNL     1      -2.178  -0.142   0.518  1.00  0.00     0.041 C 
HETATM    5  C6  UNL     1      -1.448  -1.298  -0.054  1.00  0.00     0.176 C 
HETATM    6 CL1  UNL     1      -1.972  -2.745   0.864  1.00  0.00    -0.103 Cl
HETATM    7  N2  UNL     1      -0.032  -1.271  -0.022  1.00  0.00    -0.379 N 
ATOM      8  H2  UNL     1       0.516  -2.131   0.000  1.00  0.00     0.156 HD
ENDROOT
BRANCH   1   9
HETATM    9  N1  UNL     1       1.786   0.115  -0.806  1.00  0.00    -0.058 N 
HETATM   10  C1  UNL     1       3.000   0.184  -0.046  1.00  0.00     0.269 C 
ATOM     11  H12 UNL     1       1.721   0.910  -1.441  1.00  0.00     0.279 HD
ATOM     12  H11 UNL     1       1.835  -0.647  -1.482  1.00  0.00     0.279 HD
ENDBRANCH   1   9
TORSDOF 1
