REMARK  1 active torsions:
REMARK  status: ('A' for Active; 'I' for Inactive)
REMARK    1  A    between atoms: C5_8  and  C6_9 
ROOT
HETATM    1  C1  UNL     1      -2.492   0.922  -0.306  1.00  0.00     0.041 C 
HETATM    2  C2  UNL     1      -1.858   0.225   0.893  1.00  0.00     0.208 C 
HETATM    3  C3  UNL     1      -1.865  -1.262   0.583  1.00  0.00     0.264 C 
HETATM    4  N1  UNL     1      -0.968  -1.573  -0.487  1.00  0.00    -0.071 N 
ATOM      5  H11 UNL     1      -1.316  -1.193  -1.367  1.00  0.00     0.277 HD
ATOM      6  H12 UNL     1      -1.002  -2.569  -0.703  1.00  0.00     0.277 HD
HETATM    7  C4  UNL     1       0.390  -1.153  -0.259  1.00  0.00     0.265 C 
HETATM    8  C5  UNL     1       0.365   0.348   0.030  1.00  0.00     0.215 C 
HETATM    9  N2  UNL     1      -0.540   0.697   1.073  1.00  0.00    -0.063 N 
ATOM     10  H21 UNL     1      -0.175   0.392   1.975  1.00  0.00     0.278 HD
ATOM     11  H22 UNL     1      -0.542   1.707   1.216  1.00  0.00     0.278 HD
ENDROOT
BRANCH   8  12
HETATM   12  C6  UNL     1       1.728   0.916   0.233  1.00  0.00     0.018 A 
HETATM   13  C7  UNL     1       2.638   0.457   1.303  1.00  0.00     0.007 A 
HETATM   14  C8  UNL     1       2.921   0.161  -0.178  1.00  0.00     0.007 A 
ENDBRANCH   8  12
TORSDOF 1
