REMARK  1 active torsions:
REMARK  status: ('A' for Active; 'I' for Inactive)
REMARK    1  A    between atoms: C4_6  and  C5_7 
ROOT
HETATM    1  C1  UNL     1      -0.651  -1.463  -0.247  1.00  0.00     0.017 C 
HETATM    2  C2  UNL     1      -0.577  -0.189   0.129  1.00  0.00    -0.054 C 
HETATM    3  C3  UNL     1      -1.788   0.563   0.627  1.00  0.00     0.121 C 
HETATM    4  S1  UNL     1      -2.007   1.812  -0.714  1.00  0.00    -0.092 SA
HETATM    5  S2  UNL     1       0.115   1.961  -1.132  1.00  0.00    -0.077 SA
HETATM    6  C4  UNL     1       0.581   0.726   0.155  1.00  0.00     0.188 C 
ENDROOT
BRANCH   6   7
HETATM    7  C5  UNL     1       1.851   0.101  -0.131  1.00  0.00     0.192 C 
HETATM    8  O1  UNL     1       2.771   0.114   0.716  1.00  0.00    -0.647 OA
HETATM    9  O2  UNL     1       2.074  -0.523  -1.342  1.00  0.00    -0.647 OA
ENDBRANCH   6   7
TORSDOF 1
