REMARK  8 active torsions:
REMARK  status: ('A' for Active; 'I' for Inactive)
REMARK    1  A    between atoms: N1_4  and  N2_6 
REMARK    2  A    between atoms: N2_6  and  C4_8 
REMARK    3  A    between atoms: C5_11  and  N4_12 
REMARK    4  A    between atoms: C10_20  and  N6_21 
REMARK    5  A    between atoms: N6_21  and  C11_23 
REMARK    6  A    between atoms: C12_24  and  N7_25 
REMARK    7  A    between atoms: N7_25  and  C13_27 
REMARK    8  A    between atoms: C17_31  and  N8_32 
ROOT
HETATM    1  C11 UNL     1       1.542   0.663  -2.165  1.00  0.00     0.128 A 
HETATM    2  C12 UNL     1       2.668   0.485  -1.394  1.00  0.00     0.175 A 
HETATM    3  O2  UNL     1       3.432   1.561  -1.508  1.00  0.00    -0.279 OA
HETATM    4  C19 UNL     1       2.889   2.436  -2.298  1.00  0.00     0.184 A 
HETATM    5  C20 UNL     1       3.394   3.740  -2.687  1.00  0.00     0.127 C 
HETATM    6  N9  UNL     1       3.786   4.785  -3.012  1.00  0.00    -0.189 NA
HETATM    7  C21 UNL     1       1.691   1.926  -2.747  1.00  0.00     0.122 A 
HETATM    8  N10 UNL     1       0.787   2.574  -3.634  1.00  0.00    -0.096 NA
ENDROOT
BRANCH   2   9
HETATM    9  N7  UNL     1       2.965  -0.674  -0.602  1.00  0.00    -0.364 N 
ATOM     10  H7  UNL     1       2.305  -1.452  -0.589  1.00  0.00     0.162 HD
BRANCH   9  11
HETATM   11  C13 UNL     1       4.184  -0.764   0.181  1.00  0.00     0.085 C 
HETATM   12  C14 UNL     1       4.260  -2.088   0.887  1.00  0.00     0.025 C 
HETATM   13  C15 UNL     1       5.327  -2.193   1.906  1.00  0.00     0.004 C 
HETATM   14  C16 UNL     1       6.158  -0.931   1.990  1.00  0.00     0.033 C 
HETATM   15  C17 UNL     1       5.150   0.182   2.305  1.00  0.00     0.185 C 
HETATM   16  C18 UNL     1       4.377   0.419   1.055  1.00  0.00     0.057 C 
BRANCH  15  17
HETATM   17  N8  UNL     1       5.875   1.355   2.673  1.00  0.00    -0.075 N 
ATOM     18  H83 UNL     1       6.528   1.189   3.439  1.00  0.00     0.274 HD
ATOM     19  H82 UNL     1       6.557   1.632   1.967  1.00  0.00     0.274 HD
ATOM     20  H81 UNL     1       5.205   2.095   2.882  1.00  0.00     0.274 HD
ENDBRANCH  15  17
ENDBRANCH   9  11
ENDBRANCH   2   9
BRANCH   1  21
HETATM   21  N6  UNL     1       0.448  -0.196  -2.369  1.00  0.00    -0.184 N 
ATOM     22  H6  UNL     1       0.552  -0.984  -3.009  1.00  0.00     0.184 HD
BRANCH  21  23
HETATM   23  C10 UNL     1      -0.694  -0.019  -1.768  1.00  0.00     0.712 A 
HETATM   24  N5  UNL     1      -1.754  -0.818  -1.947  1.00  0.00    -0.021 N 
HETATM   25  C5  UNL     1      -2.912  -0.609  -1.291  1.00  0.00     0.709 A 
ATOM     26  H5  UNL     1      -1.683  -1.603  -2.595  1.00  0.00     0.203 HD
HETATM   27  N3  UNL     1      -3.015   0.421  -0.436  1.00  0.00    -0.020 N 
HETATM   28  C4  UNL     1      -1.984   1.237  -0.230  1.00  0.00     0.726 A 
ATOM     29  H3  UNL     1      -3.892   0.580   0.060  1.00  0.00     0.203 HD
HETATM   30  N11 UNL     1      -0.821   1.001  -0.911  1.00  0.00    -0.020 N 
ATOM     31  H11 UNL     1      -0.026   1.622  -0.761  1.00  0.00     0.203 HD
BRANCH  25  32
HETATM   32  N4  UNL     1      -4.038  -1.453  -1.471  1.00  0.00    -0.213 N 
HETATM   33  C6  UNL     1      -5.244  -1.206  -0.741  1.00  0.00     0.167 C 
HETATM   34  C7  UNL     1      -6.262  -2.309  -0.952  1.00  0.00     0.188 C 
HETATM   35  O1  UNL     1      -5.634  -3.536  -1.177  1.00  0.00    -0.388 OA
HETATM   36  C8  UNL     1      -5.046  -3.499  -2.425  1.00  0.00     0.188 C 
HETATM   37  C9  UNL     1      -3.888  -2.548  -2.419  1.00  0.00     0.167 C 
ENDBRANCH  25  32
BRANCH  28  38
HETATM   38  N2  UNL     1      -1.981   2.228   0.579  1.00  0.00    -0.131 N 
ATOM     39  H2  UNL     1      -1.111   2.758   0.623  1.00  0.00     0.205 HD
BRANCH  38  40
HETATM   40  N1  UNL     1      -2.987   2.674   1.394  1.00  0.00    -0.295 N 
HETATM   41  C2  UNL     1      -3.307   2.052   2.467  1.00  0.00    -0.004 C 
HETATM   42  C1  UNL     1      -2.603   0.825   2.877  1.00  0.00     0.064 C 
HETATM   43  C3  UNL     1      -4.406   2.582   3.307  1.00  0.00     0.064 C 
ATOM     44  H1  UNL     1      -3.494   3.522   1.140  1.00  0.00     0.186 HD
ENDBRANCH  38  40
ENDBRANCH  28  38
ENDBRANCH  21  23
ENDBRANCH   1  21
TORSDOF 8
