REMARK  7 active torsions:
REMARK  status: ('A' for Active; 'I' for Inactive)
REMARK    1  A    between atoms: C3_3  and  N1_4 
REMARK    2  A    between atoms: N1_4  and  C4_6 
REMARK    3  A    between atoms: C5_9  and  N3_10 
REMARK    4  A    between atoms: N3_10  and  C6_12 
REMARK    5  A    between atoms: C9_16  and  C10_17 
REMARK    6  A    between atoms: C17_35  and  N9_36 
REMARK    7  A    between atoms: N9_36  and  O3_38 
ROOT
HETATM    1  C4  UNL     1      -1.405   0.216   0.694  1.00  0.00     0.138 A 
HETATM    2  N2  UNL     1      -0.611  -0.346  -0.219  1.00  0.00    -0.176 N 
ATOM      3  H2  UNL     1      -1.059  -0.915  -0.938  1.00  0.00     0.186 HD
HETATM    4  C5  UNL     1       0.720  -0.229  -0.275  1.00  0.00     0.681 A 
HETATM    5  N5  UNL     1       1.326   0.517   0.665  1.00  0.00    -0.189 N 
ATOM      6  H5  UNL     1       2.340   0.629   0.654  1.00  0.00     0.184 HD
HETATM    7  C11 UNL     1       0.585   1.120   1.629  1.00  0.00     0.089 A 
HETATM    8  C12 UNL     1       1.177   1.893   2.609  1.00  0.00     0.088 A 
HETATM    9  C13 UNL     1       2.585   2.085   2.645  1.00  0.00     0.103 C 
HETATM   10  N6  UNL     1       3.729   2.261   2.681  1.00  0.00    -0.191 NA
HETATM   11  C14 UNL     1       0.405   2.506   3.590  1.00  0.00     0.114 A 
HETATM   12  N7  UNL     1      -0.923   2.353   3.595  1.00  0.00    -0.350 N 
ATOM     13  H7  UNL     1      -1.482   2.806   4.318  1.00  0.00     0.166 HD
HETATM   14  C15 UNL     1      -1.524   1.612   2.661  1.00  0.00     0.115 A 
HETATM   15  N8  UNL     1      -2.813   1.499   2.715  1.00  0.00    -0.385 N 
ATOM     16  H81 UNL     1      -3.272   0.933   2.001  1.00  0.00     0.157 HD
ATOM     17  H82 UNL     1      -3.355   1.960   3.446  1.00  0.00     0.157 HD
HETATM   18  C16 UNL     1      -0.787   0.985   1.666  1.00  0.00     0.081 A 
ENDROOT
BRANCH   4  19
HETATM   19  N3  UNL     1       1.485  -0.864  -1.286  1.00  0.00    -0.212 N 
ATOM     20  H3  UNL     1       0.968  -1.417  -1.970  1.00  0.00     0.179 HD
BRANCH  19  21
HETATM   21  C6  UNL     1       2.889  -0.811  -1.446  1.00  0.00     0.169 C 
HETATM   22  C7  UNL     1       3.460   0.565  -1.725  1.00  0.00     0.116 C 
HETATM   23  C8  UNL     1       4.924   0.338  -1.572  1.00  0.00     0.152 C 
HETATM   24  O1  UNL     1       5.736   0.500  -2.460  1.00  0.00    -0.296 OA
HETATM   25  C9  UNL     1       5.247  -0.110  -0.191  1.00  0.00     0.207 C 
HETATM   26  S1  UNL     1       3.774  -1.168   0.130  1.00  0.00    -0.121 SA
BRANCH  25  27
HETATM   27  C10 UNL     1       6.445  -0.988  -0.166  1.00  0.00     0.252 C 
HETATM   28  N4  UNL     1       6.899  -1.510   1.074  1.00  0.00    -0.061 NA
HETATM   29  O2  UNL     1       7.091  -1.300  -1.202  1.00  0.00    -0.275 OA
ENDBRANCH  25  27
ENDBRANCH  19  21
ENDBRANCH   4  19
BRANCH   1  30
HETATM   30  N1  UNL     1      -2.669   0.096   0.736  1.00  0.00    -0.338 N 
ATOM     31  H1  UNL     1      -3.149   0.582   1.494  1.00  0.00     0.167 HD
BRANCH  30  32
HETATM   32  C3  UNL     1      -3.474  -0.634  -0.149  1.00  0.00     0.086 A 
HETATM   33  C2  UNL     1      -4.132  -0.247  -1.302  1.00  0.00     0.036 A 
HETATM   34  C1  UNL     1      -4.076   1.147  -1.824  1.00  0.00     0.071 C 
HETATM   35  N10 UNL     1      -4.786  -1.316  -1.815  1.00  0.00    -0.360 N 
HETATM   36  C18 UNL     1      -4.581  -2.400  -1.037  1.00  0.00     0.124 A 
HETATM   37  C19 UNL     1      -5.584  -1.302  -3.015  1.00  0.00     0.155 C 
HETATM   38  C17 UNL     1      -3.768  -1.976  -0.005  1.00  0.00     0.098 A 
BRANCH  38  39
HETATM   39  N9  UNL     1      -3.324  -2.845   1.038  1.00  0.00    -0.266 N 
ATOM     40  H9  UNL     1      -2.334  -3.029   1.203  1.00  0.00     0.194 HD
BRANCH  39  41
HETATM   41  O3  UNL     1      -4.225  -3.369   1.740  1.00  0.00    -0.289 OA
ATOM     42  H3  UNL     1      -3.930  -3.947   2.434  1.00  0.00     0.244 HD
ENDBRANCH  39  41
ENDBRANCH  38  39
ENDBRANCH  30  32
ENDBRANCH   1  30
TORSDOF 7
