REMARK  6 active torsions:
REMARK  status: ('A' for Active; 'I' for Inactive)
REMARK    1  A    between atoms: O1_2  and  C2_3 
REMARK    2  A    between atoms: C5_6  and  N1_7 
REMARK    3  A    between atoms: N1_7  and  C6_9 
REMARK    4  A    between atoms: C9_14  and  N3_15 
REMARK    5  A    between atoms: N3_15  and  C10_17 
REMARK    6  A    between atoms: C18_29  and  O3_30 
ROOT
HETATM    1  C6  UNL     1       0.071  -1.041  -0.945  1.00  0.00     0.684 A 
HETATM    2  N2  UNL     1      -0.229  -0.050  -0.083  1.00  0.00    -0.194 N 
ATOM      3  H2  UNL     1       0.487   0.620   0.197  1.00  0.00     0.184 HD
HETATM    4  C7  UNL     1      -1.484   0.051   0.409  1.00  0.00     0.041 A 
HETATM    5  C8  UNL     1      -2.457  -0.853   0.032  1.00  0.00     0.033 A 
HETATM    6  C9  UNL     1      -2.141  -1.860  -0.848  1.00  0.00     0.128 A 
HETATM    7  N4  UNL     1      -0.882  -1.910  -1.302  1.00  0.00    -0.176 N 
ATOM      8  H4  UNL     1      -0.636  -2.652  -1.957  1.00  0.00     0.186 HD
HETATM    9  C12 UNL     1      -3.803  -0.655   0.629  1.00  0.00     0.213 C 
HETATM   10  O2  UNL     1      -4.184   0.656   0.618  1.00  0.00    -0.376 OA
HETATM   11  C13 UNL     1      -3.254   1.594   0.938  1.00  0.00     0.059 C 
HETATM   12  C14 UNL     1      -3.029   2.594  -0.203  1.00  0.00     0.046 C 
HETATM   13  C15 UNL     1      -3.820   2.428   2.094  1.00  0.00     0.046 C 
HETATM   14  C16 UNL     1      -1.913   1.107   1.363  1.00  0.00     0.095 C 
ENDROOT
BRANCH   1  15
HETATM   15  N1  UNL     1       1.284  -1.133  -1.417  1.00  0.00    -0.192 N 
ATOM     16  H1  UNL     1       1.501  -1.886  -2.070  1.00  0.00     0.184 HD
BRANCH  15  17
HETATM   17  C5  UNL     1       2.306  -0.229  -1.057  1.00  0.00     0.052 A 
HETATM   18  C4  UNL     1       2.352   0.975  -1.704  1.00  0.00     0.033 A 
HETATM   19  C3  UNL     1       3.341   1.871  -1.367  1.00  0.00     0.042 A 
HETATM   20  C2  UNL     1       4.287   1.589  -0.395  1.00  0.00     0.101 A 
HETATM   21  C18 UNL     1       4.195   0.361   0.227  1.00  0.00     0.103 A 
HETATM   22  C17 UNL     1       3.219  -0.562  -0.083  1.00  0.00     0.069 A 
BRANCH  20  23
HETATM   23  O1  UNL     1       5.290   2.479  -0.043  1.00  0.00    -0.353 OA
HETATM   24  C1  UNL     1       5.322   3.725  -0.727  1.00  0.00     0.210 C 
ENDBRANCH  20  23
BRANCH  21  25
HETATM   25  O3  UNL     1       5.163   0.091   1.211  1.00  0.00    -0.353 OA
HETATM   26  C19 UNL     1       5.093  -1.178   1.875  1.00  0.00     0.210 C 
ENDBRANCH  21  25
ENDBRANCH  15  17
ENDBRANCH   1  15
BRANCH   6  27
HETATM   27  N3  UNL     1      -3.055  -2.703  -1.197  1.00  0.00    -0.358 N 
ATOM     28  H3  UNL     1      -3.986  -2.583  -0.798  1.00  0.00     0.162 HD
BRANCH  27  29
HETATM   29  C10 UNL     1      -2.856  -3.795  -2.104  1.00  0.00     0.176 C 
HETATM   30  C11 UNL     1      -2.389  -4.988  -1.271  1.00  0.00     0.049 C 
HETATM   31 CL1  UNL     1      -4.440  -4.218  -2.828  1.00  0.00    -0.103 Cl
ENDBRANCH  27  29
ENDBRANCH   6  27
TORSDOF 6
