REMARK  5 active torsions:
REMARK  status: ('A' for Active; 'I' for Inactive)
REMARK    1  A    between atoms: N1_2  and  C2_4 
REMARK    2  A    between atoms: C3_7  and  N3_8 
REMARK    3  A    between atoms: N3_8  and  C4_10 
REMARK    4  A    between atoms: C4_10  and  C5_11 
REMARK       I    between atoms: C5_11  and  N4_13 
REMARK    5  A    between atoms: N4_13  and  N5_15 
ROOT
HETATM    1  C2  UNL     1      -2.191  -0.740  -0.200  1.00  0.00     0.728 A 
HETATM    2  N2  UNL     1      -1.120  -1.538  -0.355  1.00  0.00    -0.020 N 
ATOM      3  H2  UNL     1      -1.254  -2.454  -0.783  1.00  0.00     0.203 HD
HETATM    4  C3  UNL     1       0.117  -1.185   0.028  1.00  0.00     0.707 A 
HETATM    5  N6  UNL     1       0.296   0.031   0.596  1.00  0.00    -0.019 N 
ATOM      6  H6  UNL     1       1.228   0.321   0.894  1.00  0.00     0.203 HD
HETATM    7  C6  UNL     1      -0.750   0.857   0.769  1.00  0.00     0.735 A 
HETATM    8  N7  UNL     1      -0.926   2.102   1.286  1.00  0.00    -0.161 N 
ATOM      9  H7  UNL     1      -0.184   2.682   1.678  1.00  0.00     0.187 HD
HETATM   10  C7  UNL     1      -2.202   2.453   1.206  1.00  0.00     0.209 A 
HETATM   11 CL1  UNL     1      -2.856   3.975   1.757  1.00  0.00    -0.043 Cl
HETATM   12  N8  UNL     1      -2.853   1.426   0.634  1.00  0.00    -0.239 N 
ATOM     13  H8  UNL     1      -3.854   1.396   0.438  1.00  0.00     0.191 HD
HETATM   14  N9  UNL     1      -1.992   0.461   0.366  1.00  0.00     0.093 N 
ENDROOT
BRANCH   4  15
HETATM   15  N3  UNL     1       1.140  -1.984  -0.137  1.00  0.00    -0.216 N 
ATOM     16  H3  UNL     1       0.989  -2.896  -0.568  1.00  0.00     0.178 HD
BRANCH  15  17
HETATM   17  C4  UNL     1       2.462  -1.621   0.266  1.00  0.00     0.242 C 
BRANCH  17  18
HETATM   18  C5  UNL     1       3.115  -0.662  -0.629  1.00  0.00     0.253 C 
HETATM   19  O1  UNL     1       2.499  -0.241  -1.642  1.00  0.00    -0.270 OA
HETATM   20  N4  UNL     1       4.429  -0.206  -0.362  1.00  0.00    -0.275 N 
ATOM     21  H4  UNL     1       4.924  -0.549   0.461  1.00  0.00     0.189 HD
BRANCH  20  22
HETATM   22  N5  UNL     1       5.053   0.707  -1.212  1.00  0.00    -0.343 N 
ATOM     23  H52 UNL     1       4.544   1.040  -2.031  1.00  0.00     0.176 HD
ATOM     24  H51 UNL     1       5.999   1.035  -1.020  1.00  0.00     0.176 HD
ENDBRANCH  20  22
ENDBRANCH  17  18
ENDBRANCH  15  17
ENDBRANCH   4  15
BRANCH   1  25
HETATM   25  N1  UNL     1      -3.355  -1.122  -0.582  1.00  0.00    -0.228 N 
HETATM   26  C1  UNL     1      -4.577  -0.398  -0.487  1.00  0.00     0.165 C 
ATOM     27  H1  UNL     1      -3.411  -2.050  -1.001  1.00  0.00     0.177 HD
ENDBRANCH   1  25
TORSDOF 5
