REMARK  6 active torsions:
REMARK  status: ('A' for Active; 'I' for Inactive)
REMARK    1  A    between atoms: C2_3  and  N2_4 
REMARK    2  A    between atoms: C2_3  and  C3_8 
REMARK    3  A    between atoms: C2_3  and  N5_17 
REMARK       I    between atoms: C3_8  and  N3_10 
REMARK    4  A    between atoms: N3_10  and  C4_12 
REMARK    5  A    between atoms: C4_12  and  N4_13 
REMARK    6  A    between atoms: N4_13  and  O2_15 
ROOT
HETATM    1  N1  UNL     1      -0.000  -3.147   1.839  1.00  0.00    -0.192 NA
HETATM    2  C1  UNL     1       0.155  -2.100   1.376  1.00  0.00     0.134 C 
HETATM    3  C2  UNL     1       0.376  -0.761   0.780  1.00  0.00     0.386 C 
ENDROOT
BRANCH   3   4
HETATM    4  N2  UNL     1       0.683   0.114   1.908  1.00  0.00    -0.028 N 
ATOM      5  H23 UNL     1      -0.024   0.102   2.643  1.00  0.00     0.279 HD
ATOM      6  H22 UNL     1       1.458  -0.213   2.484  1.00  0.00     0.279 HD
ATOM      7  H21 UNL     1       0.835   1.035   1.498  1.00  0.00     0.279 HD
ENDBRANCH   3   4
BRANCH   3   8
HETATM    8  C3  UNL     1       1.469  -0.779  -0.200  1.00  0.00     0.296 C 
HETATM    9  O1  UNL     1       1.388  -1.474  -1.233  1.00  0.00    -0.267 OA
HETATM   10  N3  UNL     1       2.644  -0.017  -0.016  1.00  0.00    -0.317 N 
ATOM     11  H3  UNL     1       2.723   0.556   0.825  1.00  0.00     0.169 HD
BRANCH  10  12
HETATM   12  C4  UNL     1       3.718  -0.007  -0.938  1.00  0.00     0.206 C 
BRANCH  12  13
HETATM   13  N4  UNL     1       4.744   0.718  -0.682  1.00  0.00    -0.265 N 
ATOM     14  H4  UNL     1       4.752   1.265   0.179  1.00  0.00     0.194 HD
BRANCH  13  15
HETATM   15  O2  UNL     1       5.835   0.790  -1.519  1.00  0.00    -0.289 OA
ATOM     16  H2  UNL     1       6.595   1.327  -1.329  1.00  0.00     0.244 HD
ENDBRANCH  13  15
ENDBRANCH  12  13
ENDBRANCH  10  12
ENDBRANCH   3   8
BRANCH   3  17
HETATM   17  N5  UNL     1      -0.878  -0.295   0.234  1.00  0.00    -0.196 N 
HETATM   18  N6  UNL     1      -1.999  -0.785   0.738  1.00  0.00    -0.301 N 
HETATM   19  C5  UNL     1      -3.217  -0.426   0.312  1.00  0.00     0.138 A 
ATOM     20  H6  UNL     1      -1.932  -1.471   1.490  1.00  0.00     0.186 HD
HETATM   21  C6  UNL     1      -3.380   0.499  -0.704  1.00  0.00     0.119 A 
HETATM   22  N7  UNL     1      -4.651   0.900  -1.178  1.00  0.00    -0.097 NA
HETATM   23  C7  UNL     1      -2.211   1.022  -1.242  1.00  0.00     0.266 A 
HETATM   24  O3  UNL     1      -2.317   1.863  -2.164  1.00  0.00    -0.280 OA
HETATM   25  C8  UNL     1      -0.991   0.602  -0.748  1.00  0.00     0.317 A 
HETATM   26  O4  UNL     1       0.045   1.084  -1.246  1.00  0.00    -0.262 OA
ENDBRANCH   3  17
TORSDOF 6
