REMARK  5 active torsions:
REMARK  status: ('A' for Active; 'I' for Inactive)
REMARK    1  A    between atoms: O1_2  and  C2_3 
REMARK    2  A    between atoms: C4_6  and  O2_7 
REMARK    3  A    between atoms: C5_9  and  O3_10 
REMARK    4  A    between atoms: C10_17  and  C11_18 
REMARK    5  A    between atoms: C12_19  and  C14_21 
ROOT
HETATM    1  C2  UNL     1      -2.357   0.464  -1.132  1.00  0.00     0.102 A 
HETATM    2  C3  UNL     1      -3.388   1.346  -0.776  1.00  0.00     0.103 A 
HETATM    3 CL1  UNL     1      -4.618   1.650  -1.968  1.00  0.00    -0.078 Cl
HETATM    4  C4  UNL     1      -3.401   1.932   0.473  1.00  0.00     0.124 A 
HETATM    5  C5  UNL     1      -2.412   1.670   1.395  1.00  0.00     0.107 A 
HETATM    6  C6  UNL     1      -1.395   0.804   1.051  1.00  0.00    -0.009 A 
HETATM    7  C7  UNL     1      -1.373   0.198  -0.231  1.00  0.00     0.022 A 
HETATM    8  C8  UNL     1      -0.199  -0.648  -0.432  1.00  0.00     0.105 C 
HETATM    9  C9  UNL     1      -0.034  -1.419  -1.673  1.00  0.00     0.053 C 
HETATM   10  O4  UNL     1       0.897   0.250  -0.416  1.00  0.00    -0.364 OA
HETATM   11  C10 UNL     1       1.570   0.140   0.753  1.00  0.00     0.152 C 
HETATM   12  C15 UNL     1       0.618  -0.527   1.734  1.00  0.00     0.044 C 
HETATM   13  C16 UNL     1      -0.388   0.566   2.092  1.00  0.00     0.051 C 
HETATM   14  C17 UNL     1      -0.079  -1.504   0.817  1.00  0.00     0.128 C 
HETATM   15 CL2  UNL     1       0.734  -3.026   0.581  1.00  0.00    -0.121 Cl
ENDROOT
BRANCH  11  16
HETATM   16  C11 UNL     1       2.828  -0.579   0.593  1.00  0.00     0.019 C 
HETATM   17  C12 UNL     1       3.879  -0.096  -0.007  1.00  0.00     0.013 C 
HETATM   18  C13 UNL     1       5.127  -0.951  -0.105  1.00  0.00     0.055 C 
BRANCH  17  19
HETATM   19  C14 UNL     1       3.946   1.219  -0.588  1.00  0.00     0.204 C 
HETATM   20  O5  UNL     1       3.038   2.081  -0.608  1.00  0.00    -0.644 OA
HETATM   21  O6  UNL     1       5.149   1.619  -1.212  1.00  0.00    -0.644 OA
ENDBRANCH  17  19
ENDBRANCH  11  16
BRANCH   1  22
HETATM   22  O1  UNL     1      -2.409  -0.075  -2.372  1.00  0.00    -0.353 OA
HETATM   23  C1  UNL     1      -3.138  -1.244  -2.726  1.00  0.00     0.210 C 
ENDBRANCH   1  22
BRANCH   5  24
HETATM   24  O3  UNL     1      -2.464   2.287   2.654  1.00  0.00    -0.357 OA
ATOM     25  H3  UNL     1      -1.782   2.106   3.290  1.00  0.00     0.217 HD
ENDBRANCH   5  24
BRANCH   4  26
HETATM   26  O2  UNL     1      -4.448   2.803   0.780  1.00  0.00    -0.356 OA
ATOM     27  H2  UNL     1      -4.457   3.206   1.640  1.00  0.00     0.218 HD
ENDBRANCH   4  26
TORSDOF 5
