REMARK  4 active torsions:
REMARK  status: ('A' for Active; 'I' for Inactive)
REMARK    1  A    between atoms: N2_3  and  C2_5 
REMARK    2  A    between atoms: C2_5  and  C3_6 
REMARK    3  A    between atoms: C2_5  and  C8_14 
REMARK    4  A    between atoms: N3_10  and  O1_11 
ROOT
HETATM    1  N1  UNL     1       1.441   3.778   1.263  1.00  0.00    -0.172 NA
HETATM    2  C1  UNL     1       0.634   3.030   0.882  1.00  0.00     0.178 C 
HETATM    3  N2  UNL     1      -0.339   2.129   0.447  1.00  0.00    -0.314 N 
ATOM      4  H2  UNL     1      -1.106   2.486  -0.123  1.00  0.00     0.172 HD
ENDROOT
BRANCH   3   5
HETATM    5  C2  UNL     1      -0.320   0.723   0.759  1.00  0.00     0.176 C 
BRANCH   5   6
HETATM    6  C3  UNL     1       0.901   0.054   0.250  1.00  0.00    -0.011 A 
HETATM    7  C4  UNL     1       1.607  -0.832   1.044  1.00  0.00     0.012 A 
HETATM    8  C5  UNL     1       2.732  -1.439   0.555  1.00  0.00     0.020 A 
HETATM    9  C6  UNL     1       3.164  -1.171  -0.725  1.00  0.00     0.122 A 
HETATM   10  N3  UNL     1       2.484  -0.316  -1.497  1.00  0.00    -0.247 N 
HETATM   11  C7  UNL     1       1.384   0.279  -1.022  1.00  0.00     0.132 A 
BRANCH  10  12
HETATM   12  O1  UNL     1       2.969  -0.088  -2.778  1.00  0.00    -0.284 OA
ATOM     13  H1  UNL     1       2.486   0.519  -3.326  1.00  0.00     0.245 HD
ENDBRANCH  10  12
ENDBRANCH   5   6
BRANCH   5  14
HETATM   14  C8  UNL     1      -1.553   0.056   0.272  1.00  0.00     0.037 A 
HETATM   15  C9  UNL     1      -2.320  -0.849   0.974  1.00  0.00     0.029 A 
HETATM   16  C10 UNL     1      -3.396  -1.266   0.211  1.00  0.00     0.019 A 
HETATM   17  C11 UNL     1      -3.262  -0.583  -0.986  1.00  0.00     0.088 A 
HETATM   18  N4  UNL     1      -2.157   0.200  -0.931  1.00  0.00    -0.367 N 
ATOM     19  H4  UNL     1      -1.830   0.807  -1.683  1.00  0.00     0.165 HD
ENDBRANCH   5  14
ENDBRANCH   3   5
TORSDOF 4
