REMARK  3 active torsions:
REMARK  status: ('A' for Active; 'I' for Inactive)
REMARK    1  A    between atoms: C2_5  and  S1_6 
REMARK    2  A    between atoms: S1_6  and  C3_8 
REMARK    3  A    between atoms: C3_8  and  C4_9 
ROOT
HETATM    1  S1  UNL     1      -0.639  -0.382   0.627  1.00  0.00     0.074 S 
HETATM    2  O2  UNL     1      -0.309   0.378   2.083  1.00  0.00    -0.251 OA
ENDROOT
BRANCH   1   3
HETATM    3  C2  UNL     1      -2.314  -0.431   0.252  1.00  0.00     0.127 A 
HETATM    4  N1  UNL     1      -3.102   0.427  -0.422  1.00  0.00    -0.293 N 
HETATM    5  C1  UNL     1      -4.344  -0.059  -0.445  1.00  0.00     0.370 A 
ATOM      6  H1  UNL     1      -2.799   1.304  -0.845  1.00  0.00     0.172 HD
HETATM    7  O1  UNL     1      -5.381   0.449  -0.981  1.00  0.00    -0.238 OA
HETATM    8  O3  UNL     1      -4.358  -1.197   0.195  1.00  0.00    -0.271 OA
HETATM    9  C8  UNL     1      -3.170  -1.463   0.631  1.00  0.00     0.186 A 
ENDBRANCH   1   3
BRANCH   1  10
HETATM   10  C3  UNL     1       0.368   0.228  -0.686  1.00  0.00     0.172 C 
BRANCH  10  11
HETATM   11  C4  UNL     1       1.798   0.237  -0.280  1.00  0.00     0.021 A 
HETATM   12  C5  UNL     1       2.724  -0.772  -0.433  1.00  0.00     0.027 A 
HETATM   13  C6  UNL     1       3.950  -0.363   0.080  1.00  0.00     0.019 A 
HETATM   14  C7  UNL     1       3.728   0.918   0.541  1.00  0.00     0.088 A 
HETATM   15  N2  UNL     1       2.454   1.246   0.318  1.00  0.00    -0.368 N 
ATOM     16  H2  UNL     1       2.035   2.142   0.568  1.00  0.00     0.165 HD
ENDBRANCH  10  11
ENDBRANCH   1  10
TORSDOF 3
