REMARK  9 active torsions:
REMARK  status: ('A' for Active; 'I' for Inactive)
REMARK    1  A    between atoms: C6_8  and  N2_9 
REMARK    2  A    between atoms: N2_9  and  C7_11 
REMARK    3  A    between atoms: C10_20  and  C11_21 
REMARK    4  A    between atoms: C11_21  and  C12_22 
REMARK    5  A    between atoms: C12_22  and  S2_23 
REMARK    6  A    between atoms: S2_23  and  C13_24 
REMARK    7  A    between atoms: C13_24  and  C14_25 
REMARK    8  A    between atoms: C14_25  and  C15_26 
REMARK    9  A    between atoms: N6_28  and  O2_30 
ROOT
HETATM    1  C7  UNL     1      -0.741   0.766  -0.610  1.00  0.00     0.120 A 
HETATM    2  N3  UNL     1      -1.422   1.822  -0.080  1.00  0.00    -0.319 N 
ATOM      3  H3  UNL     1      -2.314   1.660   0.387  1.00  0.00     0.170 HD
HETATM    4  C8  UNL     1      -0.938   3.070  -0.163  1.00  0.00     0.180 A 
HETATM    5  S1  UNL     1      -1.806   4.278   0.492  1.00  0.00    -0.040 SA
HETATM    6  N4  UNL     1       0.234   3.285  -0.777  1.00  0.00    -0.300 N 
ATOM      7  H4  UNL     1       0.604   4.233  -0.843  1.00  0.00     0.171 HD
HETATM    8  C9  UNL     1       0.929   2.255  -1.310  1.00  0.00     0.257 A 
HETATM    9  O1  UNL     1       2.019   2.510  -1.874  1.00  0.00    -0.267 OA
HETATM   10  C10 UNL     1       0.467   0.947  -1.246  1.00  0.00     0.055 A 
ENDROOT
BRANCH   1  11
HETATM   11  N2  UNL     1      -1.299  -0.531  -0.539  1.00  0.00    -0.330 N 
ATOM     12  H2  UNL     1      -0.831  -1.333  -0.961  1.00  0.00     0.168 HD
BRANCH  11  13
HETATM   13  C6  UNL     1      -2.558  -0.677   0.154  1.00  0.00     0.097 C 
HETATM   14  C5  UNL     1      -2.576  -0.955   1.606  1.00  0.00     0.190 C 
HETATM   15  N1  UNL     1      -3.574  -1.888   1.996  1.00  0.00    -0.412 N 
HETATM   16  C4  UNL     1      -4.691  -1.998   1.107  1.00  0.00     0.144 C 
ATOM     17  H1  UNL     1      -3.500  -2.441   2.850  1.00  0.00     0.153 HD
HETATM   18  C2  UNL     1      -4.895  -0.738   0.291  1.00  0.00     0.039 C 
HETATM   19  C1  UNL     1      -5.199   0.392   1.219  1.00  0.00     0.039 C 
HETATM   20  C3  UNL     1      -6.068  -0.978  -0.658  1.00  0.00     0.039 C 
HETATM   21  N7  UNL     1      -3.673  -0.573  -0.471  1.00  0.00    -0.368 N 
ATOM     22  H7  UNL     1      -3.699  -0.380  -1.472  1.00  0.00     0.161 HD
ENDBRANCH  11  13
ENDBRANCH   1  11
BRANCH  10  23
HETATM   23  C11 UNL     1       1.191  -0.202  -1.788  1.00  0.00     0.058 C 
BRANCH  23  24
HETATM   24  C12 UNL     1       1.937  -1.034  -0.802  1.00  0.00     0.079 C 
BRANCH  24  25
HETATM   25  S2  UNL     1       3.238  -0.200   0.094  1.00  0.00    -0.168 SA
BRANCH  25  26
HETATM   26  C13 UNL     1       4.655   0.264  -0.916  1.00  0.00     0.081 C 
BRANCH  26  27
HETATM   27  C14 UNL     1       5.718   0.947  -0.052  1.00  0.00     0.085 C 
BRANCH  27  28
HETATM   28  C15 UNL     1       6.166   0.009   1.018  1.00  0.00     0.114 C 
HETATM   29  N5  UNL     1       7.137   0.445   1.929  1.00  0.00    -0.086 NA
HETATM   30  N6  UNL     1       5.667  -1.161   1.086  1.00  0.00    -0.259 N 
ATOM     31  H6  UNL     1       4.962  -1.461   0.413  1.00  0.00     0.195 HD
BRANCH  30  32
HETATM   32  O2  UNL     1       6.088  -2.013   2.074  1.00  0.00    -0.289 OA
ATOM     33  H2  UNL     1       5.716  -2.886   2.125  1.00  0.00     0.244 HD
ENDBRANCH  30  32
ENDBRANCH  27  28
ENDBRANCH  26  27
ENDBRANCH  25  26
ENDBRANCH  24  25
ENDBRANCH  23  24
ENDBRANCH  10  23
TORSDOF 9
