REMARK  10 active torsions:
REMARK  status: ('A' for Active; 'I' for Inactive)
REMARK    1  A    between atoms: N1_1  and  C1_4 
REMARK    2  A    between atoms: C5_11  and  N4_12 
REMARK    3  A    between atoms: N4_12  and  C6_14 
REMARK    4  A    between atoms: C6_14  and  C7_15 
REMARK    5  A    between atoms: C7_15  and  C8_16 
REMARK       I    between atoms: C8_16  and  N5_18 
REMARK    6  A    between atoms: N5_18  and  C9_20 
REMARK    7  A    between atoms: C10_25  and  S1_26 
REMARK    8  A    between atoms: S1_26  and  C11_27 
REMARK    9  A    between atoms: C11_27  and  C12_28 
REMARK   10  A    between atoms: C12_28  and  O2_29 
ROOT
HETATM    1  C6  UNL     1      -1.710  -2.459  -0.691  1.00  0.00     0.129 C 
ENDROOT
BRANCH   1   2
HETATM    2  N4  UNL     1      -1.648  -1.024  -0.660  1.00  0.00    -0.388 N 
ATOM      3  H4  UNL     1      -0.789  -0.563  -0.960  1.00  0.00     0.159 HD
BRANCH   2   4
HETATM    4  C5  UNL     1      -2.727  -0.231  -0.232  1.00  0.00     0.053 A 
HETATM    5  C4  UNL     1      -2.705   1.144  -0.190  1.00  0.00     0.074 A 
HETATM    6  C3  UNL     1      -3.734   1.939   0.220  1.00  0.00     0.059 A 
HETATM    7  N3  UNL     1      -1.487   1.762  -0.619  1.00  0.00    -0.100 NA
HETATM    8  C2  UNL     1      -4.948   1.345   0.647  1.00  0.00     0.053 A 
HETATM    9  N2  UNL     1      -6.026   1.977   1.070  1.00  0.00    -0.336 N 
HETATM   10  C14 UNL     1      -4.993  -0.020   0.614  1.00  0.00     0.037 A 
HETATM   11  C1  UNL     1      -7.085   1.264   1.436  1.00  0.00     0.143 A 
ATOM     12  H2  UNL     1      -6.046   2.996   1.115  1.00  0.00     0.168 HD
HETATM   13  S3  UNL     1      -6.568  -0.347   1.185  1.00  0.00    -0.052 SA
HETATM   14  C13 UNL     1      -3.911  -0.812   0.185  1.00  0.00     0.052 A 
BRANCH  11  15
HETATM   15  N1  UNL     1      -8.245   1.694   1.882  1.00  0.00    -0.380 N 
ATOM     16  H12 UNL     1      -8.553   2.655   2.032  1.00  0.00     0.158 HD
ATOM     17  H11 UNL     1      -9.058   1.146   2.163  1.00  0.00     0.158 HD
ENDBRANCH  11  15
ENDBRANCH   2   4
ENDBRANCH   1   2
BRANCH   1  18
HETATM   18  C7  UNL     1      -0.419  -3.070  -1.183  1.00  0.00     0.122 C 
BRANCH  18  19
HETATM   19  C8  UNL     1       0.683  -2.678  -0.291  1.00  0.00     0.225 C 
HETATM   20  O1  UNL     1       0.418  -1.938   0.703  1.00  0.00    -0.273 OA
HETATM   21  N5  UNL     1       2.037  -3.102  -0.508  1.00  0.00    -0.306 N 
ATOM     22  H5  UNL     1       2.303  -4.085  -0.456  1.00  0.00     0.171 HD
BRANCH  21  23
HETATM   23  C9  UNL     1       2.917  -2.166  -0.777  1.00  0.00     0.168 A 
HETATM   24  N6  UNL     1       2.736  -0.849  -0.881  1.00  0.00    -0.278 N 
HETATM   25  N7  UNL     1       3.730  -0.110  -1.151  1.00  0.00    -0.286 N 
ATOM     26  H6  UNL     1       1.811  -0.442  -0.745  1.00  0.00     0.189 HD
HETATM   27  C10 UNL     1       4.932  -0.641  -1.327  1.00  0.00     0.130 A 
ATOM     28  H7  UNL     1       3.604   0.899  -1.233  1.00  0.00     0.188 HD
HETATM   29  S2  UNL     1       4.595  -2.307  -1.086  1.00  0.00    -0.026 SA
BRANCH  27  30
HETATM   30  S1  UNL     1       6.487   0.176  -1.713  1.00  0.00    -0.101 SA
BRANCH  30  31
HETATM   31  C11 UNL     1       7.364   0.653  -0.217  1.00  0.00     0.107 C 
BRANCH  31  32
HETATM   32  C12 UNL     1       6.650   1.714   0.577  1.00  0.00     0.174 C 
BRANCH  32  33
HETATM   33  O2  UNL     1       6.455   2.884  -0.113  1.00  0.00    -0.400 OA
ATOM     34  H2  UNL     1       6.004   3.554   0.388  1.00  0.00     0.209 HD
ENDBRANCH  32  33
ENDBRANCH  31  32
ENDBRANCH  30  31
ENDBRANCH  27  30
ENDBRANCH  21  23
ENDBRANCH  18  19
ENDBRANCH   1  18
TORSDOF 10
