REMARK  11 active torsions:
REMARK  status: ('A' for Active; 'I' for Inactive)
REMARK    1  A    between atoms: C2_2  and  C3_3 
REMARK    2  A    between atoms: C2_2  and  C12_24 
REMARK    3  A    between atoms: C3_3  and  N1_4 
REMARK    4  A    between atoms: C4_5  and  C5_6 
REMARK    5  A    between atoms: C7_14  and  N4_15 
REMARK    6  A    between atoms: N4_15  and  C8_17 
REMARK    7  A    between atoms: C12_24  and  O3_25 
REMARK    8  A    between atoms: C12_24  and  C13_27 
REMARK    9  A    between atoms: C13_27  and  N7_28 
REMARK   10  A    between atoms: N7_28  and  C14_30 
REMARK   11  A    between atoms: C16_36  and  N10_37 
ROOT
HETATM    1  C8  UNL     1      -7.045   1.527   0.165  1.00  0.00     0.245 C 
HETATM    2  C9  UNL     1      -8.477   1.627   0.412  1.00  0.00     0.078 C 
HETATM    3  N5  UNL     1      -9.626   1.709   0.592  1.00  0.00    -0.196 NA
ENDROOT
BRANCH   1   4
HETATM    4  N4  UNL     1      -6.626   0.161   0.057  1.00  0.00    -0.363 N 
ATOM      5  H4  UNL     1      -7.319  -0.586   0.104  1.00  0.00     0.162 HD
BRANCH   4   6
HETATM    6  C7  UNL     1      -5.383  -0.130  -0.099  1.00  0.00     0.119 A 
HETATM    7  N3  UNL     1      -4.963  -1.411  -0.204  1.00  0.00    -0.325 N 
HETATM    8  C6  UNL     1      -3.650  -1.671  -0.367  1.00  0.00     0.154 A 
ATOM      9  H3  UNL     1      -5.636  -2.176  -0.160  1.00  0.00     0.169 HD
HETATM   10  N2  UNL     1      -2.945  -2.799  -0.498  1.00  0.00    -0.320 N 
HETATM   11  C11 UNL     1      -2.726  -0.651  -0.429  1.00  0.00     0.154 A 
HETATM   12  C4  UNL     1      -1.613  -2.531  -0.641  1.00  0.00     0.189 A 
ATOM     13  H2  UNL     1      -3.348  -3.736  -0.492  1.00  0.00     0.169 HD
HETATM   14  N1  UNL     1      -1.482  -1.211  -0.596  1.00  0.00    -0.310 N 
HETATM   15  N6  UNL     1      -3.177   0.599  -0.322  1.00  0.00    -0.345 N 
HETATM   16  C10 UNL     1      -4.472   0.916  -0.159  1.00  0.00     0.138 A 
ATOM     17  H6  UNL     1      -2.499   1.359  -0.367  1.00  0.00     0.167 HD
BRANCH  12  18
HETATM   18  C5  UNL     1      -0.575  -3.521  -0.868  1.00  0.00     0.245 C 
HETATM   19  O1  UNL     1      -0.926  -4.747  -0.824  1.00  0.00    -0.642 OA
HETATM   20  O2  UNL     1       0.751  -3.231  -1.128  1.00  0.00    -0.642 OA
ENDBRANCH  12  18
BRANCH  14  21
HETATM   21  C3  UNL     1      -0.301  -0.378  -0.631  1.00  0.00     0.139 C 
BRANCH  21  22
HETATM   22  C2  UNL     1       0.089  -0.014   0.759  1.00  0.00     0.030 C 
HETATM   23  C1  UNL     1       0.402  -1.142   1.677  1.00  0.00     0.014 C 
BRANCH  22  24
HETATM   24  C12 UNL     1       1.211   1.011   0.790  1.00  0.00     0.141 C 
BRANCH  24  25
HETATM   25  O3  UNL     1       0.856   2.022  -0.079  1.00  0.00    -0.394 OA
ATOM     26  H3  UNL     1       1.557   2.663  -0.060  1.00  0.00     0.210 HD
ENDBRANCH  24  25
BRANCH  24  27
HETATM   27  C13 UNL     1       2.524   0.357   0.391  1.00  0.00     0.153 C 
BRANCH  27  28
HETATM   28  N7  UNL     1       3.588   1.338   0.389  1.00  0.00    -0.372 N 
ATOM     29  H7  UNL     1       3.435   2.250   0.820  1.00  0.00     0.161 HD
BRANCH  28  30
HETATM   30  C14 UNL     1       4.727   1.071  -0.152  1.00  0.00     0.134 A 
HETATM   31  C15 UNL     1       5.034  -0.128  -0.759  1.00  0.00     0.156 A 
HETATM   32  N8  UNL     1       6.265  -0.338  -1.312  1.00  0.00    -0.294 N 
HETATM   33  N9  UNL     1       7.196   0.601  -1.282  1.00  0.00    -0.133 N 
ATOM     34  H8  UNL     1       6.470  -1.234  -1.755  1.00  0.00     0.186 HD
HETATM   35  C16 UNL     1       6.892   1.769  -0.688  1.00  0.00     0.692 A 
ATOM     36  H9  UNL     1       8.115   0.445  -1.696  1.00  0.00     0.205 HD
HETATM   37  N11 UNL     1       5.688   2.011  -0.132  1.00  0.00    -0.175 N 
ATOM     38  H11 UNL     1       5.505   2.913   0.307  1.00  0.00     0.186 HD
BRANCH  35  39
HETATM   39  N10 UNL     1       7.767   2.733  -0.626  1.00  0.00    -0.233 N 
ATOM     40 2H10 UNL     1       8.678   2.550  -1.047  1.00  0.00     0.174 HD
ATOM     41 1H10 UNL     1       7.536   3.619  -0.176  1.00  0.00     0.174 HD
ENDBRANCH  35  39
ENDBRANCH  28  30
ENDBRANCH  27  28
ENDBRANCH  24  27
ENDBRANCH  22  24
ENDBRANCH  21  22
ENDBRANCH  14  21
ENDBRANCH   4   6
ENDBRANCH   1   4
TORSDOF 11
