REMARK  11 active torsions:
REMARK  status: ('A' for Active; 'I' for Inactive)
REMARK    1  A    between atoms: C3_3  and  N1_4 
REMARK       I    between atoms: N1_4  and  C4_5 
REMARK    2  A    between atoms: N1_4  and  C20_29 
REMARK    3  A    between atoms: C4_5  and  C5_7 
REMARK    4  A    between atoms: C5_7  and  N2_8 
REMARK    5  A    between atoms: N2_8  and  C7_10 
REMARK    6  A    between atoms: C7_10  and  C8_11 
REMARK       I    between atoms: C8_11  and  N3_13 
REMARK    7  A    between atoms: N3_13  and  C9_15 
REMARK    8  A    between atoms: C12_19  and  C13_20 
REMARK    9  A    between atoms: C13_20  and  O4_22 
REMARK   10  A    between atoms: O4_22  and  C14_23 
REMARK   11  A    between atoms: C21_30  and  C22_31 
ROOT
HETATM    1  C1  UNL     1      -4.933  -4.193   0.001  1.00  0.00     0.014 C 
HETATM    2  C2  UNL     1      -4.307  -3.269  -0.487  1.00  0.00    -0.097 C 
HETATM    3  C3  UNL     1      -3.527  -2.165  -1.098  1.00  0.00     0.225 C 
ENDROOT
BRANCH   3   4
HETATM    4  N1  UNL     1      -3.706  -1.010  -0.222  1.00  0.00    -0.300 N 
HETATM    5  C4  UNL     1      -2.742  -0.920   0.831  1.00  0.00     0.238 C 
HETATM    6  O1  UNL     1      -2.841   0.039   1.625  1.00  0.00    -0.272 OA
BRANCH   5   7
HETATM    7  C5  UNL     1      -1.640  -1.885   1.047  1.00  0.00     0.197 C 
BRANCH   7   8
HETATM    8  N2  UNL     1      -0.894  -1.476   2.202  1.00  0.00    -0.283 NA
HETATM    9  C6  UNL     1      -1.684  -1.633   3.381  1.00  0.00     0.116 C 
BRANCH   8  10
HETATM   10  C7  UNL     1       0.415  -1.945   2.356  1.00  0.00     0.134 C 
BRANCH  10  11
HETATM   11  C8  UNL     1       1.397  -1.340   1.365  1.00  0.00     0.256 C 
HETATM   12  O2  UNL     1       0.870  -0.531   0.600  1.00  0.00    -0.267 OA
HETATM   13  N3  UNL     1       2.724  -1.718   1.394  1.00  0.00    -0.316 N 
ATOM     14  H3  UNL     1       2.879  -2.435   2.102  1.00  0.00     0.169 HD
BRANCH  13  15
HETATM   15  C9  UNL     1       3.918  -1.406   0.737  1.00  0.00     0.094 A 
HETATM   16  S1  UNL     1       5.185  -2.641   0.637  1.00  0.00    -0.075 SA
HETATM   17  C10 UNL     1       6.350  -1.788  -0.208  1.00  0.00    -0.008 A 
HETATM   18  C11 UNL     1       5.766  -0.567  -0.403  1.00  0.00    -0.026 A 
HETATM   19  C19 UNL     1       7.745  -2.003  -0.749  1.00  0.00     0.047 C 
HETATM   20  C12 UNL     1       4.515  -0.371   0.090  1.00  0.00     0.080 A 
HETATM   21  C16 UNL     1       6.687   0.339  -1.191  1.00  0.00     0.041 C 
HETATM   22  C17 UNL     1       7.151  -0.369  -2.448  1.00  0.00     0.005 C 
HETATM   23  C18 UNL     1       7.668  -1.745  -2.230  1.00  0.00     0.005 C 
BRANCH  20  24
HETATM   24  C13 UNL     1       3.933   1.001   0.128  1.00  0.00     0.296 C 
HETATM   25  O3  UNL     1       2.939   1.254   0.789  1.00  0.00    -0.259 OA
BRANCH  24  26
HETATM   26  O4  UNL     1       4.466   2.073  -0.574  1.00  0.00    -0.318 OA
BRANCH  26  27
HETATM   27  C14 UNL     1       3.864   3.373  -0.506  1.00  0.00     0.174 C 
HETATM   28  C15 UNL     1       3.848   3.919   0.893  1.00  0.00     0.034 C 
ENDBRANCH  26  27
ENDBRANCH  24  26
ENDBRANCH  20  24
ENDBRANCH  13  15
ENDBRANCH  10  11
ENDBRANCH   8  10
ENDBRANCH   7   8
ENDBRANCH   5   7
BRANCH   4  29
HETATM   29  C20 UNL     1      -4.735  -0.105  -0.419  1.00  0.00     0.113 A 
HETATM   30  C21 UNL     1      -4.713   0.840  -1.395  1.00  0.00    -0.017 A 
HETATM   31  C24 UNL     1      -5.798   1.726  -1.555  1.00  0.00    -0.012 A 
HETATM   32  C25 UNL     1      -5.718   2.742  -2.644  1.00  0.00     0.052 C 
HETATM   33  C26 UNL     1      -6.861   1.616  -0.718  1.00  0.00     0.125 A 
HETATM   34  N4  UNL     1      -7.944   2.545  -0.923  1.00  0.00    -0.082 NA
HETATM   35  N5  UNL     1      -6.909   0.691   0.257  1.00  0.00    -0.309 N 
HETATM   36  C27 UNL     1      -5.858  -0.150   0.395  1.00  0.00     0.274 A 
ATOM     37  H5  UNL     1      -7.717   0.625   0.876  1.00  0.00     0.170 HD
HETATM   38  O5  UNL     1      -5.937  -0.985   1.302  1.00  0.00    -0.266 OA
BRANCH  30  39
HETATM   39  C22 UNL     1      -3.558   0.996  -2.287  1.00  0.00     0.037 C 
HETATM   40  C23 UNL     1      -2.459   1.747  -1.559  1.00  0.00     0.010 C 
ENDBRANCH  30  39
ENDBRANCH   4  29
ENDBRANCH   3   4
TORSDOF 11
