REMARK  7 active torsions:
REMARK  status: ('A' for Active; 'I' for Inactive)
REMARK    1  A    between atoms: C2_2  and  N7_27 
REMARK    2  A    between atoms: N1_3  and  N2_5 
REMARK       I    between atoms: N2_5  and  C3_6 
REMARK       I    between atoms: C3_6  and  N3_8 
REMARK       I    between atoms: N4_10  and  C4_12 
REMARK    3  A    between atoms: C4_12  and  C5_14 
REMARK    4  A    between atoms: C5_14  and  N5_15 
REMARK    5  A    between atoms: C5_14  and  C7_21 
REMARK    6  A    between atoms: N5_15  and  C6_17 
REMARK    7  A    between atoms: C6_17  and  O3_19 
ROOT
HETATM    1  N2  UNL     1       2.291   1.059  -0.147  1.00  0.00    -0.262 NA
HETATM    2  C3  UNL     1       1.078   1.651  -0.380  1.00  0.00     0.431 C 
HETATM    3  O1  UNL     1       0.115   2.227  -0.605  1.00  0.00    -0.227 OA
HETATM    4  N3  UNL     1       0.288   0.240   0.235  1.00  0.00    -0.235 N 
ATOM      5  H3  UNL     1       0.837  -0.552   0.568  1.00  0.00     0.193 HD
HETATM    6  N4  UNL     1      -0.971   0.198   0.269  1.00  0.00    -0.263 N 
ATOM      7  H4  UNL     1      -1.432   0.016  -0.622  1.00  0.00     0.190 HD
HETATM    8  C4  UNL     1      -1.840   0.372   1.394  1.00  0.00     0.263 C 
HETATM    9  O2  UNL     1      -1.467   0.603   2.564  1.00  0.00    -0.269 OA
ENDROOT
BRANCH   8  10
HETATM   10  C5  UNL     1      -3.296   0.248   1.003  1.00  0.00     0.212 C 
BRANCH  10  11
HETATM   11  N5  UNL     1      -3.673   1.442   0.398  1.00  0.00    -0.342 N 
ATOM     12  H5  UNL     1      -3.087   1.703  -0.395  1.00  0.00     0.163 HD
BRANCH  11  13
HETATM   13  C6  UNL     1      -4.717   2.372   0.668  1.00  0.00     0.226 C 
HETATM   14  N6  UNL     1      -4.900   3.580  -0.048  1.00  0.00    -0.057 NA
BRANCH  13  15
HETATM   15  O3  UNL     1      -5.581   2.143   1.620  1.00  0.00    -0.335 OA
ATOM     16  H3  UNL     1      -6.277   2.763   1.800  1.00  0.00     0.220 HD
ENDBRANCH  13  15
ENDBRANCH  11  13
ENDBRANCH  10  11
BRANCH  10  17
HETATM   17  C7  UNL     1      -3.532  -1.026   0.291  1.00  0.00    -0.026 A 
HETATM   18  C8  UNL     1      -2.611  -2.058   0.305  1.00  0.00     0.010 A 
HETATM   19  C9  UNL     1      -2.856  -3.254  -0.301  1.00  0.00     0.001 A 
HETATM   20  C10 UNL     1      -4.046  -3.500  -0.964  1.00  0.00     0.000 A 
HETATM   21  C11 UNL     1      -5.006  -2.478  -1.022  1.00  0.00     0.001 A 
HETATM   22  C12 UNL     1      -4.715  -1.288  -0.390  1.00  0.00     0.010 A 
ENDBRANCH  10  17
ENDBRANCH   8  10
BRANCH   1  23
HETATM   23  N1  UNL     1       3.410   0.561   0.051  1.00  0.00    -0.219 N 
HETATM   24  C2  UNL     1       4.591   0.735   0.126  1.00  0.00     0.101 C 
HETATM   25  C1  UNL     1       5.379   1.928  -0.031  1.00  0.00     0.091 C 
ATOM     26  H1  UNL     1       3.255  -0.432   0.227  1.00  0.00     0.203 HD
BRANCH  24  27
HETATM   27  N7  UNL     1       5.252  -0.650  -0.040  1.00  0.00    -0.378 N 
HETATM   28  C13 UNL     1       4.667  -1.756   0.620  1.00  0.00     0.150 C 
HETATM   29  C14 UNL     1       6.329  -0.641  -0.992  1.00  0.00     0.150 C 
ENDBRANCH  24  27
ENDBRANCH   1  23
TORSDOF 7
