REMARK  6 active torsions:
REMARK  status: ('A' for Active; 'I' for Inactive)
REMARK    1  A    between atoms: C2_2  and  C3_3 
REMARK    2  A    between atoms: C3_3  and  C4_4 
REMARK    3  A    between atoms: C4_4  and  C5_5 
REMARK    4  A    between atoms: C5_5  and  N1_7 
REMARK    5  A    between atoms: N1_7  and  N2_9 
REMARK       I    between atoms: N2_9  and  C6_11 
REMARK       I    between atoms: C6_11  and  N5_17 
REMARK       I    between atoms: N3_12  and  C7_14 
REMARK       I    between atoms: N5_17  and  C8_19 
REMARK    6  A    between atoms: C8_19  and  C9_21 
ROOT
HETATM    1  N2  UNL     1       0.300   0.866  -1.169  1.00  0.00    -0.131 N 
ATOM      2  H2  UNL     1      -0.458   1.169  -1.780  1.00  0.00     0.205 HD
HETATM    3  C6  UNL     1       0.274   1.253   0.179  1.00  0.00     0.703 C 
HETATM    4  N3  UNL     1       1.368   1.713   0.704  1.00  0.00    -0.142 N 
ATOM      5  H3  UNL     1       2.197   1.772   0.113  1.00  0.00     0.189 HD
HETATM    6  C7  UNL     1       1.474   2.133   2.037  1.00  0.00     0.347 C 
HETATM    7  N4  UNL     1       1.528   3.517   2.407  1.00  0.00    -0.039 NA
HETATM    8  O1  UNL     1       1.531   1.308   3.004  1.00  0.00    -0.250 OA
HETATM    9  N5  UNL     1      -0.876   1.167   0.962  1.00  0.00    -0.158 N 
ATOM     10  H5  UNL     1      -0.826   1.473   1.934  1.00  0.00     0.187 HD
HETATM   11  C8  UNL     1      -2.112   0.674   0.471  1.00  0.00     0.240 C 
HETATM   12  O2  UNL     1      -2.297   0.268  -0.699  1.00  0.00    -0.272 OA
ENDROOT
BRANCH   1  13
HETATM   13  N1  UNL     1       1.338   0.070  -1.715  1.00  0.00    -0.280 N 
ATOM     14  H1  UNL     1       1.876   0.453  -2.493  1.00  0.00     0.188 HD
BRANCH  13  15
HETATM   15  C5  UNL     1       1.673  -1.219  -1.249  1.00  0.00     0.092 C 
HETATM   16  S1  UNL     1       0.837  -1.860  -0.008  1.00  0.00    -0.064 SA
BRANCH  15  17
HETATM   17  C4  UNL     1       2.772  -1.999  -1.867  1.00  0.00     0.071 C 
BRANCH  17  18
HETATM   18  C3  UNL     1       4.044  -1.202  -1.680  1.00  0.00     0.006 C 
BRANCH  18  19
HETATM   19  C2  UNL     1       5.239  -1.913  -2.280  1.00  0.00    -0.004 C 
HETATM   20  C1  UNL     1       5.417  -3.254  -1.618  1.00  0.00     0.005 C 
ENDBRANCH  18  19
ENDBRANCH  17  18
ENDBRANCH  15  17
ENDBRANCH  13  15
ENDBRANCH   1  13
BRANCH  11  21
HETATM   21  C9  UNL     1      -3.319   0.605   1.357  1.00  0.00     0.087 A 
HETATM   22  C10 UNL     1      -4.113  -0.680   1.177  1.00  0.00     0.024 A 
HETATM   23  C11 UNL     1      -4.680   0.692   0.796  1.00  0.00    -0.035 A 
HETATM   24  C12 UNL     1      -4.924   0.976  -0.670  1.00  0.00     0.015 C 
HETATM   25  C13 UNL     1      -5.802   1.138   1.705  1.00  0.00     0.015 C 
ENDBRANCH  11  21
TORSDOF 6
