REMARK  9 active torsions:
REMARK  status: ('A' for Active; 'I' for Inactive)
REMARK    1  A    between atoms: C2_3  and  C3_4 
REMARK    2  A    between atoms: C2_3  and  C8_16 
REMARK    3  A    between atoms: C3_4  and  O1_5 
REMARK    4  A    between atoms: O1_5  and  C4_6 
REMARK    5  A    between atoms: C4_6  and  N2_8 
REMARK    6  A    between atoms: N2_8  and  C5_10 
REMARK    7  A    between atoms: C8_16  and  N4_17 
REMARK    8  A    between atoms: C12_21  and  C13_22 
REMARK    9  A    between atoms: C13_22  and  O2_23 
ROOT
HETATM    1  N1  UNL     1      -0.120   1.965   2.261  1.00  0.00    -0.197 NA
HETATM    2  C1  UNL     1      -0.189   1.123   1.488  1.00  0.00     0.068 C 
HETATM    3  C2  UNL     1      -0.255   0.038   0.508  1.00  0.00     0.145 C 
ENDROOT
BRANCH   3   4
HETATM    4  C3  UNL     1       0.962  -0.866   0.723  1.00  0.00     0.199 C 
BRANCH   4   5
HETATM    5  O1  UNL     1       2.163  -0.137   0.547  1.00  0.00    -0.326 OA
BRANCH   5   6
HETATM    6  C4  UNL     1       3.348  -0.821   0.709  1.00  0.00     0.216 C 
HETATM    7  S1  UNL     1       3.530  -2.307   0.016  1.00  0.00    -0.033 SA
BRANCH   6   8
HETATM    8  N2  UNL     1       4.452  -0.329   1.446  1.00  0.00    -0.308 N 
ATOM      9  H2  UNL     1       4.432  -0.286   2.465  1.00  0.00     0.171 HD
BRANCH   8  10
HETATM   10  C5  UNL     1       5.506   0.071   0.765  1.00  0.00     0.150 A 
HETATM   11  N3  UNL     1       5.672   0.072  -0.557  1.00  0.00    -0.346 N 
HETATM   12  C6  UNL     1       6.799   0.511  -1.047  1.00  0.00     0.097 A 
ATOM     13  H3  UNL     1       4.933  -0.264  -1.174  1.00  0.00     0.167 HD
HETATM   14  C7  UNL     1       7.752   0.948  -0.164  1.00  0.00     0.070 A 
HETATM   15  S2  UNL     1       6.983   0.707   1.338  1.00  0.00    -0.064 SA
ENDBRANCH   8  10
ENDBRANCH   6   8
ENDBRANCH   5   6
ENDBRANCH   4   5
ENDBRANCH   3   4
BRANCH   3  16
HETATM   16  C8  UNL     1      -1.465  -0.816   0.674  1.00  0.00     0.294 C 
BRANCH  16  17
HETATM   17  N4  UNL     1      -2.720  -0.148   0.545  1.00  0.00     0.096 N 
HETATM   18  C9  UNL     1      -3.758  -1.171   0.752  1.00  0.00     0.273 C 
HETATM   19  C10 UNL     1      -4.860  -0.839  -0.212  1.00  0.00     0.032 C 
HETATM   20  C11 UNL     1      -4.120  -0.267  -1.378  1.00  0.00     0.040 C 
HETATM   21  C12 UNL     1      -2.975   0.458  -0.716  1.00  0.00     0.246 C 
BRANCH  21  22
HETATM   22  C13 UNL     1      -3.422   1.902  -0.509  1.00  0.00     0.199 C 
BRANCH  22  23
HETATM   23  O2  UNL     1      -3.679   2.522  -1.737  1.00  0.00    -0.399 OA
ATOM     24  H2  UNL     1      -3.957   3.421  -1.608  1.00  0.00     0.209 HD
ENDBRANCH  22  23
ENDBRANCH  21  22
ENDBRANCH  16  17
ENDBRANCH   3  16
TORSDOF 9
