REMARK  1 active torsions:
REMARK  status: ('A' for Active; 'I' for Inactive)
REMARK    1  A    between atoms: O1_1  and  C1_3 
ROOT
HETATM    1  C1  UNL     1      -0.962  -0.372  -0.826  1.00  0.00     0.128 C 
HETATM    2  C2  UNL     1       0.035  -1.033   0.061  1.00  0.00     0.033 C 
HETATM    3  C3  UNL     1       1.026  -0.087   0.683  1.00  0.00     0.013 C 
HETATM    4  C4  UNL     1       1.985   0.369  -0.388  1.00  0.00     0.086 C 
HETATM    5  S1  UNL     1       1.527   1.932  -1.126  1.00  0.00    -0.098 SA
HETATM    6  S2  UNL     1      -0.530   2.315  -1.039  1.00  0.00    -0.095 SA
HETATM    7  C5  UNL     1      -1.478   0.933  -0.331  1.00  0.00     0.117 C 
ENDROOT
BRANCH   1   8
HETATM    8  O1  UNL     1      -2.074  -1.241  -0.922  1.00  0.00    -0.395 OA
ATOM      9  H1  UNL     1      -2.710  -0.819  -1.488  1.00  0.00     0.210 HD
ENDBRANCH   1   8
TORSDOF 1
