REMARK  1 active torsions:
REMARK  status: ('A' for Active; 'I' for Inactive)
REMARK    1  A    between atoms: N1_2  and  C1_4 
ROOT
HETATM    1  C1  UNL     1       0.493   0.464  -0.017  1.00  0.00     0.126 A 
HETATM    2  S1  UNL     1      -0.450   1.803  -0.485  1.00  0.00     0.007 SA
HETATM    3  N2  UNL     1      -1.965   1.091  -0.418  1.00  0.00    -0.314 N 
ATOM      4  H2  UNL     1      -2.864   1.526  -0.624  1.00  0.00     0.175 HD
HETATM    5  C2  UNL     1      -1.741  -0.167  -0.038  1.00  0.00     0.134 A 
HETATM    6 CL2  UNL     1      -3.125  -1.289   0.158  1.00  0.00    -0.062 Cl
HETATM    7  C3  UNL     1      -0.446  -0.514   0.178  1.00  0.00     0.109 A 
HETATM    8 CL3  UNL     1       0.063  -2.157   0.693  1.00  0.00    -0.078 Cl
ENDROOT
BRANCH   1   9
HETATM    9  N1  UNL     1       1.927   0.353   0.144  1.00  0.00    -0.290 N 
HETATM   10 CL1  UNL     1       2.832  -0.130  -1.250  1.00  0.00     0.011 Cl
ATOM     11  H1  UNL     1       2.382   0.550   1.035  1.00  0.00     0.181 HD
ENDBRANCH   1   9
TORSDOF 1
