REMARK  4 active torsions:
REMARK  status: ('A' for Active; 'I' for Inactive)
REMARK    1  A    between atoms: N1_1  and  N2_4 
REMARK    2  A    between atoms: N3_6  and  C1_8 
REMARK    3  A    between atoms: C1_8  and  C2_13 
REMARK    4  A    between atoms: N4_9  and  O1_11 
ROOT
HETATM    1  C1  UNL     1      -0.284   0.107  -0.156  1.00  0.00     0.172 C 
HETATM    2  N4  UNL     1      -1.435   0.661  -0.018  1.00  0.00    -0.252 N 
ATOM      3  H4  UNL     1      -2.245   0.080   0.200  1.00  0.00     0.195 HD
ENDROOT
BRANCH   1   4
HETATM    4  N3  UNL     1       0.806   0.921  -0.454  1.00  0.00    -0.270 N 
HETATM    5  N2  UNL     1       1.958   0.515  -0.360  1.00  0.00    -0.248 N 
ATOM      6  H2  UNL     1       2.147  -0.022  -1.207  1.00  0.00     0.207 HD
ATOM      7  H3  UNL     1       0.641   1.880  -0.759  1.00  0.00     0.190 HD
BRANCH   5   8
HETATM    8  N1  UNL     1       3.001   0.476   0.328  1.00  0.00    -0.331 N 
ATOM      9  H12 UNL     1       2.780   1.019   1.163  1.00  0.00     0.178 HD
ATOM     10  H11 UNL     1       3.960   0.138   0.406  1.00  0.00     0.178 HD
ENDBRANCH   5   8
ENDBRANCH   1   4
BRANCH   1  11
HETATM   11  C2  UNL     1      -0.202  -1.366   0.012  1.00  0.00     0.249 C 
HETATM   12 CL1  UNL     1       0.906  -1.803   1.343  1.00  0.00    -0.075 Cl
HETATM   13 CL2  UNL     1       0.341  -2.118  -1.499  1.00  0.00    -0.075 Cl
HETATM   14 CL3  UNL     1      -1.794  -2.059   0.395  1.00  0.00    -0.075 Cl
ENDBRANCH   1  11
BRANCH   2  15
HETATM   15  O1  UNL     1      -1.598   1.995  -0.155  1.00  0.00    -0.288 OA
ATOM     16  H1  UNL     1      -2.449   2.405  -0.053  1.00  0.00     0.244 HD
ENDBRANCH   2  15
TORSDOF 4
