REMARK  1 active torsions:
REMARK  status: ('A' for Active; 'I' for Inactive)
REMARK    1  A    between atoms: S1_3  and  C2_4 
ROOT
HETATM    1  N1  UNL     1       2.852   1.138  -0.850  1.00  0.00    -0.184 NA
HETATM    2  C1  UNL     1       2.150   0.237  -0.683  1.00  0.00     0.139 C 
HETATM    3  S1  UNL     1       1.125  -1.140  -0.440  1.00  0.00     0.004 SA
ENDROOT
BRANCH   3   4
HETATM    4  C2  UNL     1      -0.537  -0.809  -0.004  1.00  0.00     0.118 C 
HETATM    5 CL1  UNL     1      -1.601  -2.215   0.249  1.00  0.00    -0.073 Cl
HETATM    6  C3  UNL     1      -1.069   0.366   0.154  1.00  0.00     0.132 C 
HETATM    7 CL2  UNL     1      -2.763   0.579   0.597  1.00  0.00    -0.069 Cl
HETATM    8 CL3  UNL     1      -0.156   1.845  -0.059  1.00  0.00    -0.069 Cl
ENDBRANCH   3   4
TORSDOF 1
