REMARK  1 active torsions:
REMARK  status: ('A' for Active; 'I' for Inactive)
REMARK    1  A    between atoms: O1_1  and  C1_3 
ROOT
HETATM    1  C1  UNL     1      -1.429   0.667  -0.268  1.00  0.00     0.179 C 
HETATM    2  C2  UNL     1      -1.532  -0.846  -0.058  1.00  0.00     0.042 C 
HETATM    3  C3  UNL     1      -0.168  -1.260   0.509  1.00  0.00     0.003 C 
HETATM    4  C4  UNL     1       0.845  -0.880  -0.508  1.00  0.00     0.001 C 
HETATM    5  C5  UNL     1       1.854   0.111  -0.074  1.00  0.00     0.010 C 
HETATM    6  C6  UNL     1       1.357   1.289   0.662  1.00  0.00     0.076 C 
HETATM    7  S1  UNL     1      -0.380   1.327   1.013  1.00  0.00    -0.138 SA
ENDROOT
BRANCH   1   8
HETATM    8  O1  UNL     1      -2.735   1.159  -0.045  1.00  0.00    -0.385 OA
ATOM      9  H1  UNL     1      -2.671   2.098  -0.175  1.00  0.00     0.211 HD
ENDBRANCH   1   8
TORSDOF 1
