REMARK  5 active torsions:
REMARK  status: ('A' for Active; 'I' for Inactive)
REMARK    1  A    between atoms: C2_2  and  C5_5 
REMARK    2  A    between atoms: C7_8  and  O2_9 
REMARK    3  A    between atoms: C8_11  and  N1_12 
REMARK    4  A    between atoms: N1_12  and  C9_14 
REMARK    5  A    between atoms: C9_14  and  C10_18 
ROOT
HETATM    1  C5  UNL     1      -1.242   0.848  -0.062  1.00  0.00     0.089 A 
HETATM    2  O1  UNL     1      -1.586   2.053   0.345  1.00  0.00    -0.321 OA
HETATM    3  C6  UNL     1      -0.792   2.970  -0.116  1.00  0.00     0.181 A 
HETATM    4  C7  UNL     1       0.161   2.343  -0.891  1.00  0.00     0.117 A 
HETATM    5  C8  UNL     1      -0.145   1.010  -0.840  1.00  0.00     0.099 A 
ENDROOT
BRANCH   5   6
HETATM    6  N1  UNL     1       0.581  -0.009  -1.499  1.00  0.00    -0.342 N 
ATOM      7  H1  UNL     1       0.287  -0.265  -2.442  1.00  0.00     0.167 HD
BRANCH   6   8
HETATM    8  C9  UNL     1       1.687  -0.701  -0.947  1.00  0.00     0.079 C 
HETATM    9  N2  UNL     1       1.811  -1.951  -1.212  1.00  0.00    -0.389 N 
ATOM     10  H22 UNL     1       1.112  -2.397  -1.806  1.00  0.00     0.157 HD
ATOM     11  H21 UNL     1       2.607  -2.449  -0.815  1.00  0.00     0.157 HD
BRANCH   8  12
HETATM   12  C10 UNL     1       2.698  -0.055  -0.087  1.00  0.00     0.053 A 
HETATM   13  C11 UNL     1       3.821  -0.917   0.421  1.00  0.00     0.013 A 
HETATM   14  C12 UNL     1       2.810  -0.358   1.359  1.00  0.00     0.013 A 
ENDBRANCH   8  12
ENDBRANCH   6   8
ENDBRANCH   5   6
BRANCH   1  15
HETATM   15  C2  UNL     1      -1.990  -0.371   0.326  1.00  0.00     0.001 C 
HETATM   16  C1  UNL     1      -2.542  -1.107  -0.871  1.00  0.00     0.021 C 
HETATM   17  C3  UNL     1      -1.110  -1.293   1.118  1.00  0.00     0.021 C 
HETATM   18  C4  UNL     1      -3.172  -0.019   1.197  1.00  0.00     0.021 C 
ENDBRANCH   1  15
BRANCH   4  19
HETATM   19  O2  UNL     1       1.222   2.963  -1.584  1.00  0.00    -0.357 OA
ATOM     20  H2  UNL     1       1.878   2.531  -2.118  1.00  0.00     0.218 HD
ENDBRANCH   4  19
TORSDOF 5
