REMARK  2 active torsions:
REMARK  status: ('A' for Active; 'I' for Inactive)
REMARK    1  A    between atoms: N1_1  and  N2_4 
REMARK    2  A    between atoms: N2_4  and  C1_5 
ROOT
HETATM    1  C1  UNL     1       1.081   0.138   0.072  1.00  0.00     0.121 C 
HETATM    2  C2  UNL     1       0.553  -1.124  -0.440  1.00  0.00    -0.008 C 
HETATM    3  C3  UNL     1      -0.606  -1.919  -0.264  1.00  0.00    -0.029 C 
HETATM    4  C4  UNL     1      -2.026  -1.322  -0.104  1.00  0.00     0.027 C 
HETATM    5  C5  UNL     1      -1.800   0.032   0.185  1.00  0.00     0.004 C 
HETATM    6  C6  UNL     1      -2.064   1.386   0.437  1.00  0.00     0.000 C 
HETATM    7  C7  UNL     1      -0.637   1.997   0.634  1.00  0.00     0.002 C 
HETATM    8  C8  UNL     1       0.420   1.435  -0.249  1.00  0.00     0.027 C 
ENDROOT
BRANCH   1   9
HETATM    9  N2  UNL     1       2.478   0.253  -0.429  1.00  0.00    -0.140 NA
BRANCH   9  10
HETATM   10  N1  UNL     1       3.274  -0.778   0.002  1.00  0.00    -0.348 N 
ATOM     11  H12 UNL     1       2.932  -1.531   0.599  1.00  0.00     0.172 HD
ATOM     12  H11 UNL     1       4.231  -0.699  -0.341  1.00  0.00     0.172 HD
ENDBRANCH   9  10
ENDBRANCH   1   9
TORSDOF 2
