REMARK  4 active torsions:
REMARK  status: ('A' for Active; 'I' for Inactive)
REMARK    1  A    between atoms: C3_5  and  N2_6 
REMARK    2  A    between atoms: N2_6  and  N3_8 
REMARK    3  A    between atoms: N3_8  and  O1_10 
REMARK    4  A    between atoms: C4_14  and  C5_15 
ROOT
HETATM    1  N1  UNL     1       0.155   4.004  -0.457  1.00  0.00    -0.191 NA
HETATM    2  C1  UNL     1      -0.375   2.969  -0.435  1.00  0.00     0.109 C 
HETATM    3  C2  UNL     1      -1.059   1.693  -0.364  1.00  0.00     0.116 A 
HETATM    4  S1  UNL     1      -2.791   1.516  -0.307  1.00  0.00    -0.039 SA
HETATM    5  C3  UNL     1      -2.854  -0.170  -0.117  1.00  0.00     0.166 A 
HETATM    6  N4  UNL     1      -1.581  -0.518  -0.107  1.00  0.00    -0.333 N 
ATOM      7  H4  UNL     1      -1.319  -1.498  -0.003  1.00  0.00     0.168 HD
HETATM    8  C4  UNL     1      -0.647   0.407  -0.232  1.00  0.00     0.074 A 
ENDROOT
BRANCH   8   9
HETATM    9  C5  UNL     1       0.769   0.043  -0.125  1.00  0.00     0.016 A 
HETATM   10  C6  UNL     1       1.094  -0.814   0.940  1.00  0.00     0.041 A 
HETATM   11  C7  UNL     1       2.345  -1.318   1.154  1.00  0.00     0.056 A 
HETATM   12 CL1  UNL     1       2.693  -2.384   2.500  1.00  0.00    -0.083 Cl
HETATM   13  C8  UNL     1       3.356  -0.974   0.285  1.00  0.00     0.057 A 
HETATM   14 CL2  UNL     1       4.969  -1.593   0.523  1.00  0.00    -0.082 Cl
HETATM   15  C9  UNL     1       3.062  -0.141  -0.763  1.00  0.00     0.050 A 
HETATM   16  C10 UNL     1       1.770   0.365  -0.968  1.00  0.00     0.048 A 
HETATM   17 CL3  UNL     1       1.485   1.307  -2.432  1.00  0.00    -0.083 Cl
ENDBRANCH   8   9
BRANCH   5  18
HETATM   18  N2  UNL     1      -3.922  -0.894  -0.012  1.00  0.00    -0.260 N 
ATOM     19  H2  UNL     1      -3.847  -1.905   0.099  1.00  0.00     0.191 HD
BRANCH  18  20
HETATM   20  N3  UNL     1      -5.199  -0.274  -0.052  1.00  0.00    -0.208 N 
ATOM     21  H3  UNL     1      -5.420   0.473  -0.711  1.00  0.00     0.215 HD
BRANCH  20  22
HETATM   22  O1  UNL     1      -6.043  -0.707   0.781  1.00  0.00    -0.274 OA
ATOM     23  H1  UNL     1      -6.897  -0.292   0.754  1.00  0.00     0.246 HD
ENDBRANCH  20  22
ENDBRANCH  18  20
ENDBRANCH   5  18
TORSDOF 4
