REMARK  5 active torsions:
REMARK  status: ('A' for Active; 'I' for Inactive)
REMARK    1  A    between atoms: C2_2  and  N1_3 
REMARK    2  A    between atoms: N1_3  and  C3_4 
REMARK       I    between atoms: N1_3  and  C10_13 
REMARK    3  A    between atoms: C3_4  and  C4_5 
REMARK       I    between atoms: C4_5  and  N2_7 
REMARK    4  A    between atoms: N2_7  and  C5_8 
REMARK       I    between atoms: C10_13  and  N5_18 
REMARK    5  A    between atoms: N5_18  and  C12_20 
ROOT
HETATM    1  N1  UNL     1      -0.424  -0.494   0.769  1.00  0.00    -0.208 N 
HETATM    2  C10 UNL     1      -1.523   0.514   0.668  1.00  0.00     0.685 C 
HETATM    3  N3  UNL     1      -1.521   1.318   1.607  1.00  0.00    -0.126 N 
ATOM      4  H3  UNL     1      -0.750   1.083   2.232  1.00  0.00     0.197 HD
HETATM    5  C11 UNL     1      -2.157   2.379   2.101  1.00  0.00     0.196 C 
HETATM    6  N4  UNL     1      -2.685   3.304   2.533  1.00  0.00    -0.171 NA
HETATM    7  N5  UNL     1      -2.316   0.379  -0.473  1.00  0.00    -0.221 N 
ATOM      8  H5  UNL     1      -1.773   0.299  -1.333  1.00  0.00     0.178 HD
ENDROOT
BRANCH   1   9
HETATM    9  C2  UNL     1      -0.775  -1.852   0.620  1.00  0.00     0.137 C 
HETATM   10  C1  UNL     1      -0.644  -2.634   1.928  1.00  0.00     0.027 C 
ENDBRANCH   1   9
BRANCH   1  11
HETATM   11  C3  UNL     1       0.877   0.040   1.032  1.00  0.00     0.260 C 
BRANCH  11  12
HETATM   12  C4  UNL     1       1.811  -0.130  -0.146  1.00  0.00     0.305 C 
HETATM   13  O1  UNL     1       1.300  -0.713  -1.119  1.00  0.00    -0.256 OA
HETATM   14  N2  UNL     1       3.093   0.348  -0.069  1.00  0.00    -0.408 NA
BRANCH  14  15
HETATM   15  C5  UNL     1       4.384   0.828   0.009  1.00  0.00     0.167 C 
HETATM   16  C6  UNL     1       4.963   1.456  -1.268  1.00  0.00     0.039 C 
HETATM   17  C7  UNL     1       5.648   0.331  -1.958  1.00  0.00     0.003 C 
HETATM   18  C8  UNL     1       6.020  -0.665  -0.910  1.00  0.00     0.003 C 
HETATM   19  C9  UNL     1       5.370  -0.231   0.373  1.00  0.00     0.039 C 
ENDBRANCH  14  15
ENDBRANCH  11  12
ENDBRANCH   1  11
BRANCH   7  20
HETATM   20  C12 UNL     1      -3.700   0.330  -0.686  1.00  0.00     0.099 C 
HETATM   21  C13 UNL     1      -4.499  -0.772  -0.074  1.00  0.00     0.026 C 
HETATM   22  C14 UNL     1      -5.933  -0.297  -0.168  1.00  0.00     0.002 C 
HETATM   23  C15 UNL     1      -5.872   1.072  -0.825  1.00  0.00     0.002 C 
HETATM   24  C16 UNL     1      -4.502   1.555  -0.250  1.00  0.00     0.026 C 
ENDBRANCH   7  20
TORSDOF 5
