REMARK  13 active torsions:
REMARK  status: ('A' for Active; 'I' for Inactive)
REMARK    1  A    between atoms: C4_4  and  C5_5 
REMARK    2  A    between atoms: C8_8  and  O1_9 
REMARK    3  A    between atoms: C13_15  and  O2_16 
REMARK    4  A    between atoms: O2_16  and  C14_17 
REMARK    5  A    between atoms: C14_17  and  O4_19 
REMARK    6  A    between atoms: O4_19  and  C15_20 
REMARK    7  A    between atoms: C15_20  and  O5_21 
REMARK    8  A    between atoms: C22_29  and  C23_30 
REMARK    9  A    between atoms: C23_30  and  C24_31 
REMARK   10  A    between atoms: C24_31  and  C25_32 
REMARK   11  A    between atoms: C25_32  and  O6_33 
REMARK   12  A    between atoms: C26_35  and  C27_36 
REMARK   13  A    between atoms: C27_36  and  O7_37 
ROOT
HETATM    1  C1  UNL     1       1.985   1.074   0.736  1.00  0.00     0.020 C 
HETATM    2  C2  UNL     1       1.927  -0.031   0.031  1.00  0.00    -0.056 C 
HETATM    3  C3  UNL     1       0.729  -0.350  -0.760  1.00  0.00    -0.044 C 
HETATM    4  C4  UNL     1      -0.465  -0.259  -0.278  1.00  0.00     0.009 C 
HETATM    5  C17 UNL     1       0.934  -0.870  -2.149  1.00  0.00    -0.020 C 
HETATM    6  C18 UNL     1      -0.328  -1.487  -2.703  1.00  0.00     0.020 C 
HETATM    7  C19 UNL     1       1.361   0.224  -3.084  1.00  0.00     0.020 C 
HETATM    8  C20 UNL     1       2.016  -1.937  -2.131  1.00  0.00     0.014 C 
HETATM    9  C21 UNL     1       2.459  -2.246  -0.714  1.00  0.00     0.010 C 
HETATM   10  C22 UNL     1       3.029  -0.980  -0.029  1.00  0.00     0.019 C 
ENDROOT
BRANCH   4  11
HETATM   11  C5  UNL     1      -0.908   0.125   1.024  1.00  0.00     0.004 C 
HETATM   12  C6  UNL     1      -2.193   0.186   1.378  1.00  0.00    -0.075 C 
HETATM   13  C7  UNL     1      -2.413   0.607   2.768  1.00  0.00     0.066 C 
HETATM   14  C16 UNL     1      -3.102  -0.188   0.284  1.00  0.00     0.067 C 
HETATM   15  C8  UNL     1      -3.317   1.773   2.938  1.00  0.00     0.126 C 
HETATM   16  C9  UNL     1      -4.240   2.058   1.789  1.00  0.00     0.017 C 
HETATM   17  C10 UNL     1      -3.611   2.829   0.659  1.00  0.00     0.013 C 
HETATM   18  C11 UNL     1      -5.108   0.927   1.365  1.00  0.00     0.017 C 
HETATM   19  C12 UNL     1      -6.167   1.499   0.424  1.00  0.00     0.013 C 
HETATM   20  C13 UNL     1      -4.490  -0.302   0.859  1.00  0.00     0.142 C 
BRANCH  15  21
HETATM   21  O1  UNL     1      -4.091   1.685   4.095  1.00  0.00    -0.395 OA
ATOM     22  H1  UNL     1      -4.669   2.431   4.204  1.00  0.00     0.210 HD
ENDBRANCH  15  21
BRANCH  20  23
HETATM   23  O2  UNL     1      -5.312  -0.810  -0.191  1.00  0.00    -0.292 OA
BRANCH  23  24
HETATM   24  C14 UNL     1      -5.858  -2.082  -0.163  1.00  0.00     0.408 C 
HETATM   25  O3  UNL     1      -5.633  -2.846   0.827  1.00  0.00    -0.229 OA
BRANCH  24  26
HETATM   26  O4  UNL     1      -6.643  -2.543  -1.185  1.00  0.00    -0.273 OA
BRANCH  26  27
HETATM   27  C15 UNL     1      -7.231  -3.827  -1.220  1.00  0.00     0.347 C 
BRANCH  27  28
HETATM   28  O5  UNL     1      -8.074  -3.992  -0.137  1.00  0.00    -0.377 OA
ATOM     29  H5  UNL     1      -8.469  -4.855  -0.161  1.00  0.00     0.212 HD
ENDBRANCH  27  28
ENDBRANCH  26  27
ENDBRANCH  24  26
ENDBRANCH  23  24
ENDBRANCH  20  23
ENDBRANCH   4  11
BRANCH  10  30
HETATM   30  C23 UNL     1       4.281  -0.587  -0.716  1.00  0.00     0.016 C 
BRANCH  30  31
HETATM   31  C24 UNL     1       4.958   0.619  -0.147  1.00  0.00     0.065 C 
BRANCH  31  32
HETATM   32  C25 UNL     1       6.243   0.858  -0.893  1.00  0.00     0.041 C 
HETATM   33  C26 UNL     1       7.400   0.834  -0.312  1.00  0.00     0.031 C 
BRANCH  32  34
HETATM   34  O6  UNL     1       6.151   1.116  -2.283  1.00  0.00    -0.365 OA
ATOM     35  H6  UNL     1       6.962   1.267  -2.754  1.00  0.00     0.217 HD
ENDBRANCH  32  34
BRANCH  33  36
HETATM   36  C27 UNL     1       7.694   0.586   1.098  1.00  0.00     0.196 C 
BRANCH  36  37
HETATM   37  O7  UNL     1       8.333   1.663   1.662  1.00  0.00    -0.392 OA
HETATM   38  C28 UNL     1       9.535   1.925   1.035  1.00  0.00     0.201 C 
ENDBRANCH  36  37
ENDBRANCH  33  36
ENDBRANCH  31  32
ENDBRANCH  30  31
ENDBRANCH  10  30
TORSDOF 13
