REMARK  3 active torsions:
REMARK  status: ('A' for Active; 'I' for Inactive)
REMARK    1  A    between atoms: O1_1  and  N1_3 
REMARK       I    between atoms: C1_5  and  N2_6 
REMARK       I    between atoms: C1_5  and  N3_13 
REMARK    2  A    between atoms: N2_6  and  C2_8 
REMARK    3  A    between atoms: N3_13  and  C6_15 
ROOT
HETATM    1  N1  UNL     1       0.414  -1.079  -1.359  1.00  0.00    -0.099 N 
ATOM      2  H1  UNL     1      -0.337  -0.829  -2.003  1.00  0.00     0.213 HD
HETATM    3  C1  UNL     1       0.551  -0.386  -0.264  1.00  0.00     0.699 C 
HETATM    4  N2  UNL     1       1.596  -0.753   0.607  1.00  0.00    -0.184 N 
ATOM      5  H2  UNL     1       1.416  -1.303   1.447  1.00  0.00     0.185 HD
HETATM    6  N3  UNL     1      -0.351   0.682  -0.023  1.00  0.00    -0.220 N 
ATOM      7  H3  UNL     1      -0.052   1.652  -0.124  1.00  0.00     0.178 HD
ENDROOT
BRANCH   1   8
HETATM    8  O1  UNL     1       1.226  -2.119  -1.681  1.00  0.00    -0.276 OA
ATOM      9  H1  UNL     1       1.126  -2.624  -2.479  1.00  0.00     0.245 HD
ENDBRANCH   1   8
BRANCH   4  10
HETATM   10  C2  UNL     1       2.934  -0.320   0.266  1.00  0.00     0.090 A 
HETATM   11  C3  UNL     1       4.100  -0.548   0.945  1.00  0.00     0.038 A 
HETATM   12  C4  UNL     1       5.228  -0.038   0.423  1.00  0.00     0.010 A 
HETATM   13  C5  UNL     1       5.115   0.668  -0.745  1.00  0.00     0.052 A 
HETATM   14  S1  UNL     1       3.446   0.598  -1.078  1.00  0.00    -0.084 SA
ENDBRANCH   4  10
BRANCH   6  15
HETATM   15  C6  UNL     1      -1.691   0.363   0.366  1.00  0.00     0.099 C 
HETATM   16  C7  UNL     1      -2.550   1.582   0.592  1.00  0.00     0.026 C 
HETATM   17  C8  UNL     1      -3.953   1.031   0.556  1.00  0.00     0.002 C 
HETATM   18  C9  UNL     1      -3.869  -0.320  -0.119  1.00  0.00     0.002 C 
HETATM   19  C10 UNL     1      -2.467  -0.343  -0.741  1.00  0.00     0.026 C 
ENDBRANCH   6  15
TORSDOF 3
