REMARK  2 active torsions:
REMARK  status: ('A' for Active; 'I' for Inactive)
REMARK    1  A    between atoms: C2_3  and  N2_4 
REMARK    2  A    between atoms: C3_6  and  C4_7 
ROOT
HETATM    1  N1  UNL     1       2.727  -2.414  -0.034  1.00  0.00    -0.097 NA
HETATM    2  C1  UNL     1       3.165  -1.063   0.153  1.00  0.00     0.111 A 
HETATM    3  C2  UNL     1       2.260  -0.049   0.340  1.00  0.00     0.060 A 
HETATM    4  C10 UNL     1       2.711   1.234   0.517  1.00  0.00     0.048 A 
HETATM    5  C11 UNL     1       4.074   1.464   0.500  1.00  0.00     0.091 A 
HETATM    6  N3  UNL     1       4.972   0.489   0.318  1.00  0.00    -0.355 N 
ATOM      7  H3  UNL     1       5.972   0.689   0.310  1.00  0.00     0.166 HD
HETATM    8  C12 UNL     1       4.517  -0.753   0.148  1.00  0.00     0.127 A 
HETATM    9  S1  UNL     1       5.605  -1.967  -0.076  1.00  0.00    -0.058 SA
ENDROOT
BRANCH   3  10
HETATM   10  N2  UNL     1       0.878  -0.321   0.352  1.00  0.00    -0.368 N 
HETATM   11  C3  UNL     1       0.098   0.191  -0.528  1.00  0.00     0.066 C 
ATOM     12  H2  UNL     1       0.492  -0.934   1.070  1.00  0.00     0.165 HD
BRANCH  11  13
HETATM   13  C4  UNL     1      -1.357  -0.056  -0.568  1.00  0.00     0.024 C 
HETATM   14  C5  UNL     1      -1.871  -0.661   0.725  1.00  0.00     0.010 C 
HETATM   15  C6  UNL     1      -3.318  -0.991   0.498  1.00  0.00     0.001 C 
HETATM   16  C7  UNL     1      -4.157   0.211   0.179  1.00  0.00     0.000 C 
HETATM   17  C8  UNL     1      -3.540   1.172  -0.766  1.00  0.00     0.001 C 
HETATM   18  C9  UNL     1      -2.062   1.254  -0.748  1.00  0.00     0.010 C 
ENDBRANCH  11  13
ENDBRANCH   3  10
TORSDOF 2
