REMARK  4 active torsions:
REMARK  status: ('A' for Active; 'I' for Inactive)
REMARK    1  A    between atoms: C2_2  and  N1_3 
REMARK    2  A    between atoms: C4_5  and  N2_6 
REMARK       I    between atoms: N2_6  and  C5_8 
REMARK    3  A    between atoms: C5_8  and  C6_10 
REMARK    4  A    between atoms: C6_10  and  N3_11 
REMARK       I    between atoms: N3_11  and  C7_13 
ROOT
HETATM    1  N2  UNL     1      -0.077  -0.405  -0.127  1.00  0.00    -0.352 N 
ATOM      2  H2  UNL     1      -0.288   0.238   0.636  1.00  0.00     0.163 HD
HETATM    3  C5  UNL     1      -1.116  -1.096  -0.767  1.00  0.00     0.246 C 
HETATM    4  O1  UNL     1      -0.827  -1.884  -1.704  1.00  0.00    -0.271 OA
ENDROOT
BRANCH   3   5
HETATM    5  C6  UNL     1      -2.525  -0.897  -0.343  1.00  0.00     0.117 A 
HETATM    6  C8  UNL     1      -3.615  -1.131  -1.328  1.00  0.00     0.048 A 
HETATM    7  C9  UNL     1      -3.359  -2.215  -0.365  1.00  0.00     0.022 A 
HETATM    8  C10 UNL     1      -4.247  -2.471   0.809  1.00  0.00     0.013 C 
BRANCH   5   9
HETATM    9  N3  UNL     1      -2.856   0.031   0.706  1.00  0.00    -0.346 N 
HETATM   10  C7  UNL     1      -2.632   1.427   0.649  1.00  0.00     0.182 C 
HETATM   11  N4  UNL     1      -2.665   2.103  -0.444  1.00  0.00    -0.374 N 
HETATM   12  N5  UNL     1      -2.357   2.115   1.857  1.00  0.00    -0.064 NA
ATOM     13  H42 UNL     1      -2.863   1.608  -1.313  1.00  0.00     0.158 HD
ATOM     14  H41 UNL     1      -2.504   3.109  -0.485  1.00  0.00     0.158 HD
ATOM     15  H3  UNL     1      -3.283  -0.345   1.552  1.00  0.00     0.163 HD
ENDBRANCH   5   9
ENDBRANCH   3   5
BRANCH   1  16
HETATM   16  C4  UNL     1       1.293  -0.602  -0.546  1.00  0.00     0.119 C 
HETATM   17  C3  UNL     1       1.987   0.667  -0.887  1.00  0.00     0.298 C 
HETATM   18  N1  UNL     1       3.286   0.601  -0.338  1.00  0.00     0.095 N 
HETATM   19  C13 UNL     1       3.478  -0.525   0.482  1.00  0.00     0.229 A 
HETATM   20  C11 UNL     1       2.145  -1.193   0.553  1.00  0.00     0.045 A 
HETATM   21  C12 UNL     1       3.353  -1.921   0.053  1.00  0.00     0.045 A 
BRANCH  18  22
HETATM   22  C2  UNL     1       3.797   1.836   0.184  1.00  0.00     0.268 C 
HETATM   23  C1  UNL     1       4.071   2.865  -0.883  1.00  0.00     0.037 C 
ENDBRANCH  18  22
ENDBRANCH   1  16
TORSDOF 4
