REMARK  16 active torsions:
REMARK  status: ('A' for Active; 'I' for Inactive)
REMARK    1  A    between atoms: C1_4  and  C2_6 
REMARK    2  A    between atoms: C6_10  and  C7_11 
REMARK    3  A    between atoms: C7_11  and  C8_12 
REMARK    4  A    between atoms: C11_15  and  N3_16 
REMARK    5  A    between atoms: C15_23  and  C16_24 
REMARK    6  A    between atoms: C16_24  and  C17_25 
REMARK    7  A    between atoms: C17_25  and  C18_26 
REMARK    8  A    between atoms: C18_26  and  C19_27 
REMARK    9  A    between atoms: C19_27  and  C20_28 
REMARK   10  A    between atoms: C20_28  and  C21_29 
REMARK   11  A    between atoms: C21_29  and  N6_30 
REMARK   12  A    between atoms: N9_35  and  C23_36 
REMARK   13  A    between atoms: C23_36  and  C24_37 
REMARK   14  A    between atoms: C27_40  and  C28_41 
REMARK   15  A    between atoms: C33_46  and  S1_47 
REMARK   16  A    between atoms: S1_47  and  N10_48 
ROOT
HETATM    1  C2  UNL     1       1.450  -4.436   1.203  1.00  0.00     0.007 A 
HETATM    2  C3  UNL     1       0.302  -4.838   0.592  1.00  0.00     0.016 A 
HETATM    3  C4  UNL     1      -0.760  -3.960   0.450  1.00  0.00     0.015 A 
HETATM    4  C5  UNL     1      -0.677  -2.670   0.922  1.00  0.00     0.004 A 
HETATM    5  C6  UNL     1      -1.560  -1.582   0.944  1.00  0.00     0.004 A 
HETATM    6  C15 UNL     1      -0.899  -0.533   1.581  1.00  0.00     0.050 A 
HETATM    7  N9  UNL     1       0.360  -0.957   1.941  1.00  0.00    -0.320 N 
HETATM    8  C36 UNL     1       0.471  -2.229   1.545  1.00  0.00     0.051 A 
HETATM    9  C37 UNL     1       1.517  -3.142   1.670  1.00  0.00     0.045 A 
ENDROOT
BRANCH   7  10
HETATM   10  C23 UNL     1       1.418  -0.205   2.585  1.00  0.00     0.109 C 
BRANCH  10  11
HETATM   11  C24 UNL     1       2.360   0.476   1.719  1.00  0.00    -0.020 A 
HETATM   12  C25 UNL     1       3.560  -0.105   1.386  1.00  0.00     0.013 A 
HETATM   13  C26 UNL     1       4.508   0.475   0.577  1.00  0.00     0.013 A 
HETATM   14  C27 UNL     1       4.290   1.722   0.040  1.00  0.00    -0.024 A 
HETATM   15  C34 UNL     1       3.094   2.341   0.354  1.00  0.00     0.013 A 
HETATM   16  C35 UNL     1       2.148   1.722   1.181  1.00  0.00     0.013 A 
BRANCH  14  17
HETATM   17  C28 UNL     1       5.269   2.353  -0.833  1.00  0.00    -0.003 A 
HETATM   18  C29 UNL     1       6.055   3.352  -0.287  1.00  0.00     0.014 A 
HETATM   19  C30 UNL     1       7.030   3.994  -1.016  1.00  0.00     0.001 A 
HETATM   20  C31 UNL     1       7.257   3.655  -2.332  1.00  0.00     0.002 A 
HETATM   21  C32 UNL     1       6.482   2.661  -2.894  1.00  0.00     0.026 A 
HETATM   22  C33 UNL     1       5.492   2.013  -2.148  1.00  0.00     0.090 A 
BRANCH  22  23
HETATM   23  S1  UNL     1       4.534   0.798  -2.944  1.00  0.00     0.257 S 
HETATM   24  O1  UNL     1       3.093   1.240  -3.030  1.00  0.00    -0.201 OA
HETATM   25  O2  UNL     1       4.652  -0.545  -2.296  1.00  0.00    -0.201 OA
BRANCH  23  26
HETATM   26  N10 UNL     1       5.092   0.687  -4.599  1.00  0.00    -0.324 N 
ATOM     27 2H10 UNL     1       5.844   1.241  -5.008  1.00  0.00     0.169 HD
ATOM     28 1H10 UNL     1       4.530  -0.025  -5.066  1.00  0.00     0.169 HD
ENDBRANCH  23  26
ENDBRANCH  22  23
ENDBRANCH  14  17
ENDBRANCH  10  11
ENDBRANCH   7  10
BRANCH   6  29
HETATM   29  C16 UNL     1      -1.303   0.662   1.836  1.00  0.00     0.030 C 
BRANCH  29  30
HETATM   30  C17 UNL     1      -2.450   1.469   1.644  1.00  0.00    -0.002 C 
BRANCH  30  31
HETATM   31  C18 UNL     1      -2.391   2.752   2.133  1.00  0.00    -0.026 C 
BRANCH  31  32
HETATM   32  C19 UNL     1      -3.534   3.673   1.980  1.00  0.00     0.029 C 
BRANCH  32  33
HETATM   33  C20 UNL     1      -3.137   4.917   1.198  1.00  0.00     0.023 C 
BRANCH  33  34
HETATM   34  C21 UNL     1      -2.030   5.647   1.934  1.00  0.00     0.122 C 
BRANCH  34  35
HETATM   35  N6  UNL     1      -1.615   6.822   1.227  1.00  0.00    -0.367 N 
HETATM   36  C22 UNL     1      -2.315   7.902   1.248  1.00  0.00     0.196 C 
HETATM   37  N7  UNL     1      -1.839   9.050   0.514  1.00  0.00    -0.067 NA
HETATM   38  N8  UNL     1      -3.538   8.014   1.961  1.00  0.00    -0.067 NA
ATOM     39  H6  UNL     1      -0.745   6.802   0.695  1.00  0.00     0.161 HD
ENDBRANCH  34  35
ENDBRANCH  33  34
ENDBRANCH  32  33
ENDBRANCH  31  32
ENDBRANCH  30  31
ENDBRANCH  29  30
ENDBRANCH   6  29
BRANCH   5  40
HETATM   40  C7  UNL     1      -2.785  -1.552   0.482  1.00  0.00     0.026 C 
BRANCH  40  41
HETATM   41  C8  UNL     1      -3.535  -2.622  -0.162  1.00  0.00    -0.035 A 
HETATM   42  C9  UNL     1      -3.536  -2.763  -1.537  1.00  0.00     0.013 A 
HETATM   43  C10 UNL     1      -4.307  -3.756  -2.100  1.00  0.00     0.030 A 
HETATM   44  C11 UNL     1      -5.062  -4.588  -1.276  1.00  0.00     0.034 A 
HETATM   45  C13 UNL     1      -5.061  -4.447   0.097  1.00  0.00     0.030 A 
HETATM   46  C14 UNL     1      -4.299  -3.464   0.660  1.00  0.00     0.013 A 
BRANCH  44  47
HETATM   47  N3  UNL     1      -5.873  -5.640  -1.775  1.00  0.00    -0.333 N 
HETATM   48  C12 UNL     1      -5.504  -6.532  -2.618  1.00  0.00     0.201 C 
HETATM   49  N4  UNL     1      -6.406  -7.553  -3.056  1.00  0.00    -0.066 NA
HETATM   50  N5  UNL     1      -4.174  -6.486  -3.111  1.00  0.00    -0.066 NA
ATOM     51  H3  UNL     1      -6.833  -5.691  -1.433  1.00  0.00     0.168 HD
ENDBRANCH  44  47
ENDBRANCH  40  41
ENDBRANCH   5  40
BRANCH   1  52
HETATM   52  C1  UNL     1       2.584  -5.335   1.365  1.00  0.00     0.120 C 
HETATM   53  N1  UNL     1       3.643  -4.904   1.950  1.00  0.00    -0.387 N 
ATOM     54  H12 UNL     1       4.437  -5.534   2.063  1.00  0.00     0.157 HD
ATOM     55  H11 UNL     1       3.706  -3.949   2.303  1.00  0.00     0.157 HD
HETATM   56  N2  UNL     1       2.497  -6.660   0.875  1.00  0.00    -0.082 NA
ENDBRANCH   1  52
TORSDOF 16
