REMARK  13 active torsions:
REMARK  status: ('A' for Active; 'I' for Inactive)
REMARK    1  A    between atoms: C2_2  and  O1_5 
REMARK    2  A    between atoms: O1_5  and  C5_6 
REMARK       I    between atoms: C5_6  and  N1_8 
REMARK    3  A    between atoms: N1_8  and  C6_10 
REMARK    4  A    between atoms: C6_10  and  C7_11 
REMARK    5  A    between atoms: C6_10  and  C22_38 
REMARK       I    between atoms: C7_11  and  N2_13 
REMARK    6  A    between atoms: N2_13  and  C8_15 
REMARK    7  A    between atoms: C8_15  and  C9_16 
REMARK    8  A    between atoms: C8_15  and  C15_24 
REMARK    9  A    between atoms: C9_16  and  C10_17 
REMARK   10  A    between atoms: C15_24  and  O4_25 
REMARK   11  A    between atoms: C15_24  and  C16_27 
REMARK   12  A    between atoms: C16_27  and  N4_30 
REMARK   13  A    between atoms: C20_35  and  C21_36 
ROOT
HETATM    1  C8  UNL     1      -1.390   1.263  -0.828  1.00  0.00     0.122 C 
ENDROOT
BRANCH   1   2
HETATM    2  N2  UNL     1       0.013   0.925  -0.918  1.00  0.00    -0.349 N 
HETATM    3  C7  UNL     1       0.667  -0.040  -1.687  1.00  0.00     0.265 C 
HETATM    4  O3  UNL     1       0.014  -0.829  -2.395  1.00  0.00    -0.266 OA
ATOM      5  H2  UNL     1       0.625   1.483  -0.322  1.00  0.00     0.163 HD
BRANCH   3   6
HETATM    6  C6  UNL     1       2.165  -0.164  -1.684  1.00  0.00     0.089 C 
BRANCH   6   7
HETATM    7  N1  UNL     1       2.663  -0.578  -0.426  1.00  0.00    -0.300 N 
HETATM    8  C5  UNL     1       3.626  -1.549  -0.138  1.00  0.00     0.365 C 
HETATM    9  O2  UNL     1       4.176  -2.193  -1.068  1.00  0.00    -0.238 OA
ATOM     10  H1  UNL     1       2.264  -0.102   0.383  1.00  0.00     0.171 HD
BRANCH   8  11
HETATM   11  O1  UNL     1       4.001  -1.838   1.152  1.00  0.00    -0.294 OA
BRANCH  11  12
HETATM   12  C2  UNL     1       4.939  -2.764   1.557  1.00  0.00     0.061 C 
HETATM   13  C1  UNL     1       4.994  -2.720   3.088  1.00  0.00     0.046 C 
HETATM   14  C3  UNL     1       6.342  -2.488   1.064  1.00  0.00     0.046 C 
HETATM   15  C4  UNL     1       4.520  -4.148   1.154  1.00  0.00     0.046 C 
ENDBRANCH  11  12
ENDBRANCH   8  11
ENDBRANCH   6   7
BRANCH   6  16
HETATM   16  C22 UNL     1       2.809   0.919  -2.442  1.00  0.00    -0.003 C 
HETATM   17  C23 UNL     1       2.042   1.125  -3.778  1.00  0.00     0.021 C 
HETATM   18  C24 UNL     1       4.219   0.515  -2.884  1.00  0.00     0.021 C 
HETATM   19  C25 UNL     1       2.821   2.251  -1.761  1.00  0.00     0.021 C 
ENDBRANCH   6  16
ENDBRANCH   3   6
ENDBRANCH   1   2
BRANCH   1  20
HETATM   20  C9  UNL     1      -1.475   2.523  -0.120  1.00  0.00     0.034 C 
BRANCH  20  21
HETATM   21  C10 UNL     1      -2.686   3.263   0.201  1.00  0.00     0.005 C 
HETATM   22  C11 UNL     1      -3.530   3.732  -0.977  1.00  0.00     0.008 C 
HETATM   23  C12 UNL     1      -4.675   4.565  -0.454  1.00  0.00     0.020 C 
HETATM   24  C13 UNL     1      -4.513   4.980   0.996  1.00  0.00     0.113 C 
HETATM   25  N3  UNL     1      -3.187   5.474   1.185  1.00  0.00    -0.421 N 
HETATM   26  C14 UNL     1      -2.143   4.619   0.756  1.00  0.00     0.118 C 
ATOM     27  H3  UNL     1      -3.003   6.386   1.603  1.00  0.00     0.153 HD
ENDBRANCH  20  21
ENDBRANCH   1  20
BRANCH   1  28
HETATM   28  C15 UNL     1      -2.201   0.110  -0.448  1.00  0.00     0.246 C 
BRANCH  28  29
HETATM   29  O4  UNL     1      -3.595   0.418  -0.408  1.00  0.00    -0.385 OA
ATOM     30  H4  UNL     1      -4.123  -0.332  -0.161  1.00  0.00     0.210 HD
ENDBRANCH  28  29
BRANCH  28  31
HETATM   31  C16 UNL     1      -1.875  -0.666   0.817  1.00  0.00     0.467 C 
HETATM   32  F1  UNL     1      -0.531  -0.897   0.965  1.00  0.00    -0.170 F 
HETATM   33  F2  UNL     1      -2.243   0.090   1.925  1.00  0.00    -0.170 F 
BRANCH  31  34
HETATM   34  N4  UNL     1      -2.601  -1.875   0.859  1.00  0.00     0.174 N 
HETATM   35  C17 UNL     1      -2.290  -2.818  -0.141  1.00  0.00     0.307 C 
HETATM   36  C18 UNL     1      -3.371  -3.905  -0.254  1.00  0.00     0.198 C 
HETATM   37  O5  UNL     1      -3.903  -4.134   1.000  1.00  0.00    -0.387 OA
HETATM   38  C19 UNL     1      -2.865  -4.009   1.940  1.00  0.00     0.206 C 
HETATM   39  C20 UNL     1      -2.685  -2.478   2.142  1.00  0.00     0.282 C 
BRANCH  39  40
HETATM   40  C21 UNL     1      -3.921  -2.093   2.941  1.00  0.00     0.260 C 
HETATM   41  F3  UNL     1      -5.025  -2.463   2.211  1.00  0.00    -0.253 F 
ENDBRANCH  39  40
ENDBRANCH  31  34
ENDBRANCH  28  31
ENDBRANCH   1  28
TORSDOF 13
