REMARK  14 active torsions:
REMARK  status: ('A' for Active; 'I' for Inactive)
REMARK    1  A    between atoms: C2_2  and  N1_5 
REMARK    2  A    between atoms: N1_5  and  C5_7 
REMARK    3  A    between atoms: C5_7  and  C6_8 
REMARK    4  A    between atoms: C6_8  and  O2_10 
REMARK    5  A    between atoms: O2_10  and  C7_11 
REMARK    6  A    between atoms: C7_11  and  N2_12 
REMARK    7  A    between atoms: C7_11  and  C15_25 
REMARK    8  A    between atoms: N2_12  and  C8_14 
REMARK    9  A    between atoms: C11_17  and  C12_18 
REMARK   10  A    between atoms: C15_25  and  C16_27 
REMARK   11  A    between atoms: C16_27  and  N3_28 
REMARK   12  A    between atoms: C16_27  and  C22_36 
REMARK       I    between atoms: N3_28  and  C17_29 
REMARK   13  A    between atoms: C17_29  and  O7_31 
REMARK   14  A    between atoms: O7_31  and  C18_32 
ROOT
HETATM    1  C7  UNL     1      -0.704   0.789  -0.653  1.00  0.00     0.301 C 
ENDROOT
BRANCH   1   2
HETATM    2  O2  UNL     1      -1.560  -0.245  -1.098  1.00  0.00    -0.287 OA
BRANCH   2   3
HETATM    3  C6  UNL     1      -2.326  -1.056  -0.336  1.00  0.00     0.278 C 
HETATM    4  O1  UNL     1      -2.313  -0.948   0.916  1.00  0.00    -0.263 OA
BRANCH   3   5
HETATM    5  C5  UNL     1      -3.187  -2.074  -1.041  1.00  0.00     0.226 C 
BRANCH   5   6
HETATM    6  N1  UNL     1      -3.949  -2.706  -0.031  1.00  0.00    -0.405 N 
ATOM      7  H1  UNL     1      -3.800  -2.480   0.952  1.00  0.00     0.154 HD
BRANCH   6   8
HETATM    8  C2  UNL     1      -4.924  -3.661  -0.415  1.00  0.00     0.015 C 
HETATM    9  C1  UNL     1      -4.282  -4.832  -1.105  1.00  0.00     0.037 C 
HETATM   10  C3  UNL     1      -5.977  -2.997  -1.300  1.00  0.00     0.037 C 
HETATM   11  C4  UNL     1      -5.618  -4.128   0.857  1.00  0.00     0.037 C 
ENDBRANCH   6   8
ENDBRANCH   5   6
ENDBRANCH   3   5
ENDBRANCH   2   3
ENDBRANCH   1   2
BRANCH   1  12
HETATM   12  N2  UNL     1      -1.141   2.073  -1.156  1.00  0.00    -0.380 N 
ATOM     13  H2  UNL     1      -1.200   2.281  -2.153  1.00  0.00     0.157 HD
BRANCH  12  14
HETATM   14  C8  UNL     1      -1.471   2.994  -0.185  1.00  0.00     0.048 C 
HETATM   15  C9  UNL     1      -2.710   2.499   0.687  1.00  0.00     0.043 C 
HETATM   16  C10 UNL     1      -2.889   3.977   0.883  1.00  0.00     0.077 C 
HETATM   17  C11 UNL     1      -2.480   4.087  -0.551  1.00  0.00     0.124 C 
HETATM   18  C13 UNL     1      -1.675   4.344   1.670  1.00  0.00     0.250 C 
HETATM   19  F1  UNL     1      -1.387   5.685   1.705  1.00  0.00    -0.206 F 
HETATM   20  F2  UNL     1      -1.752   3.778   2.917  1.00  0.00    -0.206 F 
HETATM   21  C14 UNL     1      -0.615   3.571   0.844  1.00  0.00     0.111 C 
BRANCH  17  22
HETATM   22  C12 UNL     1      -1.973   5.330  -1.080  1.00  0.00     0.180 C 
HETATM   23  O3  UNL     1      -0.768   5.478  -1.377  1.00  0.00    -0.648 OA
HETATM   24  O4  UNL     1      -2.817   6.425  -1.280  1.00  0.00    -0.648 OA
ENDBRANCH  17  22
ENDBRANCH  12  14
ENDBRANCH   1  12
BRANCH   1  25
HETATM   25  C15 UNL     1       0.717   0.483  -0.737  1.00  0.00     0.211 C 
HETATM   26  O5  UNL     1       1.352   1.093  -1.648  1.00  0.00    -0.290 OA
BRANCH  25  27
HETATM   27  C16 UNL     1       1.498  -0.457   0.101  1.00  0.00     0.247 C 
BRANCH  27  28
HETATM   28  N3  UNL     1       2.772  -0.774  -0.332  1.00  0.00    -0.377 NA
HETATM   29  C17 UNL     1       4.033  -1.092  -0.768  1.00  0.00     0.436 C 
HETATM   30  O6  UNL     1       4.437  -1.762  -1.683  1.00  0.00    -0.221 OA
BRANCH  29  31
HETATM   31  O7  UNL     1       5.125  -0.508   0.009  1.00  0.00    -0.283 OA
BRANCH  31  32
HETATM   32  C18 UNL     1       6.458  -0.703  -0.289  1.00  0.00     0.062 C 
HETATM   33  C19 UNL     1       6.909  -2.124  -0.252  1.00  0.00     0.046 C 
HETATM   34  C20 UNL     1       6.818  -0.130  -1.659  1.00  0.00     0.046 C 
HETATM   35  C21 UNL     1       7.320   0.099   0.703  1.00  0.00     0.046 C 
ENDBRANCH  31  32
ENDBRANCH  29  31
ENDBRANCH  27  28
BRANCH  27  36
HETATM   36  C22 UNL     1       1.462   0.008   1.562  1.00  0.00     0.029 A 
HETATM   37  C23 UNL     1       2.229  -0.748   2.601  1.00  0.00     0.009 A 
HETATM   38  C24 UNL     1       2.560   0.723   2.197  1.00  0.00     0.009 A 
ENDBRANCH  27  36
ENDBRANCH  25  27
ENDBRANCH   1  25
TORSDOF 14
