REMARK  3 active torsions:
REMARK  status: ('A' for Active; 'I' for Inactive)
REMARK    1  A    between atoms: N1_8  and  C6_9 
REMARK    2  A    between atoms: C6_9  and  C7_10 
REMARK    3  A    between atoms: C7_10  and  C8_11 
ROOT
HETATM    1  C1  UNL     1       0.022   1.871  -0.859  1.00  0.00     0.074 C 
HETATM    2  C2  UNL     1      -0.557   0.838  -0.024  1.00  0.00     0.169 C 
HETATM    3  C3  UNL     1      -1.968   0.399  -0.349  1.00  0.00     0.068 C 
HETATM    4  C4  UNL     1      -2.060  -0.991   0.283  1.00  0.00     0.062 C 
HETATM    5  C5  UNL     1      -0.726  -1.064   1.020  1.00  0.00     0.264 C 
HETATM    6  O1  UNL     1      -0.758  -0.050   1.968  1.00  0.00    -0.212 OA
HETATM    7  O2  UNL     1      -0.572   1.097   1.360  1.00  0.00    -0.206 OA
HETATM    8  N1  UNL     1       0.108  -0.442   0.010  1.00  0.00    -0.320 N 
ENDROOT
BRANCH   8   9
HETATM    9  C6  UNL     1       1.168  -1.033  -0.621  1.00  0.00     0.149 C 
BRANCH   9  10
HETATM   10  C7  UNL     1       2.355  -0.844  -0.122  1.00  0.00    -0.082 C 
BRANCH  10  11
HETATM   11  C8  UNL     1       3.512  -0.538   0.412  1.00  0.00     0.245 C 
HETATM   12  F1  UNL     1       4.093   0.564  -0.052  1.00  0.00    -0.211 F 
ENDBRANCH  10  11
ENDBRANCH   9  10
ENDBRANCH   8   9
TORSDOF 3
