REMARK  10 active torsions:
REMARK  status: ('A' for Active; 'I' for Inactive)
REMARK    1  A    between atoms: O1_2  and  C2_3 
REMARK    2  A    between atoms: C3_7  and  O2_8 
REMARK    3  A    between atoms: O2_8  and  C4_9 
REMARK    4  A    between atoms: C6_14  and  N3_15 
REMARK    5  A    between atoms: C8_20  and  C9_21 
REMARK       I    between atoms: N6_22  and  C10_24 
REMARK       I    between atoms: C10_24  and  N7_26 
REMARK    6  A    between atoms: N7_26  and  C11_28 
REMARK    7  A    between atoms: C11_28  and  C12_29 
REMARK    8  A    between atoms: C12_29  and  C13_30 
REMARK    9  A    between atoms: C13_30  and  N8_31 
REMARK   10  A    between atoms: C15_36  and  O5_38 
ROOT
HETATM    1  C4  UNL     1      -2.269  -1.308   1.037  1.00  0.00     0.237 C 
HETATM    2  N2  UNL     1      -2.356  -2.767   0.809  1.00  0.00    -0.332 N 
ATOM      3  H2  UNL     1      -2.917  -3.251   0.108  1.00  0.00     0.165 HD
HETATM    4  C5  UNL     1      -1.496  -3.348   1.769  1.00  0.00     0.243 C 
HETATM    5  O3  UNL     1      -1.422  -4.565   2.021  1.00  0.00    -0.271 OA
HETATM    6  C6  UNL     1      -0.708  -2.278   2.419  1.00  0.00     0.189 C 
HETATM    7  C8  UNL     1      -0.750  -1.236   1.269  1.00  0.00     0.105 C 
ENDROOT
BRANCH   7   8
HETATM    8  C9  UNL     1      -0.284   0.060   1.719  1.00  0.00     0.077 C 
HETATM    9  N6  UNL     1       0.615   0.722   1.153  1.00  0.00    -0.322 N 
HETATM   10  C10 UNL     1       1.420   0.535   0.036  1.00  0.00     0.323 C 
ATOM     11  H6  UNL     1       0.800   1.608   1.623  1.00  0.00     0.169 HD
HETATM   12  O4  UNL     1       1.459   1.531  -0.775  1.00  0.00    -0.247 OA
HETATM   13  N7  UNL     1       2.169  -0.604  -0.269  1.00  0.00    -0.322 N 
ATOM     14  H7  UNL     1       2.048  -1.350   0.416  1.00  0.00     0.169 HD
BRANCH  13  15
HETATM   15  C11 UNL     1       3.046  -0.954  -1.299  1.00  0.00     0.067 C 
BRANCH  15  16
HETATM   16  C12 UNL     1       4.395  -0.339  -1.410  1.00  0.00     0.064 C 
BRANCH  16  17
HETATM   17  C13 UNL     1       4.406   1.124  -1.542  1.00  0.00     0.127 C 
BRANCH  17  18
HETATM   18  N8  UNL     1       5.747   1.673  -1.699  1.00  0.00    -0.367 N 
HETATM   19  C14 UNL     1       6.538   1.587  -2.649  1.00  0.00     0.196 C 
HETATM   20  N9  UNL     1       6.238   0.881  -3.837  1.00  0.00    -0.067 NA
HETATM   21  N10 UNL     1       7.820   2.239  -2.530  1.00  0.00    -0.067 NA
ATOM     22  H8  UNL     1       6.087   2.212  -0.903  1.00  0.00     0.161 HD
ENDBRANCH  17  18
ENDBRANCH  16  17
ENDBRANCH  15  16
ENDBRANCH  13  15
ENDBRANCH   7   8
BRANCH   1  23
HETATM   23  O2  UNL     1      -2.715  -0.594  -0.015  1.00  0.00    -0.331 OA
BRANCH  23  24
HETATM   24  C3  UNL     1      -3.751   0.256   0.161  1.00  0.00     0.364 C 
HETATM   25  N1  UNL     1      -4.934   0.051  -0.654  1.00  0.00    -0.016 N 
HETATM   26  C2  UNL     1      -5.195   1.476  -0.546  1.00  0.00     0.362 C 
ATOM     27  H12 UNL     1      -5.642  -0.632  -0.385  1.00  0.00     0.283 HD
ATOM     28  H11 UNL     1      -4.869  -0.401  -1.566  1.00  0.00     0.283 HD
HETATM   29  C15 UNL     1      -3.679   1.658  -0.352  1.00  0.00     0.157 C 
HETATM   30  C16 UNL     1      -3.426   2.767   0.599  1.00  0.00     0.055 C 
BRANCH  26  31
HETATM   31  O1  UNL     1      -5.702   2.020  -1.701  1.00  0.00    -0.362 OA
HETATM   32  C1  UNL     1      -6.841   2.788  -1.449  1.00  0.00     0.204 C 
ENDBRANCH  26  31
BRANCH  29  33
HETATM   33  O5  UNL     1      -3.095   1.840  -1.584  1.00  0.00    -0.381 OA
ATOM     34  H5  UNL     1      -2.159   1.952  -1.464  1.00  0.00     0.211 HD
ENDBRANCH  29  33
ENDBRANCH  23  24
ENDBRANCH   1  23
BRANCH   6  35
HETATM   35  N3  UNL     1       0.603  -2.620   2.818  1.00  0.00    -0.353 N 
HETATM   36  C7  UNL     1       0.945  -2.722   4.043  1.00  0.00     0.197 C 
HETATM   37  N4  UNL     1       2.289  -3.069   4.348  1.00  0.00    -0.067 NA
HETATM   38  N5  UNL     1       0.046  -2.505   5.112  1.00  0.00    -0.067 NA
ATOM     39  H3  UNL     1       1.305  -2.792   2.098  1.00  0.00     0.162 HD
ENDBRANCH   6  35
TORSDOF 10
