REMARK  5 active torsions:
REMARK  status: ('A' for Active; 'I' for Inactive)
REMARK    1  A    between atoms: C4_7  and  N3_8 
REMARK    2  A    between atoms: N3_8  and  N4_10 
REMARK    3  A    between atoms: C6_15  and  N6_16 
REMARK    4  A    between atoms: N6_16  and  N7_18 
REMARK    5  A    between atoms: C8_22  and  N8_23 
ROOT
HETATM    1  N4  UNL     1       0.361  -0.388  -0.288  1.00  0.00    -0.268 N 
ATOM      2  H4  UNL     1       0.748  -1.308  -0.498  1.00  0.00     0.189 HD
HETATM    3  C5  UNL     1      -0.908  -0.319  -0.081  1.00  0.00     0.170 C 
HETATM    4  N5  UNL     1      -1.592   0.876   0.221  1.00  0.00    -0.327 N 
ATOM      5  H5  UNL     1      -1.077   1.754   0.286  1.00  0.00     0.169 HD
HETATM    6  C6  UNL     1      -2.867   0.862   0.415  1.00  0.00     0.099 C 
HETATM    7  C7  UNL     1      -3.712  -0.346   0.346  1.00  0.00     0.119 C 
HETATM    8  C8  UNL     1      -2.961  -1.614   0.584  1.00  0.00     0.268 C 
HETATM    9  C9  UNL     1      -1.678  -1.554  -0.165  1.00  0.00     0.225 C 
HETATM   10  O1  UNL     1      -1.266  -2.546  -0.855  1.00  0.00    -0.287 OA
ENDROOT
BRANCH   1  11
HETATM   11  N3  UNL     1       1.239   0.665  -0.252  1.00  0.00    -0.131 N 
ATOM     12  H3  UNL     1       0.917   1.606  -0.481  1.00  0.00     0.205 HD
BRANCH  11  13
HETATM   13  C4  UNL     1       2.615   0.442   0.109  1.00  0.00     0.690 C 
HETATM   14  N1  UNL     1       3.593  -0.072  -0.785  1.00  0.00    -0.220 N 
HETATM   15  C1  UNL     1       3.596  -0.066  -2.229  1.00  0.00     0.168 C 
HETATM   16  C2  UNL     1       4.627  -0.626   0.065  1.00  0.00     0.161 C 
HETATM   17  C3  UNL     1       4.562   0.322   1.244  1.00  0.00     0.158 C 
HETATM   18  N2  UNL     1       3.157   0.670   1.268  1.00  0.00    -0.223 N 
ATOM     19  H2  UNL     1       2.663   1.041   2.079  1.00  0.00     0.177 HD
ENDBRANCH  11  13
ENDBRANCH   1  11
BRANCH   6  20
HETATM   20  N6  UNL     1      -3.567   2.088   0.724  1.00  0.00    -0.295 N 
ATOM     21  H6  UNL     1      -4.169   2.160   1.545  1.00  0.00     0.187 HD
BRANCH  20  22
HETATM   22  N7  UNL     1      -3.390   3.173  -0.143  1.00  0.00    -0.344 N 
ATOM     23  H72 UNL     1      -2.785   3.085  -0.959  1.00  0.00     0.176 HD
ATOM     24  H71 UNL     1      -3.884   4.038   0.075  1.00  0.00     0.176 HD
ENDBRANCH  20  22
ENDBRANCH   6  20
BRANCH   8  25
HETATM   25  N8  UNL     1      -3.711  -2.766   0.132  1.00  0.00    -0.067 N 
ATOM     26  H83 UNL     1      -4.639  -2.797   0.554  1.00  0.00     0.275 HD
ATOM     27  H82 UNL     1      -3.986  -2.673  -0.846  1.00  0.00     0.275 HD
ATOM     28  H81 UNL     1      -3.198  -3.632   0.295  1.00  0.00     0.275 HD
ENDBRANCH   8  25
TORSDOF 5
