REMARK  12 active torsions:
REMARK  status: ('A' for Active; 'I' for Inactive)
REMARK    1  A    between atoms: C10_12  and  N2_13 
REMARK    2  A    between atoms: N2_13  and  C11_15 
REMARK    3  A    between atoms: C11_15  and  C12_16 
REMARK    4  A    between atoms: C12_16  and  C13_17 
REMARK    5  A    between atoms: C13_17  and  N3_18 
REMARK       I    between atoms: N3_18  and  C14_20 
REMARK    6  A    between atoms: C14_20  and  C15_22 
REMARK    7  A    between atoms: C19_26  and  C20_27 
REMARK    8  A    between atoms: C26_33  and  N4_34 
REMARK    9  A    between atoms: N4_34  and  C27_35 
REMARK   10  A    between atoms: C27_35  and  C28_36 
REMARK   11  A    between atoms: C27_35  and  C32_43 
REMARK   12  A    between atoms: C28_36  and  N5_37 
ROOT
HETATM    1  C1  UNL     1      -5.742  -3.880  -2.332  1.00  0.00     0.017 C 
HETATM    2  C2  UNL     1      -5.140  -3.946  -0.948  1.00  0.00    -0.025 C 
HETATM    3  C3  UNL     1      -6.050  -4.884  -0.141  1.00  0.00     0.017 C 
HETATM    4  C4  UNL     1      -5.174  -2.623  -0.258  1.00  0.00     0.015 C 
HETATM    5  C5  UNL     1      -4.789  -1.465  -1.196  1.00  0.00     0.047 C 
HETATM    6  C6  UNL     1      -3.298  -1.410  -1.141  1.00  0.00     0.034 A 
HETATM    7  C7  UNL     1      -2.419  -2.428  -1.240  1.00  0.00     0.152 A 
HETATM    8  N1  UNL     1      -1.123  -2.193  -1.173  1.00  0.00    -0.336 N 
ATOM      9  H1  UNL     1      -0.480  -2.981  -1.250  1.00  0.00     0.168 HD
HETATM   10  C8  UNL     1      -0.610  -0.952  -1.006  1.00  0.00     0.050 A 
HETATM   11  C9  UNL     1       0.763  -0.785  -0.944  1.00  0.00     0.060 A 
HETATM   12  C10 UNL     1       1.318   0.459  -0.774  1.00  0.00     0.037 A 
HETATM   13  C19 UNL     1       0.487   1.527  -0.668  1.00  0.00    -0.023 A 
HETATM   14  C24 UNL     1      -0.905   1.363  -0.731  1.00  0.00     0.027 A 
HETATM   15  C25 UNL     1      -1.472   0.113  -0.901  1.00  0.00     0.032 A 
HETATM   16  C26 UNL     1      -2.851  -0.080  -0.965  1.00  0.00     0.124 A 
HETATM   17  O2  UNL     1      -2.752  -3.775  -1.415  1.00  0.00    -0.335 OA
HETATM   18  C33 UNL     1      -3.778  -4.582  -0.948  1.00  0.00     0.186 C 
ENDROOT
BRANCH  12  19
HETATM   19  N2  UNL     1       2.727   0.636  -0.738  1.00  0.00    -0.389 N 
ATOM     20  H2  UNL     1       3.118   1.578  -0.716  1.00  0.00     0.159 HD
BRANCH  19  21
HETATM   21  C11 UNL     1       3.614  -0.511  -0.732  1.00  0.00     0.121 C 
BRANCH  21  22
HETATM   22  C12 UNL     1       3.668  -1.257   0.559  1.00  0.00     0.039 C 
BRANCH  22  23
HETATM   23  C13 UNL     1       4.176  -0.393   1.717  1.00  0.00     0.124 C 
BRANCH  23  24
HETATM   24  N3  UNL     1       5.504   0.122   1.488  1.00  0.00    -0.360 N 
HETATM   25  C14 UNL     1       6.629  -0.713   1.298  1.00  0.00     0.225 C 
HETATM   26  O1  UNL     1       6.526  -1.965   1.321  1.00  0.00    -0.273 OA
ATOM     27  H3  UNL     1       5.637   1.133   1.462  1.00  0.00     0.162 HD
BRANCH  25  28
HETATM   28  C15 UNL     1       7.994  -0.167   1.062  1.00  0.00     0.030 C 
HETATM   29  C16 UNL     1       8.052   0.708  -0.165  1.00  0.00     0.024 C 
HETATM   30  C17 UNL     1       9.010  -1.265   0.878  1.00  0.00     0.024 C 
HETATM   31  C18 UNL     1       8.388   0.640   2.274  1.00  0.00     0.024 C 
ENDBRANCH  25  28
ENDBRANCH  23  24
ENDBRANCH  22  23
ENDBRANCH  21  22
ENDBRANCH  19  21
ENDBRANCH  12  19
BRANCH  13  32
HETATM   32  C20 UNL     1       0.918   2.921  -0.480  1.00  0.00    -0.022 C 
HETATM   33  C21 UNL     1       1.696   3.005   0.817  1.00  0.00     0.019 C 
HETATM   34  C22 UNL     1      -0.254   3.888  -0.285  1.00  0.00     0.019 C 
HETATM   35  C23 UNL     1       1.773   3.503  -1.555  1.00  0.00     0.019 C 
ENDBRANCH  13  32
BRANCH  16  36
HETATM   36  N4  UNL     1      -3.632   0.847  -0.875  1.00  0.00    -0.430 NA
BRANCH  36  37
HETATM   37  C27 UNL     1      -4.205   2.049  -0.745  1.00  0.00     0.289 C 
BRANCH  37  38
HETATM   38  C28 UNL     1      -5.216   2.130   0.446  1.00  0.00     0.177 C 
BRANCH  38  39
HETATM   39  N5  UNL     1      -4.539   1.847   1.686  1.00  0.00    -0.348 N 
HETATM   40  C29 UNL     1      -3.922   2.694   2.534  1.00  0.00     0.108 A 
HETATM   41  C30 UNL     1      -3.403   2.002   3.608  1.00  0.00     0.106 A 
HETATM   42  N6  UNL     1      -3.724   0.712   3.383  1.00  0.00    -0.361 N 
HETATM   43  C31 UNL     1      -4.408   0.630   2.225  1.00  0.00     0.182 A 
ATOM     44  H6  UNL     1      -3.488  -0.073   3.990  1.00  0.00     0.166 HD
ENDBRANCH  38  39
ENDBRANCH  37  38
BRANCH  37  45
HETATM   45  C32 UNL     1      -5.001   2.577  -1.944  1.00  0.00     0.421 C 
HETATM   46  F1  UNL     1      -5.496   3.840  -1.578  1.00  0.00    -0.168 F 
HETATM   47  F2  UNL     1      -4.216   2.775  -3.050  1.00  0.00    -0.168 F 
HETATM   48  F3  UNL     1      -6.080   1.834  -2.273  1.00  0.00    -0.168 F 
ENDBRANCH  37  45
ENDBRANCH  36  37
ENDBRANCH  16  36
TORSDOF 12
