REMARK  10 active torsions:
REMARK  status: ('A' for Active; 'I' for Inactive)
REMARK    1  A    between atoms: C2_2  and  C3_3 
REMARK    2  A    between atoms: C3_3  and  C4_4 
REMARK       I    between atoms: C4_4  and  N1_6 
REMARK    3  A    between atoms: C10_13  and  C11_14 
REMARK    4  A    between atoms: C11_14  and  C12_15 
REMARK    5  A    between atoms: C12_15  and  C13_16 
REMARK       I    between atoms: C13_16  and  N2_18 
REMARK    6  A    between atoms: N2_18  and  C14_20 
REMARK    7  A    between atoms: C23_31  and  O3_32 
REMARK    8  A    between atoms: N3_34  and  C24_35 
REMARK    9  A    between atoms: C24_35  and  C25_36 
REMARK   10  A    between atoms: C31_42  and  O4_43 
ROOT
HETATM    1  C3  UNL     1      -2.800  -0.411   0.977  1.00  0.00     0.121 C 
HETATM    2  S1  UNL     1      -1.925  -0.031   2.570  1.00  0.00    -0.134 SA
HETATM    3  C10 UNL     1      -0.679   1.035   1.803  1.00  0.00     0.087 C 
HETATM    4  C21 UNL     1      -1.380   1.498   0.620  1.00  0.00     0.019 A 
HETATM    5  C22 UNL     1      -2.440   0.771   0.191  1.00  0.00     0.033 A 
HETATM    6  C23 UNL     1      -2.919   1.429  -0.950  1.00  0.00     0.153 A 
HETATM    7  N3  UNL     1      -2.189   2.518  -1.215  1.00  0.00    -0.303 N 
HETATM    8  C31 UNL     1      -1.248   2.575  -0.266  1.00  0.00     0.152 A 
ENDROOT
BRANCH   3   9
HETATM    9  C11 UNL     1       0.557   0.275   1.490  1.00  0.00     0.029 C 
BRANCH   9  10
HETATM   10  C12 UNL     1       1.668   1.018   0.834  1.00  0.00     0.104 C 
BRANCH  10  11
HETATM   11  C13 UNL     1       2.818   0.066   0.662  1.00  0.00     0.217 C 
HETATM   12  O2  UNL     1       2.746  -1.109   1.063  1.00  0.00    -0.274 OA
HETATM   13  N2  UNL     1       4.001   0.515   0.033  1.00  0.00    -0.356 N 
ATOM     14  H2  UNL     1       4.046   1.481  -0.292  1.00  0.00     0.162 HD
BRANCH  13  15
HETATM   15  C14 UNL     1       5.153  -0.340  -0.170  1.00  0.00     0.088 C 
HETATM   16  C15 UNL     1       6.337   0.348   0.460  1.00  0.00     0.025 C 
HETATM   17  C16 UNL     1       7.379  -0.673   0.851  1.00  0.00     0.002 C 
HETATM   18  C17 UNL     1       7.925  -1.344  -0.403  1.00  0.00     0.004 C 
HETATM   19  C18 UNL     1       6.907  -2.307  -0.985  1.00  0.00     0.060 C 
HETATM   20  C19 UNL     1       6.104  -1.671  -2.084  1.00  0.00     0.180 C 
HETATM   21  F1  UNL     1       6.933  -1.395  -3.181  1.00  0.00    -0.226 F 
HETATM   22 CL1  UNL     1       4.903  -2.861  -2.650  1.00  0.00    -0.083 Cl
HETATM   23  C20 UNL     1       5.364  -0.441  -1.666  1.00  0.00     0.085 C 
ENDBRANCH  13  15
ENDBRANCH  10  11
ENDBRANCH   9  10
ENDBRANCH   3   9
BRANCH   1  24
HETATM   24  C2  UNL     1      -4.255  -0.472   1.400  1.00  0.00     0.031 C 
HETATM   25  C1  UNL     1      -5.235  -0.782   0.335  1.00  0.00     0.007 C 
ENDBRANCH   1  24
BRANCH   1  26
HETATM   26  C4  UNL     1      -2.301  -1.634   0.360  1.00  0.00     0.243 C 
HETATM   27  O1  UNL     1      -1.718  -1.483  -0.791  1.00  0.00    -0.271 OA
HETATM   28  N1  UNL     1      -2.357  -2.967   0.828  1.00  0.00    -0.350 N 
HETATM   29  C5  UNL     1      -1.757  -3.993  -0.034  1.00  0.00     0.126 C 
HETATM   30  C9  UNL     1      -2.976  -3.287   2.072  1.00  0.00     0.126 C 
HETATM   31  C6  UNL     1      -1.227  -5.162   0.761  1.00  0.00     0.020 C 
HETATM   32  C7  UNL     1      -2.437  -5.665   1.564  1.00  0.00     0.003 C 
HETATM   33  C8  UNL     1      -2.616  -4.637   2.648  1.00  0.00     0.020 C 
ENDBRANCH   1  26
BRANCH   8  34
HETATM   34  O4  UNL     1      -0.280   3.600  -0.208  1.00  0.00    -0.345 OA
ATOM     35  H4  UNL     1      -0.190   4.330  -0.809  1.00  0.00     0.219 HD
ENDBRANCH   8  34
BRANCH   6  36
HETATM   36  O3  UNL     1      -3.991   1.095  -1.779  1.00  0.00    -0.345 OA
ATOM     37  H3  UNL     1      -4.316   1.541  -2.552  1.00  0.00     0.219 HD
ENDBRANCH   6  36
BRANCH   7  38
HETATM   38  C24 UNL     1      -2.361   3.479  -2.316  1.00  0.00     0.171 C 
BRANCH  38  39
HETATM   39  C25 UNL     1      -3.258   4.596  -1.946  1.00  0.00    -0.040 A 
HETATM   40  C26 UNL     1      -2.737   5.773  -1.406  1.00  0.00     0.009 A 
HETATM   41  C27 UNL     1      -3.550   6.832  -1.049  1.00  0.00     0.001 A 
HETATM   42  C28 UNL     1      -4.918   6.769  -1.212  1.00  0.00     0.000 A 
HETATM   43  C29 UNL     1      -5.433   5.604  -1.747  1.00  0.00     0.001 A 
HETATM   44  C30 UNL     1      -4.626   4.545  -2.104  1.00  0.00     0.009 A 
ENDBRANCH  38  39
ENDBRANCH   7  38
TORSDOF 10
