REMARK  11 active torsions:
REMARK  status: ('A' for Active; 'I' for Inactive)
REMARK    1  A    between atoms: C2_2  and  C3_3 
REMARK    2  A    between atoms: C3_3  and  O1_4 
REMARK    3  A    between atoms: C3_3  and  C4_6 
REMARK    4  A    between atoms: C4_6  and  C5_7 
REMARK    5  A    between atoms: C8_10  and  C9_11 
REMARK    6  A    between atoms: C11_15  and  N2_16 
REMARK    7  A    between atoms: C12_19  and  C13_20 
REMARK    8  A    between atoms: C16_24  and  O2_25 
REMARK    9  A    between atoms: O2_25  and  C17_26 
REMARK   10  A    between atoms: C17_26  and  C18_27 
REMARK   11  A    between atoms: C19_28  and  C20_29 
ROOT
HETATM    1  C13 UNL     1       0.141  -0.280  -1.552  1.00  0.00     0.036 A 
HETATM    2  C14 UNL     1      -0.610   0.703  -2.157  1.00  0.00     0.062 A 
HETATM    3  C15 UNL     1      -1.818   1.104  -1.661  1.00  0.00     0.151 A 
HETATM    4  F1  UNL     1      -2.556   2.081  -2.269  1.00  0.00    -0.203 F 
HETATM    5  C16 UNL     1      -2.366   0.529  -0.494  1.00  0.00     0.116 A 
HETATM    6  C31 UNL     1      -1.578  -0.474   0.105  1.00  0.00     0.083 A 
HETATM    7  C32 UNL     1      -0.378  -0.857  -0.405  1.00  0.00     0.131 A 
HETATM    8  F2  UNL     1       0.377  -1.825   0.176  1.00  0.00    -0.205 F 
ENDROOT
BRANCH   1   9
HETATM    9  C12 UNL     1       1.438  -0.661  -2.076  1.00  0.00     0.090 A 
HETATM   10  C11 UNL     1       1.529  -1.146  -3.358  1.00  0.00     0.127 A 
HETATM   11  N1  UNL     1       2.789  -1.481  -3.786  1.00  0.00    -0.349 N 
HETATM   12  C10 UNL     1       3.872  -1.352  -3.020  1.00  0.00     0.115 A 
ATOM     13  H1  UNL     1       2.902  -1.845  -4.732  1.00  0.00     0.167 HD
HETATM   14  C9  UNL     1       3.767  -0.868  -1.743  1.00  0.00     0.029 A 
HETATM   15  N4  UNL     1       2.552  -0.536  -1.307  1.00  0.00    -0.354 N 
ATOM     16  H4  UNL     1       2.454  -0.174  -0.359  1.00  0.00     0.166 HD
BRANCH  10  17
HETATM   17  N2  UNL     1       0.536  -1.320  -4.157  1.00  0.00    -0.384 N 
ATOM     18  H22 UNL     1       0.604  -1.680  -5.109  1.00  0.00     0.157 HD
ATOM     19  H21 UNL     1      -0.401  -1.071  -3.839  1.00  0.00     0.157 HD
ENDBRANCH  10  17
BRANCH  14  20
HETATM   20  C8  UNL     1       4.976  -0.725  -0.916  1.00  0.00     0.037 C 
HETATM   21  C7  UNL     1       5.005   0.519  -0.105  1.00  0.00     0.011 C 
HETATM   22  C6  UNL     1       5.228   0.328   1.358  1.00  0.00     0.005 C 
HETATM   23  C5  UNL     1       6.346  -0.644   1.687  1.00  0.00    -0.012 C 
HETATM   24  C34 UNL     1       6.388  -1.837   0.833  1.00  0.00     0.005 C 
HETATM   25  C33 UNL     1       5.230  -1.982  -0.116  1.00  0.00     0.011 C 
BRANCH  23  26
HETATM   26  C4  UNL     1       7.592   0.016   2.121  1.00  0.00     0.036 C 
BRANCH  26  27
HETATM   27  C3  UNL     1       8.293   0.969   1.270  1.00  0.00     0.118 C 
BRANCH  27  28
HETATM   28  C2  UNL     1       8.838   0.530  -0.052  1.00  0.00     0.027 C 
HETATM   29  C1  UNL     1       9.965  -0.478   0.061  1.00  0.00     0.007 C 
ENDBRANCH  27  28
BRANCH  27  30
HETATM   30  O1  UNL     1       9.378   1.531   1.992  1.00  0.00    -0.396 OA
ATOM     31  H1  UNL     1       9.032   1.810   2.832  1.00  0.00     0.210 HD
ENDBRANCH  27  30
ENDBRANCH  26  27
ENDBRANCH  23  26
ENDBRANCH  14  20
ENDBRANCH   1   9
BRANCH   5  32
HETATM   32  O2  UNL     1      -3.519   0.914  -0.019  1.00  0.00    -0.319 OA
BRANCH  32  33
HETATM   33  C17 UNL     1      -4.651   1.291   0.449  1.00  0.00     0.156 C 
BRANCH  33  34
HETATM   34  C18 UNL     1      -5.908   0.586   0.621  1.00  0.00     0.017 A 
HETATM   35  C19 UNL     1      -6.914   1.259   1.334  1.00  0.00     0.029 A 
HETATM   36  N3  UNL     1      -8.129   0.625   1.433  1.00  0.00    -0.367 N 
HETATM   37  C24 UNL     1      -8.397  -0.560   0.907  1.00  0.00     0.103 A 
ATOM     38  H3  UNL     1      -8.873   1.098   1.945  1.00  0.00     0.165 HD
HETATM   39  C25 UNL     1      -7.418  -1.243   0.200  1.00  0.00     0.032 A 
HETATM   40  C26 UNL     1      -6.183  -0.672   0.056  1.00  0.00    -0.029 A 
HETATM   41  C30 UNL     1      -7.703  -2.561  -0.349  1.00  0.00     0.161 C 
HETATM   42  C27 UNL     1      -5.168  -1.349  -0.765  1.00  0.00     0.041 C 
HETATM   43  C28 UNL     1      -5.657  -2.455  -1.669  1.00  0.00     0.012 C 
HETATM   44  C29 UNL     1      -6.633  -3.385  -0.976  1.00  0.00     0.084 C 
HETATM   45  O3  UNL     1      -8.860  -3.022  -0.302  1.00  0.00    -0.292 OA
BRANCH  35  46
HETATM   46  C20 UNL     1      -6.706   2.532   2.023  1.00  0.00    -0.008 C 
HETATM   47  C21 UNL     1      -8.135   2.862   2.617  1.00  0.00     0.021 C 
HETATM   48  C22 UNL     1      -6.399   3.730   1.205  1.00  0.00     0.021 C 
HETATM   49  C23 UNL     1      -5.889   2.425   3.314  1.00  0.00     0.021 C 
ENDBRANCH  35  46
ENDBRANCH  33  34
ENDBRANCH  32  33
ENDBRANCH   5  32
TORSDOF 11
