REMARK  9 active torsions:
REMARK  status: ('A' for Active; 'I' for Inactive)
REMARK    1  A    between atoms: N1_1  and  C1_4 
REMARK    2  A    between atoms: C2_7  and  N3_8 
REMARK    3  A    between atoms: C3_13  and  N5_14 
REMARK    4  A    between atoms: N5_14  and  C4_16 
REMARK    5  A    between atoms: C4_16  and  N6_17 
REMARK    6  A    between atoms: N6_17  and  N7_19 
REMARK    7  A    between atoms: N9_26  and  N10_27 
REMARK    8  A    between atoms: N10_27  and  O4_28 
REMARK    9  A    between atoms: O4_28  and  N11_29 
ROOT
HETATM    1  N5  UNL     1       0.248   0.281   0.415  1.00  0.00    -0.174 N 
ATOM      2  H5  UNL     1       0.663   1.109   0.842  1.00  0.00     0.182 HD
ENDROOT
BRANCH   1   3
HETATM    3  C3  UNL     1      -1.017   0.337   0.237  1.00  0.00     0.710 A 
HETATM    4  N4  UNL     1      -1.719   1.451   0.610  1.00  0.00    -0.022 N 
HETATM    5  C2  UNL     1      -3.045   1.510   0.424  1.00  0.00     0.705 A 
ATOM      6  H4  UNL     1      -1.230   2.241   1.032  1.00  0.00     0.203 HD
HETATM    7  N2  UNL     1      -3.673   0.449  -0.139  1.00  0.00    -0.022 N 
HETATM    8  C1  UNL     1      -2.971  -0.637  -0.500  1.00  0.00     0.705 A 
ATOM      9  H2  UNL     1      -4.682   0.476  -0.289  1.00  0.00     0.203 HD
HETATM   10  N12 UNL     1      -1.634  -0.718  -0.321  1.00  0.00    -0.022 N 
ATOM     11  H12 UNL     1      -1.113  -1.549  -0.599  1.00  0.00     0.203 HD
BRANCH   5  12
HETATM   12  N3  UNL     1      -3.711   2.557   0.773  1.00  0.00    -0.234 N 
ATOM     13  H32 UNL     1      -4.720   2.602   0.631  1.00  0.00     0.174 HD
ATOM     14  H31 UNL     1      -3.238   3.355   1.197  1.00  0.00     0.174 HD
ENDBRANCH   5  12
BRANCH   8  15
HETATM   15  N1  UNL     1      -3.592  -1.633  -1.033  1.00  0.00    -0.234 N 
ATOM     16  H12 UNL     1      -4.601  -1.572  -1.168  1.00  0.00     0.174 HD
ATOM     17  H11 UNL     1      -3.059  -2.458  -1.307  1.00  0.00     0.174 HD
ENDBRANCH   8  15
ENDBRANCH   1   3
BRANCH   1  18
HETATM   18  C4  UNL     1       1.156  -0.754   0.110  1.00  0.00     0.276 C 
HETATM   19  C5  UNL     1       1.338  -1.028  -1.332  1.00  0.00     0.165 C 
HETATM   20  N8  UNL     1       2.564  -1.408  -1.471  1.00  0.00    -0.255 N 
HETATM   21  O3  UNL     1       3.203  -1.405  -0.234  1.00  0.00    -0.160 OA
ATOM     22  H8  UNL     1       2.999  -1.671  -2.355  1.00  0.00     0.195 HD
HETATM   23  N9  UNL     1       2.546  -0.382   0.453  1.00  0.00     0.003 NA
BRANCH  18  24
HETATM   24  N6  UNL     1       0.933  -1.993   0.813  1.00  0.00    -0.226 N 
ATOM     25  H6  UNL     1       0.740  -2.829   0.262  1.00  0.00     0.191 HD
BRANCH  24  26
HETATM   26  N7  UNL     1       0.965  -2.115   2.194  1.00  0.00    -0.040 N 
HETATM   27  O1  UNL     1       1.909  -1.628   2.836  1.00  0.00    -0.517 OA
HETATM   28  O2  UNL     1      -0.061  -2.778   2.811  1.00  0.00    -0.517 OA
ENDBRANCH  24  26
ENDBRANCH  18  24
BRANCH  23  29
HETATM   29  N10 UNL     1       2.858   0.794  -0.243  1.00  0.00     0.053 NA
BRANCH  29  30
HETATM   30  O4  UNL     1       2.622   1.894   0.522  1.00  0.00    -0.152 OA
BRANCH  30  31
HETATM   31  N11 UNL     1       3.339   2.957   0.094  1.00  0.00    -0.289 N 
ATOM     32 2H11 UNL     1       3.973   2.923  -0.704  1.00  0.00     0.186 HD
ATOM     33 1H11 UNL     1       3.162   3.782   0.668  1.00  0.00     0.186 HD
ENDBRANCH  30  31
ENDBRANCH  29  30
ENDBRANCH  23  29
ENDBRANCH   1  18
TORSDOF 9
