REMARK  7 active torsions:
REMARK  status: ('A' for Active; 'I' for Inactive)
REMARK    1  A    between atoms: C4_6  and  O1_7 
REMARK    2  A    between atoms: C7_11  and  C8_12 
REMARK    3  A    between atoms: C8_12  and  O3_14 
REMARK    4  A    between atoms: O3_14  and  C9_15 
REMARK    5  A    between atoms: C9_15  and  C10_16 
REMARK    6  A    between atoms: C10_16  and  C11_17 
REMARK    7  A    between atoms: C11_17  and  C12_18 
ROOT
HETATM    1  C1  UNL     1      -5.008   3.791   0.294  1.00  0.00     0.038 C 
HETATM    2  C2  UNL     1      -4.200   2.555   0.216  1.00  0.00    -0.004 C 
HETATM    3  C3  UNL     1      -3.282   2.436  -0.717  1.00  0.00     0.037 C 
HETATM    4  N1  UNL     1      -2.829   3.273  -1.767  1.00  0.00    -0.363 N 
ATOM      5  H1  UNL     1      -2.817   4.278  -1.944  1.00  0.00     0.162 HD
HETATM    6  C4  UNL     1      -2.389   2.088  -2.485  1.00  0.00     0.254 C 
HETATM    7  C5  UNL     1      -2.292   1.430  -1.148  1.00  0.00     0.150 C 
HETATM    8  C6  UNL     1      -0.965   1.550  -0.518  1.00  0.00     0.027 C 
HETATM    9  C7  UNL     1      -0.248   0.507  -0.058  1.00  0.00     0.042 C 
HETATM   10  C14 UNL     1      -0.872  -0.817  -0.215  1.00  0.00     0.079 C 
HETATM   11  C15 UNL     1       0.035  -1.991  -0.236  1.00  0.00     0.033 C 
HETATM   12  C16 UNL     1      -0.064  -2.846   1.034  1.00  0.00     0.002 C 
HETATM   13  C17 UNL     1      -1.426  -3.500   1.116  1.00  0.00     0.000 C 
HETATM   14  C18 UNL     1      -2.449  -2.428   0.772  1.00  0.00     0.002 C 
HETATM   15  C19 UNL     1      -1.878  -1.057   0.905  1.00  0.00     0.033 C 
HETATM   16  N2  UNL     1      -1.681  -0.749  -1.453  1.00  0.00    -0.131 NA
HETATM   17  N3  UNL     1      -2.771   0.062  -1.164  1.00  0.00    -0.122 NA
ENDROOT
BRANCH   6  18
HETATM   18  O1  UNL     1      -3.372   1.523  -3.301  1.00  0.00    -0.374 OA
ATOM     19  H1  UNL     1      -3.084   0.749  -3.770  1.00  0.00     0.212 HD
ENDBRANCH   6  18
BRANCH   9  20
HETATM   20  C8  UNL     1       1.045   0.789   0.540  1.00  0.00     0.291 C 
HETATM   21  O2  UNL     1       1.449   1.988   0.600  1.00  0.00    -0.260 OA
BRANCH  20  22
HETATM   22  O3  UNL     1       1.893  -0.153   1.061  1.00  0.00    -0.318 OA
BRANCH  22  23
HETATM   23  C9  UNL     1       3.142   0.103   1.637  1.00  0.00     0.179 C 
BRANCH  23  24
HETATM   24  C10 UNL     1       4.160   0.723   0.771  1.00  0.00     0.027 C 
BRANCH  24  25
HETATM   25  C11 UNL     1       4.535  -0.053  -0.453  1.00  0.00     0.002 C 
BRANCH  25  26
HETATM   26  C12 UNL     1       5.101  -1.416  -0.144  1.00  0.00    -0.004 C 
HETATM   27  C13 UNL     1       6.354  -1.329   0.700  1.00  0.00     0.005 C 
ENDBRANCH  25  26
ENDBRANCH  24  25
ENDBRANCH  23  24
ENDBRANCH  22  23
ENDBRANCH  20  22
ENDBRANCH   9  20
TORSDOF 7
