REMARK  7 active torsions:
REMARK  status: ('A' for Active; 'I' for Inactive)
REMARK    1  A    between atoms: N1_1  and  C1_4 
REMARK    2  A    between atoms: C3_10  and  C4_11 
REMARK    3  A    between atoms: C4_11  and  C5_13 
REMARK    4  A    between atoms: C5_13  and  N4_14 
REMARK    5  A    between atoms: C5_13  and  O2_18 
REMARK    6  A    between atoms: C7_23  and  N6_24 
REMARK    7  A    between atoms: N7_27  and  N8_28 
ROOT
HETATM    1  C1  UNL     1       2.483   1.397  -1.084  1.00  0.00     0.172 C 
HETATM    2  N2  UNL     1       1.156   1.201  -1.338  1.00  0.00    -0.322 N 
ATOM      3  H2  UNL     1       0.772   1.726  -2.123  1.00  0.00     0.169 HD
HETATM    4  C2  UNL     1       0.292   0.406  -0.687  1.00  0.00     0.139 A 
HETATM    5  N3  UNL     1      -1.052   0.436  -0.785  1.00  0.00    -0.323 N 
ATOM      6  H3  UNL     1      -1.583   1.075  -1.376  1.00  0.00     0.169 HD
HETATM    7  C3  UNL     1      -1.586  -0.503   0.014  1.00  0.00     0.159 A 
HETATM    8  N5  UNL     1      -0.549  -1.116   0.609  1.00  0.00    -0.333 N 
ATOM      9  H5  UNL     1      -0.638  -1.881   1.278  1.00  0.00     0.168 HD
HETATM   10  C6  UNL     1       0.620  -0.590   0.208  1.00  0.00     0.124 A 
HETATM   11  C7  UNL     1       1.881  -0.995   0.628  1.00  0.00     0.154 C 
HETATM   12  N7  UNL     1       3.047  -0.306   0.641  1.00  0.00    -0.205 N 
HETATM   13  C8  UNL     1       3.279   0.782  -0.141  1.00  0.00     0.311 C 
HETATM   14  O3  UNL     1       4.414   1.293   0.047  1.00  0.00    -0.262 OA
ENDROOT
BRANCH   7  15
HETATM   15  C4  UNL     1      -3.021  -0.809   0.206  1.00  0.00     0.248 C 
HETATM   16  O1  UNL     1      -3.364  -1.725   0.994  1.00  0.00    -0.284 OA
BRANCH  15  17
HETATM   17  C5  UNL     1      -4.058  -0.069  -0.502  1.00  0.00     0.395 C 
BRANCH  17  18
HETATM   18  N4  UNL     1      -3.998   1.324  -0.044  1.00  0.00    -0.045 N 
ATOM     19  H43 UNL     1      -4.068   1.412   0.970  1.00  0.00     0.277 HD
ATOM     20  H42 UNL     1      -3.072   1.738  -0.150  1.00  0.00     0.277 HD
ATOM     21  H41 UNL     1      -4.724   1.842  -0.539  1.00  0.00     0.277 HD
ENDBRANCH  17  18
BRANCH  17  22
HETATM   22  O2  UNL     1      -5.311  -0.552  -0.145  1.00  0.00    -0.364 OA
ATOM     23  H2  UNL     1      -5.987  -0.070  -0.606  1.00  0.00     0.212 HD
ENDBRANCH  17  22
ENDBRANCH  15  17
ENDBRANCH   7  15
BRANCH  11  24
HETATM   24  N6  UNL     1       1.978  -2.194   1.069  1.00  0.00    -0.382 N 
ATOM     25  H62 UNL     1       1.100  -2.713   1.059  1.00  0.00     0.157 HD
ATOM     26  H61 UNL     1       2.904  -2.491   1.377  1.00  0.00     0.157 HD
ENDBRANCH  11  24
BRANCH   1  27
HETATM   27  N1  UNL     1       3.061   2.275  -1.830  1.00  0.00    -0.381 N 
ATOM     28  H12 UNL     1       2.472   2.730  -2.528  1.00  0.00     0.157 HD
ATOM     29  H11 UNL     1       4.052   2.421  -1.640  1.00  0.00     0.157 HD
ENDBRANCH   1  27
BRANCH  12  30
HETATM   30  N8  UNL     1       4.057  -0.733   1.496  1.00  0.00    -0.334 N 
ATOM     31  H82 UNL     1       3.883  -1.549   2.083  1.00  0.00     0.177 HD
ATOM     32  H81 UNL     1       4.935  -0.214   1.506  1.00  0.00     0.177 HD
ENDBRANCH  12  30
TORSDOF 7
