REMARK  6 active torsions:
REMARK  status: ('A' for Active; 'I' for Inactive)
REMARK    1  A    between atoms: N1_2  and  C3_4 
REMARK    2  A    between atoms: C3_4  and  C4_5 
REMARK    3  A    between atoms: C8_10  and  C9_11 
REMARK    4  A    between atoms: C9_11  and  O2_12 
REMARK       I    between atoms: N2_14  and  C10_16 
REMARK    5  A    between atoms: C10_16  and  C11_18 
REMARK    6  A    between atoms: C22_31  and  C23_32 
ROOT
HETATM    1  C4  UNL     1      -2.102   2.251  -0.593  1.00  0.00     0.042 C 
HETATM    2  C5  UNL     1      -3.291   1.358  -0.887  1.00  0.00     0.182 C 
HETATM    3  O1  UNL     1      -3.252   0.292   0.104  1.00  0.00    -0.349 OA
HETATM    4  C6  UNL     1      -2.201  -0.612  -0.110  1.00  0.00     0.089 A 
HETATM    5  C7  UNL     1      -0.944   0.043  -0.243  1.00  0.00    -0.009 A 
HETATM    6  C8  UNL     1       0.149  -0.690  -0.468  1.00  0.00     0.027 A 
HETATM    7  C20 UNL     1      -0.010  -2.098  -0.551  1.00  0.00     0.059 A 
HETATM    8  C21 UNL     1      -1.212  -2.744  -0.420  1.00  0.00     0.130 A 
HETATM    9  F1  UNL     1      -1.235  -4.123  -0.441  1.00  0.00    -0.205 F 
HETATM   10  C22 UNL     1      -2.349  -1.978  -0.197  1.00  0.00     0.039 A 
HETATM   11  C29 UNL     1      -0.873   1.507  -0.125  1.00  0.00     0.051 C 
ENDROOT
BRANCH   6  12
HETATM   12  C9  UNL     1       1.485  -0.248  -0.755  1.00  0.00     0.153 C 
HETATM   13  N2  UNL     1       2.563   0.368  -0.226  1.00  0.00    -0.303 N 
HETATM   14  C10 UNL     1       2.919   0.875   1.028  1.00  0.00     0.258 C 
ATOM     15  H2  UNL     1       3.305   0.496  -0.914  1.00  0.00     0.171 HD
HETATM   16  O3  UNL     1       2.138   0.914   1.988  1.00  0.00    -0.267 OA
BRANCH  12  17
HETATM   17  O2  UNL     1       1.741  -0.599  -2.102  1.00  0.00    -0.345 OA
ATOM     18  H2  UNL     1       2.625  -0.307  -2.292  1.00  0.00     0.219 HD
ENDBRANCH  12  17
BRANCH  14  19
HETATM   19  C11 UNL     1       4.353   1.387   1.166  1.00  0.00     0.046 A 
HETATM   20  C12 UNL     1       4.570   2.436   1.989  1.00  0.00     0.067 A 
HETATM   21  S1  UNL     1       6.221   2.783   1.745  1.00  0.00    -0.105 SA
HETATM   22  C13 UNL     1       6.608   1.595   0.606  1.00  0.00    -0.009 A 
HETATM   23  C14 UNL     1       5.413   0.933   0.440  1.00  0.00    -0.028 A 
HETATM   24  C19 UNL     1       7.674   0.998  -0.305  1.00  0.00     0.055 C 
HETATM   25  C15 UNL     1       5.702  -0.256  -0.462  1.00  0.00     0.049 C 
HETATM   26  C16 UNL     1       7.217  -0.453  -0.366  1.00  0.00    -0.039 C 
HETATM   27  C17 UNL     1       7.668  -1.164  -1.593  1.00  0.00     0.015 C 
HETATM   28  C18 UNL     1       7.634  -1.148   0.889  1.00  0.00     0.015 C 
ENDBRANCH  14  19
ENDBRANCH   6  12
BRANCH  10  29
HETATM   29  C23 UNL     1      -3.655  -2.616   0.028  1.00  0.00    -0.064 C 
HETATM   30  C24 UNL     1      -4.101  -3.489  -1.120  1.00  0.00     0.035 C 
HETATM   31  C25 UNL     1      -5.359  -4.203  -0.756  1.00  0.00     0.004 C 
HETATM   32  C26 UNL     1      -5.553  -4.353   0.729  1.00  0.00     0.001 C 
HETATM   33  C27 UNL     1      -5.613  -3.013   1.414  1.00  0.00     0.004 C 
HETATM   34  C28 UNL     1      -4.708  -1.952   0.772  1.00  0.00     0.035 C 
ENDBRANCH  10  29
BRANCH   1  35
HETATM   35  C3  UNL     1      -2.634   3.160   0.524  1.00  0.00     0.278 C 
BRANCH  35  36
HETATM   36  N1  UNL     1      -3.822   3.831   0.021  1.00  0.00     0.080 N 
HETATM   37  C1  UNL     1      -4.570   4.427   1.123  1.00  0.00     0.309 C 
HETATM   38  C2  UNL     1      -3.449   4.903  -0.856  1.00  0.00     0.309 C 
ENDBRANCH  35  36
ENDBRANCH   1  35
TORSDOF 6
