REMARK  5 active torsions:
REMARK  status: ('A' for Active; 'I' for Inactive)
REMARK    1  A    between atoms: N1_1  and  N2_4 
REMARK    2  A    between atoms: C1_6  and  C2_8 
REMARK    3  A    between atoms: C3_9  and  N4_10 
REMARK    4  A    between atoms: C4_13  and  N5_14 
REMARK    5  A    between atoms: C7_20  and  O5_21 
ROOT
HETATM    1  C2  UNL     1       0.528   0.273  -0.109  1.00  0.00     0.115 A 
HETATM    2  C3  UNL     1      -0.011   1.458  -0.487  1.00  0.00     0.170 A 
HETATM    3  C4  UNL     1      -1.369   1.405  -0.404  1.00  0.00     0.183 A 
HETATM    4  C5  UNL     1      -1.669   0.110   0.051  1.00  0.00     0.159 A 
HETATM    5  N6  UNL     1      -0.524  -0.550   0.222  1.00  0.00    -0.317 N 
HETATM    6  C6  UNL     1      -0.465  -1.905   0.698  1.00  0.00     0.216 A 
HETATM    7  C7  UNL     1      -1.763  -2.540   0.916  1.00  0.00     0.149 A 
HETATM    8  N7  UNL     1      -2.961  -1.824   0.734  1.00  0.00    -0.281 N 
ATOM      9  H7  UNL     1      -3.855  -2.279   0.920  1.00  0.00     0.189 HD
HETATM   10  N8  UNL     1      -2.937  -0.506   0.304  1.00  0.00    -0.281 N 
ATOM     11  H8  UNL     1      -3.804   0.014   0.171  1.00  0.00     0.188 HD
ENDROOT
BRANCH   1  12
HETATM   12  C1  UNL     1       1.947  -0.060  -0.067  1.00  0.00     0.160 C 
HETATM   13  N2  UNL     1       2.808   0.849  -0.420  1.00  0.00    -0.292 N 
ATOM     14  H2  UNL     1       2.460   1.762  -0.713  1.00  0.00     0.187 HD
HETATM   15  N3  UNL     1       2.328  -1.350   0.353  1.00  0.00    -0.079 NA
BRANCH  13  16
HETATM   16  N1  UNL     1       4.188   0.630  -0.415  1.00  0.00    -0.344 N 
ATOM     17  H12 UNL     1       4.518  -0.289  -0.119  1.00  0.00     0.176 HD
ATOM     18  H11 UNL     1       4.863   1.343  -0.692  1.00  0.00     0.176 HD
ENDBRANCH  13  16
ENDBRANCH   1  12
BRANCH   2  19
HETATM   19  N4  UNL     1       0.665   2.653  -0.926  1.00  0.00    -0.110 N 
HETATM   20  O1  UNL     1       1.276   3.414  -0.161  1.00  0.00    -0.532 OA
HETATM   21  O2  UNL     1       0.602   2.929  -2.267  1.00  0.00    -0.532 OA
ENDBRANCH   2  19
BRANCH   3  22
HETATM   22  N5  UNL     1      -2.330   2.425  -0.706  1.00  0.00    -0.109 N 
HETATM   23  O3  UNL     1      -2.562   2.726  -1.875  1.00  0.00    -0.532 OA
HETATM   24  O4  UNL     1      -2.971   3.044   0.351  1.00  0.00    -0.532 OA
ENDBRANCH   3  22
BRANCH   7  25
HETATM   25  O5  UNL     1      -1.815  -3.787   1.285  1.00  0.00    -0.347 OA
ATOM     26  H5  UNL     1      -2.659  -4.200   1.427  1.00  0.00     0.219 HD
ENDBRANCH   7  25
TORSDOF 5
