REMARK  9 active torsions:
REMARK  status: ('A' for Active; 'I' for Inactive)
REMARK    1  A    between atoms: C2_2  and  C3_3 
REMARK    2  A    between atoms: C4_6  and  C5_7 
REMARK    3  A    between atoms: C5_7  and  C6_8 
REMARK    4  A    between atoms: C6_8  and  N2_9 
REMARK    5  A    between atoms: N2_9  and  C7_11 
REMARK    6  A    between atoms: C8_14  and  N4_15 
REMARK    7  A    between atoms: N4_15  and  C9_17 
REMARK    8  A    between atoms: C13_23  and  C14_24 
REMARK    9  A    between atoms: C14_24  and  C15_25 
ROOT
HETATM    1  C7  UNL     1      -0.823   0.171  -0.539  1.00  0.00     0.124 A 
HETATM    2  N3  UNL     1      -1.012  -1.169  -0.365  1.00  0.00    -0.176 N 
ATOM      3  H3  UNL     1      -0.239  -1.750  -0.040  1.00  0.00     0.186 HD
HETATM    4  C8  UNL     1      -2.201  -1.730  -0.616  1.00  0.00     0.679 A 
HETATM    5  N5  UNL     1      -3.212  -0.964  -1.042  1.00  0.00    -0.201 N 
ATOM      6  H5  UNL     1      -4.116  -1.398  -1.231  1.00  0.00     0.183 HD
HETATM    7  C12 UNL     1      -3.072   0.367  -1.230  1.00  0.00     0.117 A 
HETATM    8  C13 UNL     1      -1.862   0.944  -0.975  1.00  0.00     0.003 A 
ENDROOT
BRANCH   1   9
HETATM    9  N2  UNL     1       0.330   0.664  -0.290  1.00  0.00    -0.375 N 
ATOM     10  H2  UNL     1       0.458   1.667  -0.424  1.00  0.00     0.161 HD
BRANCH   9  11
HETATM   11  C6  UNL     1       1.465  -0.107   0.170  1.00  0.00     0.129 C 
BRANCH  11  12
HETATM   12  C5  UNL     1       2.678   0.789   0.047  1.00  0.00     0.098 C 
BRANCH  12  13
HETATM   13  C4  UNL     1       3.899   0.056   0.508  1.00  0.00     0.105 A 
HETATM   14  N1  UNL     1       5.150   0.548   0.533  1.00  0.00    -0.327 N 
HETATM   15  C3  UNL     1       5.990  -0.385   1.006  1.00  0.00     0.147 A 
ATOM     16  H1  UNL     1       5.419   1.487   0.238  1.00  0.00     0.169 HD
HETATM   17  O1  UNL     1       5.259  -1.438   1.267  1.00  0.00    -0.223 OA
HETATM   18  N6  UNL     1       4.000  -1.199   0.977  1.00  0.00    -0.247 N 
ATOM     19  H6  UNL     1       3.228  -1.856   1.089  1.00  0.00     0.196 HD
BRANCH  15  20
HETATM   20  C2  UNL     1       7.466  -0.317   1.221  1.00  0.00     0.082 C 
HETATM   21  C1  UNL     1       8.167  -0.781  -0.054  1.00  0.00     0.013 C 
ENDBRANCH  15  20
ENDBRANCH  12  13
ENDBRANCH  11  12
ENDBRANCH   9  11
ENDBRANCH   1   9
BRANCH   8  22
HETATM   22  C14 UNL     1      -1.701   2.410  -1.176  1.00  0.00     0.048 C 
BRANCH  22  23
HETATM   23  C15 UNL     1      -1.701   3.139   0.148  1.00  0.00    -0.010 C 
HETATM   24  C16 UNL     1      -1.539   4.639  -0.045  1.00  0.00     0.005 C 
HETATM   25  C17 UNL     1      -2.497   4.793   1.145  1.00  0.00     0.001 C 
HETATM   26  C18 UNL     1      -3.093   3.451   0.693  1.00  0.00     0.005 C 
ENDBRANCH  22  23
ENDBRANCH   8  22
BRANCH   4  27
HETATM   27  N4  UNL     1      -2.390  -2.986  -0.456  1.00  0.00    -0.222 N 
ATOM     28  H4  UNL     1      -1.605  -3.550  -0.130  1.00  0.00     0.178 HD
BRANCH  27  29
HETATM   29  C9  UNL     1      -3.645  -3.653  -0.709  1.00  0.00     0.091 C 
HETATM   30  C10 UNL     1      -3.409  -5.164  -0.782  1.00  0.00     0.032 C 
HETATM   31  C11 UNL     1      -4.617  -3.404   0.425  1.00  0.00     0.032 C 
ENDBRANCH  27  29
ENDBRANCH   4  27
TORSDOF 9
