REMARK  9 active torsions:
REMARK  status: ('A' for Active; 'I' for Inactive)
REMARK    1  A    between atoms: C2_2  and  C3_3 
REMARK    2  A    between atoms: C4_4  and  C5_5 
REMARK    3  A    between atoms: C8_9  and  C9_10 
REMARK       I    between atoms: C9_10  and  N1_12 
REMARK    4  A    between atoms: N1_12  and  N2_14 
REMARK    5  A    between atoms: N2_14  and  C10_15 
REMARK    6  A    between atoms: C10_15  and  C11_16 
REMARK    7  A    between atoms: C13_18  and  O2_19 
REMARK    8  A    between atoms: C15_21  and  O3_22 
REMARK    9  A    between atoms: C16_24  and  O4_25 
ROOT
HETATM    1  C9  UNL     1       0.980   1.558  -0.660  1.00  0.00     0.281 C 
HETATM    2  O1  UNL     1       0.971   2.665  -1.246  1.00  0.00    -0.265 OA
HETATM    3  N1  UNL     1      -0.261   0.942  -0.259  1.00  0.00    -0.199 N 
ATOM      4  H1  UNL     1      -0.222   0.041   0.217  1.00  0.00     0.205 HD
ENDROOT
BRANCH   3   5
HETATM    5  N2  UNL     1      -1.421   1.474  -0.472  1.00  0.00    -0.335 NA
BRANCH   5   6
HETATM    6  C10 UNL     1      -2.508   1.905  -0.646  1.00  0.00     0.220 C 
BRANCH   6   7
HETATM    7  C11 UNL     1      -3.721   1.099  -0.369  1.00  0.00     0.000 A 
HETATM    8  C12 UNL     1      -4.984   1.626  -0.582  1.00  0.00     0.053 A 
HETATM    9  C13 UNL     1      -6.101   0.871  -0.322  1.00  0.00     0.105 A 
HETATM   10  C15 UNL     1      -5.957  -0.419   0.154  1.00  0.00     0.133 A 
HETATM   11  C16 UNL     1      -4.702  -0.908   0.352  1.00  0.00     0.105 A 
HETATM   12  C18 UNL     1      -3.555  -0.178   0.101  1.00  0.00     0.053 A 
BRANCH   9  13
HETATM   13  O2  UNL     1      -7.379   1.365  -0.522  1.00  0.00    -0.353 OA
HETATM   14  C14 UNL     1      -7.523   2.681  -1.007  1.00  0.00     0.210 C 
ENDBRANCH   9  13
BRANCH  10  15
HETATM   15  O3  UNL     1      -7.081  -1.210   0.427  1.00  0.00    -0.356 OA
ATOM     16  H3  UNL     1      -6.982  -2.096   0.754  1.00  0.00     0.218 HD
ENDBRANCH  10  15
BRANCH  11  17
HETATM   17  O4  UNL     1      -4.552  -2.208   0.831  1.00  0.00    -0.353 OA
HETATM   18  C17 UNL     1      -3.322  -2.822   1.075  1.00  0.00     0.210 C 
ENDBRANCH  11  17
ENDBRANCH   6   7
ENDBRANCH   5   6
ENDBRANCH   3   5
BRANCH   1  19
HETATM   19  C8  UNL     1       2.244   0.905  -0.390  1.00  0.00     0.053 A 
HETATM   20  C7  UNL     1       3.326   1.674  -0.045  1.00  0.00     0.028 A 
HETATM   21  C6  UNL     1       4.533   1.081   0.216  1.00  0.00     0.042 A 
HETATM   22 BR1  UNL     1       3.179   3.573   0.081  1.00  0.00    -0.050 Br
HETATM   23  C5  UNL     1       4.734  -0.284   0.150  1.00  0.00     0.036 A 
HETATM   24  C20 UNL     1       3.616  -1.030  -0.202  1.00  0.00     0.030 A 
HETATM   25  C19 UNL     1       2.401  -0.455  -0.466  1.00  0.00     0.039 A 
HETATM   26 BR2  UNL     1       3.859  -2.933  -0.303  1.00  0.00    -0.050 Br
BRANCH  23  27
HETATM   27  C4  UNL     1       6.009  -0.887   0.427  1.00  0.00    -0.066 C 
HETATM   28  C3  UNL     1       7.088  -1.375   0.664  1.00  0.00    -0.101 C 
BRANCH  28  29
HETATM   29  C2  UNL     1       8.404  -1.946   0.953  1.00  0.00     0.090 C 
HETATM   30  C1  UNL     1       9.261  -1.788  -0.260  1.00  0.00     0.018 C 
ENDBRANCH  28  29
ENDBRANCH  23  27
ENDBRANCH   1  19
TORSDOF 9
