REMARK  9 active torsions:
REMARK  status: ('A' for Active; 'I' for Inactive)
REMARK       I    between atoms: C2_2  and  N1_4 
REMARK    1  A    between atoms: N1_4  and  C3_6 
REMARK    2  A    between atoms: C4_9  and  O2_10 
REMARK    3  A    between atoms: O2_10  and  C5_11 
REMARK    4  A    between atoms: C5_11  and  C6_12 
REMARK    5  A    between atoms: C12_20  and  C13_21 
REMARK    6  A    between atoms: C14_22  and  C15_23 
REMARK    7  A    between atoms: C15_23  and  O3_24 
REMARK    8  A    between atoms: C16_26  and  C17_27 
REMARK    9  A    between atoms: C20_30  and  C21_31 
ROOT
HETATM    1  C3  UNL     1       0.535   0.109   1.087  1.00  0.00     0.122 C 
HETATM    2  N2  UNL     1       1.871   0.382   1.076  1.00  0.00    -0.321 N 
ATOM      3  H2  UNL     1       2.124   1.301   0.714  1.00  0.00     0.169 HD
HETATM    4  C4  UNL     1       2.904  -0.382   1.472  1.00  0.00     0.166 C 
HETATM    5  C9  UNL     1       2.842  -1.417   2.385  1.00  0.00     0.086 C 
HETATM    6 CL1  UNL     1       4.264  -1.714   3.310  1.00  0.00    -0.080 Cl
HETATM    7  C10 UNL     1       1.723  -2.232   2.611  1.00  0.00     0.048 C 
HETATM    8  C11 UNL     1       0.494  -2.154   1.946  1.00  0.00     0.023 A 
HETATM    9  S1  UNL     1      -0.637  -3.425   1.841  1.00  0.00    -0.079 SA
HETATM   10  C12 UNL     1      -1.838  -2.644   0.903  1.00  0.00     0.071 A 
HETATM   11  C16 UNL     1      -1.303  -1.394   0.702  1.00  0.00     0.015 A 
HETATM   12  C24 UNL     1      -0.107  -1.139   1.236  1.00  0.00     0.038 A 
ENDROOT
BRANCH  11  13
HETATM   13  C17 UNL     1      -2.122  -0.461  -0.120  1.00  0.00    -0.021 A 
HETATM   14  C18 UNL     1      -1.852  -0.273  -1.456  1.00  0.00     0.013 A 
HETATM   15  C19 UNL     1      -2.647   0.576  -2.198  1.00  0.00     0.019 A 
HETATM   16  C20 UNL     1      -3.719   1.259  -1.654  1.00  0.00     0.051 A 
HETATM   17  C22 UNL     1      -3.992   1.073  -0.318  1.00  0.00     0.050 A 
HETATM   18 CL2  UNL     1      -5.340   1.891   0.486  1.00  0.00    -0.083 Cl
HETATM   19  C23 UNL     1      -3.192   0.220   0.419  1.00  0.00     0.037 A 
BRANCH  16  20
HETATM   20  C21 UNL     1      -4.547   2.153  -2.452  1.00  0.00     0.266 C 
HETATM   21  N3  UNL     1      -5.663   2.830  -1.894  1.00  0.00    -0.057 NA
HETATM   22  O4  UNL     1      -4.278   2.337  -3.661  1.00  0.00    -0.271 OA
ENDBRANCH  16  20
ENDBRANCH  11  13
BRANCH  10  23
HETATM   23  C13 UNL     1      -3.084  -3.219   0.464  1.00  0.00    -0.056 C 
HETATM   24  C14 UNL     1      -4.134  -3.696   0.073  1.00  0.00    -0.075 C 
BRANCH  24  25
HETATM   25  C15 UNL     1      -5.401  -4.265  -0.427  1.00  0.00     0.258 C 
BRANCH  25  26
HETATM   26  O3  UNL     1      -5.903  -5.236   0.448  1.00  0.00    -0.389 OA
ATOM     27  H3  UNL     1      -6.718  -5.602   0.126  1.00  0.00     0.210 HD
ENDBRANCH  25  26
ENDBRANCH  24  25
ENDBRANCH  10  23
BRANCH   1  28
HETATM   28  N1  UNL     1      -0.241   1.114   0.945  1.00  0.00    -0.313 N 
HETATM   29  C2  UNL     1       0.297   2.407   0.787  1.00  0.00     0.219 C 
HETATM   30  C1  UNL     1      -0.411   3.393  -0.064  1.00  0.00     0.117 C 
HETATM   31  O1  UNL     1       1.358   2.782   1.333  1.00  0.00    -0.274 OA
ATOM     32  H1  UNL     1      -1.252   0.980   0.946  1.00  0.00     0.170 HD
ENDBRANCH   1  28
BRANCH   4  33
HETATM   33  O2  UNL     1       4.174  -0.162   0.950  1.00  0.00    -0.334 OA
BRANCH  33  34
HETATM   34  C5  UNL     1       4.280   0.900   0.007  1.00  0.00     0.181 C 
BRANCH  34  35
HETATM   35  C6  UNL     1       5.683   1.062  -0.511  1.00  0.00     0.002 C 
HETATM   36  C7  UNL     1       6.170  -0.201  -1.206  1.00  0.00     0.011 C 
HETATM   37  C8  UNL     1       6.643   1.547   0.534  1.00  0.00     0.011 C 
ENDBRANCH  34  35
ENDBRANCH  33  34
ENDBRANCH   4  33
TORSDOF 9
