REMARK  16 active torsions:
REMARK  status: ('A' for Active; 'I' for Inactive)
REMARK       I    between atoms: C2_2  and  N1_4 
REMARK    1  A    between atoms: N1_4  and  C3_6 
REMARK    2  A    between atoms: C3_6  and  C4_7 
REMARK    3  A    between atoms: C3_6  and  C15_37 
REMARK    4  A    between atoms: C4_7  and  S1_8 
REMARK    5  A    between atoms: S1_8  and  S2_9 
REMARK    6  A    between atoms: S2_9  and  C5_10 
REMARK    7  A    between atoms: C5_10  and  C6_11 
REMARK    8  A    between atoms: C6_11  and  N2_12 
REMARK    9  A    between atoms: C6_11  and  C7_16 
REMARK       I    between atoms: C7_16  and  N3_18 
REMARK   10  A    between atoms: N3_18  and  C8_20 
REMARK   11  A    between atoms: C9_22  and  C10_23 
REMARK   12  A    between atoms: C10_23  and  N4_24 
REMARK   13  A    between atoms: C12_29  and  O4_30 
REMARK   14  A    between atoms: C13_32  and  N7_33 
REMARK   15  A    between atoms: C15_37  and  N9_38 
REMARK   16  A    between atoms: C15_37  and  C16_42 
ROOT
HETATM    1  C6  UNL     1       0.051  -0.009   2.916  1.00  0.00     0.284 C 
ENDROOT
BRANCH   1   2
HETATM    2  C5  UNL     1       1.245   0.895   2.804  1.00  0.00     0.128 C 
BRANCH   2   3
HETATM    3  S2  UNL     1       1.862   1.167   1.163  1.00  0.00    -0.095 SA
BRANCH   3   4
HETATM    4  S1  UNL     1       2.691  -0.531   0.243  1.00  0.00    -0.096 SA
BRANCH   4   5
HETATM    5  C4  UNL     1       4.436  -0.739   0.547  1.00  0.00     0.113 C 
BRANCH   5   6
HETATM    6  C3  UNL     1       5.325   0.298  -0.060  1.00  0.00     0.133 C 
BRANCH   6   7
HETATM    7  N1  UNL     1       5.184   0.327  -1.490  1.00  0.00    -0.354 N 
HETATM    8  C2  UNL     1       6.193  -0.089  -2.390  1.00  0.00     0.214 C 
HETATM    9  C1  UNL     1       5.972  -0.029  -3.848  1.00  0.00     0.117 C 
HETATM   10  O1  UNL     1       7.289  -0.515  -1.959  1.00  0.00    -0.274 OA
ATOM     11  H1  UNL     1       4.305   0.668  -1.879  1.00  0.00     0.162 HD
ENDBRANCH   6   7
BRANCH   6  12
HETATM   12  C15 UNL     1       5.260   1.649   0.598  1.00  0.00     0.295 C 
BRANCH  12  13
HETATM   13  N9  UNL     1       5.412   1.452   2.037  1.00  0.00    -0.065 N 
ATOM     14  H93 UNL     1       4.735   0.792   2.420  1.00  0.00     0.275 HD
ATOM     15  H92 UNL     1       6.257   0.934   2.279  1.00  0.00     0.275 HD
ATOM     16  H91 UNL     1       5.368   2.368   2.483  1.00  0.00     0.275 HD
ENDBRANCH  12  13
BRANCH  12  17
HETATM   17  C16 UNL     1       6.388   2.494   0.143  1.00  0.00     0.263 C 
HETATM   18  N10 UNL     1       6.495   2.892  -1.238  1.00  0.00    -0.060 NA
HETATM   19  O5  UNL     1       7.250   2.861   0.975  1.00  0.00    -0.274 OA
ENDBRANCH  12  17
ENDBRANCH   6  12
ENDBRANCH   5   6
ENDBRANCH   4   5
ENDBRANCH   3   4
ENDBRANCH   2   3
ENDBRANCH   1   2
BRANCH   1  20
HETATM   20  N2  UNL     1       0.258  -1.327   2.425  1.00  0.00    -0.066 N 
ATOM     21  H23 UNL     1       0.591  -1.298   1.461  1.00  0.00     0.275 HD
ATOM     22  H22 UNL     1       1.067  -1.751   2.878  1.00  0.00     0.275 HD
ATOM     23  H21 UNL     1      -0.553  -1.941   2.501  1.00  0.00     0.275 HD
ENDBRANCH   1  20
BRANCH   1  24
HETATM   24  C7  UNL     1      -1.160   0.554   2.310  1.00  0.00     0.251 C 
HETATM   25  O2  UNL     1      -1.525   1.701   2.628  1.00  0.00    -0.271 OA
HETATM   26  N3  UNL     1      -1.910  -0.182   1.379  1.00  0.00    -0.331 N 
ATOM     27  H3  UNL     1      -1.582  -1.118   1.139  1.00  0.00     0.165 HD
BRANCH  26  28
HETATM   28  C8  UNL     1      -3.113   0.292   0.737  1.00  0.00     0.249 C 
HETATM   29  O3  UNL     1      -4.152  -0.590   1.005  1.00  0.00    -0.355 OA
HETATM   30  C9  UNL     1      -4.046  -1.501  -0.040  1.00  0.00     0.172 C 
HETATM   31  C12 UNL     1      -4.020  -0.584  -1.243  1.00  0.00     0.175 C 
HETATM   32  C13 UNL     1      -2.993   0.442  -0.754  1.00  0.00     0.162 C 
BRANCH  30  33
HETATM   33  C10 UNL     1      -5.180  -2.486  -0.064  1.00  0.00     0.156 C 
BRANCH  33  34
HETATM   34  N4  UNL     1      -6.443  -1.843  -0.208  1.00  0.00    -0.364 N 
HETATM   35  C11 UNL     1      -7.593  -2.323   0.043  1.00  0.00     0.197 C 
HETATM   36  N5  UNL     1      -8.752  -1.514  -0.168  1.00  0.00    -0.067 NA
HETATM   37  N6  UNL     1      -7.801  -3.641   0.528  1.00  0.00    -0.067 NA
ATOM     38  H4  UNL     1      -6.422  -0.884  -0.554  1.00  0.00     0.161 HD
ENDBRANCH  33  34
ENDBRANCH  30  33
BRANCH  31  39
HETATM   39  O4  UNL     1      -5.276  -0.002  -1.354  1.00  0.00    -0.391 OA
ATOM     40  H4  UNL     1      -5.260   0.574  -2.109  1.00  0.00     0.210 HD
ENDBRANCH  31  39
BRANCH  32  41
HETATM   41  N7  UNL     1      -3.365   1.759  -1.217  1.00  0.00    -0.377 N 
HETATM   42  C14 UNL     1      -2.763   2.258  -2.235  1.00  0.00     0.185 C 
HETATM   43  N8  UNL     1      -1.747   1.538  -2.903  1.00  0.00    -0.097 NA
ATOM     44  H7  UNL     1      -4.097   2.286  -0.741  1.00  0.00     0.160 HD
ENDBRANCH  32  41
ENDBRANCH  26  28
ENDBRANCH   1  24
TORSDOF 16
