REMARK  2 active torsions:
REMARK  status: ('A' for Active; 'I' for Inactive)
REMARK       I    between atoms: C2_2  and  N1_4 
REMARK    1  A    between atoms: N1_4  and  C3_6 
REMARK    2  A    between atoms: C3_6  and  N2_7 
ROOT
HETATM    1  C3  UNL     1       0.276  -0.882  -0.331  1.00  0.00     0.273 C 
HETATM    2  C4  UNL     1      -0.127  -1.296   1.055  1.00  0.00     0.087 C 
HETATM    3  C5  UNL     1      -1.011  -0.250   1.602  1.00  0.00     0.036 C 
HETATM    4  C6  UNL     1      -1.388   0.578   0.394  1.00  0.00     0.024 C 
HETATM    5  C7  UNL     1      -1.484   2.059   0.775  1.00  0.00     0.038 C 
HETATM    6  C8  UNL     1      -2.766   0.115  -0.043  1.00  0.00     0.038 C 
HETATM    7  N3  UNL     1      -0.394   0.315  -0.543  1.00  0.00    -0.361 N 
HETATM    8  C9  UNL     1      -0.430   0.900  -1.807  1.00  0.00     0.148 C 
ENDROOT
BRANCH   1   9
HETATM    9  N1  UNL     1       1.713  -0.843  -0.503  1.00  0.00    -0.312 N 
HETATM   10  C2  UNL     1       2.559  -0.002   0.271  1.00  0.00     0.216 C 
HETATM   11  C1  UNL     1       4.025   0.063   0.124  1.00  0.00     0.117 C 
HETATM   12  O1  UNL     1       2.012   0.728   1.133  1.00  0.00    -0.274 OA
ATOM     13  H1  UNL     1       2.137  -1.444  -1.210  1.00  0.00     0.166 HD
ENDBRANCH   1   9
BRANCH   1  14
HETATM   14  N2  UNL     1      -0.226  -1.842  -1.336  1.00  0.00    -0.034 N 
ATOM     15  H23 UNL     1       0.065  -1.624  -2.289  1.00  0.00     0.279 HD
ATOM     16  H22 UNL     1       0.216  -2.759  -1.280  1.00  0.00     0.279 HD
ATOM     17  H21 UNL     1      -1.238  -1.869  -1.215  1.00  0.00     0.279 HD
ENDBRANCH   1  14
TORSDOF 2
