REMARK  3 active torsions:
REMARK  status: ('A' for Active; 'I' for Inactive)
REMARK    1  A    between atoms: C2_2  and  N1_3 
REMARK    2  A    between atoms: C2_2  and  C3_7 
REMARK    3  A    between atoms: C4_8  and  C5_9 
ROOT
HETATM    1  C5  UNL     1       0.174  -0.222   0.814  1.00  0.00     0.089 C 
HETATM    2  N2  UNL     1      -0.676   0.745   0.897  1.00  0.00    -0.355 N 
ATOM      3  H2  UNL     1      -0.454   1.726   0.728  1.00  0.00     0.162 HD
HETATM    4  C6  UNL     1      -1.973   0.257   1.258  1.00  0.00     0.322 C 
HETATM    5  C7  UNL     1      -3.108   1.042   0.692  1.00  0.00     0.057 C 
HETATM    6  C8  UNL     1      -4.090   0.162  -0.075  1.00  0.00     0.005 C 
HETATM    7  C9  UNL     1      -3.283  -0.541  -1.148  1.00  0.00     0.030 C 
HETATM    8  C10 UNL     1      -2.127  -1.300  -0.574  1.00  0.00     0.275 C 
HETATM    9  N3  UNL     1      -1.937  -1.114   0.831  1.00  0.00     0.117 N 
HETATM   10  C11 UNL     1      -0.562  -1.486   1.138  1.00  0.00     0.341 C 
ENDROOT
BRANCH   1  11
HETATM   11  C4  UNL     1       1.562  -0.062   0.471  1.00  0.00    -0.050 C 
HETATM   12  C3  UNL     1       2.733   0.059   0.199  1.00  0.00    -0.067 C 
BRANCH  12  13
HETATM   13  C2  UNL     1       4.172   0.184  -0.128  1.00  0.00     0.258 C 
HETATM   14  C1  UNL     1       4.695   1.434   0.526  1.00  0.00     0.053 C 
BRANCH  13  15
HETATM   15  N1  UNL     1       4.333   0.223  -1.568  1.00  0.00    -0.065 N 
ATOM     16  H13 UNL     1       3.905   1.058  -1.967  1.00  0.00     0.275 HD
ATOM     17  H12 UNL     1       5.303   0.401  -1.829  1.00  0.00     0.275 HD
ATOM     18  H11 UNL     1       3.978  -0.624  -2.011  1.00  0.00     0.275 HD
ENDBRANCH  13  15
ENDBRANCH  12  13
ENDBRANCH   1  11
TORSDOF 3
