REMARK  5 active torsions:
REMARK  status: ('A' for Active; 'I' for Inactive)
REMARK    1  A    between atoms: C2_2  and  C4_4 
REMARK    2  A    between atoms: C7_8  and  N1_9 
REMARK    3  A    between atoms: C12_15  and  C13_16 
REMARK       I    between atoms: N2_19  and  C14_20 
REMARK    4  A    between atoms: C14_20  and  O4_22 
REMARK    5  A    between atoms: O4_22  and  C15_23 
ROOT
HETATM    1  N1  UNL     1      -0.075  -0.050   0.147  1.00  0.00    -0.337 N 
ATOM      2  H1  UNL     1      -0.700   0.665   0.520  1.00  0.00     0.168 HD
HETATM    3  C8  UNL     1      -0.569  -1.155  -0.248  1.00  0.00     0.089 C 
HETATM    4  C9  UNL     1       0.332  -2.195  -0.788  1.00  0.00     0.077 C 
HETATM    5  C10 UNL     1      -0.351  -3.450  -1.208  1.00  0.00     0.010 C 
HETATM    6  C11 UNL     1      -1.817  -3.274  -1.522  1.00  0.00     0.037 C 
HETATM    7  C12 UNL     1      -2.459  -2.707  -0.256  1.00  0.00     0.197 C 
HETATM    8  N2  UNL     1      -1.977  -1.337  -0.150  1.00  0.00    -0.268 N 
HETATM    9  C14 UNL     1      -2.878  -0.254   0.041  1.00  0.00     0.369 C 
HETATM   10  O3  UNL     1      -4.103  -0.524   0.115  1.00  0.00    -0.238 OA
ENDROOT
BRANCH   1  11
HETATM   11  C7  UNL     1       1.347   0.225   0.084  1.00  0.00     0.115 A 
HETATM   12  C6  UNL     1       2.039   0.760  -0.970  1.00  0.00     0.151 A 
HETATM   13  C5  UNL     1       3.372   0.931  -0.810  1.00  0.00     0.060 A 
HETATM   14  F1  UNL     1       1.412   1.117  -2.163  1.00  0.00    -0.203 F 
HETATM   15  C4  UNL     1       3.906   0.554   0.390  1.00  0.00    -0.009 A 
HETATM   16  S1  UNL     1       2.560  -0.020   1.253  1.00  0.00    -0.073 SA
BRANCH  15  17
HETATM   17  C2  UNL     1       5.358   0.655   0.786  1.00  0.00     0.018 C 
HETATM   18  C1  UNL     1       6.260  -0.005  -0.197  1.00  0.00     0.015 C 
HETATM   19  C3  UNL     1       5.694   2.126   0.834  1.00  0.00     0.015 C 
ENDBRANCH  15  17
ENDBRANCH   1  11
BRANCH   7  20
HETATM   20  C13 UNL     1      -2.061  -3.479   0.939  1.00  0.00     0.197 C 
HETATM   21  O1  UNL     1      -2.386  -4.684   1.028  1.00  0.00    -0.646 OA
HETATM   22  O2  UNL     1      -1.335  -2.892   1.955  1.00  0.00    -0.646 OA
ENDBRANCH   7  20
BRANCH   9  23
HETATM   23  O4  UNL     1      -2.495   1.053   0.149  1.00  0.00    -0.293 OA
BRANCH  23  24
HETATM   24  C15 UNL     1      -3.396   2.131   0.340  1.00  0.00     0.061 C 
HETATM   25  C16 UNL     1      -4.395   2.246  -0.785  1.00  0.00     0.046 C 
HETATM   26  C17 UNL     1      -2.582   3.404   0.385  1.00  0.00     0.046 C 
HETATM   27  C18 UNL     1      -4.158   2.005   1.633  1.00  0.00     0.046 C 
ENDBRANCH  23  24
ENDBRANCH   9  23
TORSDOF 5
