REMARK  12 active torsions:
REMARK  status: ('A' for Active; 'I' for Inactive)
REMARK    1  A    between atoms: O1_2  and  C2_3 
REMARK    2  A    between atoms: C2_3  and  C3_5 
REMARK    3  A    between atoms: C3_5  and  N1_6 
REMARK    4  A    between atoms: C3_5  and  C4_10 
REMARK    5  A    between atoms: N2_12  and  N3_14 
REMARK    6  A    between atoms: N3_14  and  C6_16 
REMARK    7  A    between atoms: C7_19  and  N5_20 
REMARK    8  A    between atoms: N5_20  and  N6_22 
REMARK    9  A    between atoms: C8_27  and  N8_28 
REMARK   10  A    between atoms: C11_31  and  C12_32 
REMARK   11  A    between atoms: C12_32  and  N9_33 
REMARK   12  A    between atoms: C12_32  and  O3_37 
ROOT
HETATM    1  C6  UNL     1      -0.468  -0.118  -0.745  1.00  0.00     0.150 A 
HETATM    2  N4  UNL     1      -0.585   0.803  -1.731  1.00  0.00    -0.173 N 
ATOM      3  H4  UNL     1       0.188   0.905  -2.389  1.00  0.00     0.186 HD
HETATM    4  C7  UNL     1      -1.653   1.583  -1.890  1.00  0.00     0.699 A 
HETATM    5  N7  UNL     1      -2.667   1.445  -1.021  1.00  0.00    -0.175 N 
ATOM      6  H7  UNL     1      -3.496   2.031  -1.121  1.00  0.00     0.186 HD
HETATM    7  C8  UNL     1      -2.609   0.537  -0.008  1.00  0.00     0.133 A 
HETATM    8  C11 UNL     1      -1.493  -0.269   0.146  1.00  0.00     0.087 A 
ENDROOT
BRANCH   1   9
HETATM    9  N3  UNL     1       0.578  -0.865  -0.610  1.00  0.00    -0.284 N 
ATOM     10  H3  UNL     1       0.646  -1.553   0.140  1.00  0.00     0.188 HD
BRANCH   9  11
HETATM   11  N2  UNL     1       1.610  -0.692  -1.531  1.00  0.00    -0.305 N 
HETATM   12  C4  UNL     1       2.816  -0.951  -1.182  1.00  0.00     0.040 C 
HETATM   13  C5  UNL     1       3.896  -0.761  -2.178  1.00  0.00     0.067 C 
ATOM     14  H2  UNL     1       1.407  -0.362  -2.475  1.00  0.00     0.186 HD
BRANCH  12  15
HETATM   15  C3  UNL     1       3.089  -1.429   0.194  1.00  0.00     0.328 C 
BRANCH  15  16
HETATM   16  C2  UNL     1       3.998  -0.490   0.883  1.00  0.00     0.295 C 
HETATM   17  O2  UNL     1       5.083  -0.920   1.351  1.00  0.00    -0.262 OA
BRANCH  16  18
HETATM   18  O1  UNL     1       3.686   0.848   1.026  1.00  0.00    -0.325 OA
HETATM   19  C1  UNL     1       4.607   1.686   1.698  1.00  0.00     0.213 C 
ENDBRANCH  16  18
ENDBRANCH  15  16
BRANCH  15  20
HETATM   20  N1  UNL     1       3.651  -2.767   0.181  1.00  0.00    -0.061 N 
ATOM     21  H13 UNL     1       4.587  -2.781  -0.224  1.00  0.00     0.275 HD
ATOM     22  H12 UNL     1       3.886  -3.088   1.120  1.00  0.00     0.275 HD
ATOM     23  H11 UNL     1       3.023  -3.415  -0.295  1.00  0.00     0.275 HD
ENDBRANCH  15  20
ENDBRANCH  12  15
ENDBRANCH   9  11
ENDBRANCH   1   9
BRANCH   8  24
HETATM   24  C12 UNL     1      -1.385  -1.278   1.242  1.00  0.00     0.358 C 
BRANCH  24  25
HETATM   25  N9  UNL     1      -0.868  -2.533   0.686  1.00  0.00    -0.049 N 
ATOM     26  H93 UNL     1      -1.426  -2.870  -0.098  1.00  0.00     0.277 HD
ATOM     27  H92 UNL     1       0.013  -2.404   0.189  1.00  0.00     0.277 HD
ATOM     28  H91 UNL     1      -0.794  -3.222   1.434  1.00  0.00     0.277 HD
ENDBRANCH  24  25
BRANCH  24  29
HETATM   29  O3  UNL     1      -0.443  -0.850   2.180  1.00  0.00    -0.366 OA
ATOM     30  H3  UNL     1      -0.374  -1.492   2.877  1.00  0.00     0.212 HD
ENDBRANCH  24  29
ENDBRANCH   8  24
BRANCH   4  31
HETATM   31  N5  UNL     1      -1.663   2.430  -2.865  1.00  0.00    -0.138 N 
ATOM     32  H5  UNL     1      -0.843   2.459  -3.471  1.00  0.00     0.205 HD
BRANCH  31  33
HETATM   33  N6  UNL     1      -2.693   3.295  -3.149  1.00  0.00    -0.331 N 
ATOM     34  H62 UNL     1      -3.504   3.252  -2.532  1.00  0.00     0.177 HD
ATOM     35  H61 UNL     1      -2.701   3.964  -3.919  1.00  0.00     0.177 HD
ENDBRANCH  31  33
ENDBRANCH   4  31
BRANCH   7  36
HETATM   36  N8  UNL     1      -3.682   0.403   0.897  1.00  0.00    -0.375 N 
HETATM   37  C9  UNL     1      -3.735   1.181   2.103  1.00  0.00     0.150 C 
HETATM   38  C10 UNL     1      -4.745  -0.525   0.614  1.00  0.00     0.150 C 
ENDBRANCH   7  36
TORSDOF 12
