REMARK  5 active torsions:
REMARK  status: ('A' for Active; 'I' for Inactive)
REMARK       I    between atoms: C1_4  and  N3_6 
REMARK       I    between atoms: N3_6  and  C2_8 
REMARK       I    between atoms: C2_8  and  N4_10 
REMARK    1  A    between atoms: N4_10  and  S1_12 
REMARK    2  A    between atoms: S1_12  and  N5_15 
REMARK       I    between atoms: N5_15  and  C3_17 
REMARK    3  A    between atoms: C3_17  and  C4_19 
REMARK    4  A    between atoms: C5_25  and  C6_26 
REMARK    5  A    between atoms: N9_28  and  O6_30 
ROOT
HETATM    1  N5  UNL     1      -0.445  -0.021  -0.245  1.00  0.00    -0.231 N 
ATOM      2  H5  UNL     1      -0.284  -0.515  -1.123  1.00  0.00     0.183 HD
HETATM    3  C3  UNL     1      -1.759   0.149   0.254  1.00  0.00     0.287 C 
HETATM    4  O4  UNL     1      -1.887   0.755   1.320  1.00  0.00    -0.265 OA
ENDROOT
BRANCH   1   5
HETATM    5  S1  UNL     1       0.877   0.619   0.653  1.00  0.00     0.329 S 
HETATM    6  O2  UNL     1       1.211  -0.235   1.849  1.00  0.00    -0.182 OA
HETATM    7  O3  UNL     1       0.518   1.987   1.208  1.00  0.00    -0.182 OA
BRANCH   5   8
HETATM    8  N4  UNL     1       2.250   0.770  -0.390  1.00  0.00    -0.218 N 
HETATM    9  C2  UNL     1       3.480   0.204  -0.016  1.00  0.00     0.337 C 
HETATM   10  N3  UNL     1       4.613   0.315  -0.861  1.00  0.00    -0.282 N 
HETATM   11  O1  UNL     1       3.582  -0.405   1.074  1.00  0.00    -0.246 OA
HETATM   12  C1  UNL     1       5.859  -0.256  -0.487  1.00  0.00     0.189 C 
ATOM     13  H3  UNL     1       4.533   0.811  -1.749  1.00  0.00     0.173 HD
HETATM   14  N1  UNL     1       6.886  -0.159  -1.247  1.00  0.00    -0.373 N 
HETATM   15  N2  UNL     1       5.964  -0.941   0.747  1.00  0.00    -0.064 NA
ATOM     16  H12 UNL     1       7.781  -0.569  -0.978  1.00  0.00     0.158 HD
ATOM     17  H11 UNL     1       6.810   0.335  -2.136  1.00  0.00     0.158 HD
ATOM     18  H4  UNL     1       2.166   1.269  -1.275  1.00  0.00     0.185 HD
ENDBRANCH   5   8
ENDBRANCH   1   5
BRANCH   3  19
HETATM   19  C4  UNL     1      -2.869  -0.381  -0.494  1.00  0.00     0.157 A 
HETATM   20  N6  UNL     1      -2.742  -1.103  -1.664  1.00  0.00    -0.234 N 
HETATM   21  O5  UNL     1      -3.909  -1.393  -2.050  1.00  0.00    -0.156 OA
ATOM     22  H6  UNL     1      -1.870  -1.355  -2.129  1.00  0.00     0.197 HD
HETATM   23  N7  UNL     1      -4.812  -0.949  -1.272  1.00  0.00    -0.236 N 
HETATM   24  C5  UNL     1      -4.197  -0.281  -0.239  1.00  0.00     0.133 A 
ATOM     25  H7  UNL     1      -5.818  -1.068  -1.393  1.00  0.00     0.197 HD
BRANCH  24  26
HETATM   26  C6  UNL     1      -4.977   0.351   0.815  1.00  0.00     0.167 C 
HETATM   27  N8  UNL     1      -4.505   1.056   1.928  1.00  0.00    -0.078 NA
HETATM   28  N9  UNL     1      -6.279   0.274   0.752  1.00  0.00    -0.253 N 
ATOM     29  H9  UNL     1      -6.836   0.713   1.485  1.00  0.00     0.195 HD
BRANCH  28  30
HETATM   30  O6  UNL     1      -6.906  -0.364  -0.246  1.00  0.00    -0.288 OA
ATOM     31  H6  UNL     1      -7.853  -0.420  -0.292  1.00  0.00     0.244 HD
ENDBRANCH  28  30
ENDBRANCH  24  26
ENDBRANCH   3  19
TORSDOF 5
