REMARK  10 active torsions:
REMARK  status: ('A' for Active; 'I' for Inactive)
REMARK    1  A    between atoms: C2_2  and  C5_5 
REMARK    2  A    between atoms: C5_5  and  N1_6 
REMARK    3  A    between atoms: C5_5  and  C12_16 
REMARK       I    between atoms: N1_6  and  C6_8 
REMARK    4  A    between atoms: C6_8  and  O2_10 
REMARK    5  A    between atoms: O2_10  and  C7_11 
REMARK       I    between atoms: C12_16  and  N2_18 
REMARK       I    between atoms: N2_18  and  C13_20 
REMARK    6  A    between atoms: C13_20  and  C14_22 
REMARK    7  A    between atoms: C14_22  and  C15_23 
REMARK    8  A    between atoms: C14_22  and  N3_28 
REMARK    9  A    between atoms: C15_23  and  C16_24 
REMARK   10  A    between atoms: C16_24  and  C17_25 
ROOT
HETATM    1  C12 UNL     1      -0.835  -0.668   0.580  1.00  0.00     0.247 C 
HETATM    2  O3  UNL     1      -0.822   0.475   1.194  1.00  0.00    -0.271 OA
HETATM    3  N2  UNL     1       0.428  -1.197   0.262  1.00  0.00    -0.294 N 
ATOM      4  H2  UNL     1       0.493  -2.098  -0.212  1.00  0.00     0.171 HD
HETATM    5  C13 UNL     1       1.617  -0.490   0.594  1.00  0.00     0.258 C 
HETATM    6  O4  UNL     1       1.515   0.562   1.303  1.00  0.00    -0.271 OA
ENDROOT
BRANCH   1   7
HETATM    7  C5  UNL     1      -2.160  -1.225   0.306  1.00  0.00     0.186 C 
BRANCH   7   8
HETATM    8  C2  UNL     1      -2.255  -2.532  -0.383  1.00  0.00    -0.022 C 
HETATM    9  C1  UNL     1      -1.837  -2.553  -1.807  1.00  0.00     0.017 C 
HETATM   10  C3  UNL     1      -3.794  -2.830  -0.418  1.00  0.00     0.017 C 
HETATM   11  C4  UNL     1      -1.642  -3.604   0.448  1.00  0.00     0.017 C 
ENDBRANCH   7   8
BRANCH   7  12
HETATM   12  N1  UNL     1      -3.018  -0.193  -0.287  1.00  0.00    -0.323 N 
HETATM   13  C6  UNL     1      -4.112   0.425   0.367  1.00  0.00     0.361 C 
HETATM   14  O1  UNL     1      -4.403   0.085   1.525  1.00  0.00    -0.238 OA
ATOM     15  H1  UNL     1      -2.811   0.101  -1.241  1.00  0.00     0.165 HD
BRANCH  13  16
HETATM   16  O2  UNL     1      -4.844   1.400  -0.294  1.00  0.00    -0.299 OA
BRANCH  16  17
HETATM   17  C7  UNL     1      -5.939   2.063   0.285  1.00  0.00     0.133 C 
HETATM   18  C8  UNL     1      -7.187   1.863  -0.532  1.00  0.00     0.032 C 
HETATM   19  C9  UNL     1      -8.047   3.046  -0.189  1.00  0.00     0.002 C 
HETATM   20  C10 UNL     1      -7.155   4.053   0.481  1.00  0.00     0.002 C 
HETATM   21  C11 UNL     1      -5.744   3.566   0.266  1.00  0.00     0.032 C 
ENDBRANCH  16  17
ENDBRANCH  13  16
ENDBRANCH   7  12
ENDBRANCH   1   7
BRANCH   5  22
HETATM   22  C14 UNL     1       2.908  -0.995   0.102  1.00  0.00     0.315 C 
BRANCH  22  23
HETATM   23  C15 UNL     1       3.092  -2.432   0.506  1.00  0.00     0.056 C 
BRANCH  23  24
HETATM   24  C16 UNL     1       4.421  -2.973   0.028  1.00  0.00     0.116 C 
BRANCH  24  25
HETATM   25  C17 UNL     1       4.541  -4.402   0.412  1.00  0.00     0.172 C 
HETATM   26  O5  UNL     1       5.580  -5.081   0.137  1.00  0.00    -0.648 OA
HETATM   27  O6  UNL     1       3.499  -5.017   1.083  1.00  0.00    -0.648 OA
ENDBRANCH  24  25
ENDBRANCH  23  24
ENDBRANCH  22  23
BRANCH  22  28
HETATM   28  N3  UNL     1       4.060  -0.225   0.440  1.00  0.00     0.103 N 
HETATM   29  C18 UNL     1       4.841   0.065  -0.795  1.00  0.00     0.284 C 
HETATM   30  C19 UNL     1       5.120   1.447  -0.304  1.00  0.00     0.013 C 
HETATM   31  C20 UNL     1       4.946   2.547  -1.333  1.00  0.00     0.013 C 
HETATM   32  C23 UNL     1       6.353   1.727   0.462  1.00  0.00     0.013 C 
HETATM   33  C24 UNL     1       3.834   1.222   0.482  1.00  0.00     0.284 C 
HETATM   34  C21 UNL     1       5.480   3.748  -0.567  1.00  0.00     0.001 C 
HETATM   35  C22 UNL     1       6.750   3.146   0.025  1.00  0.00     0.001 C 
ENDBRANCH  22  28
ENDBRANCH   5  22
TORSDOF 10
