REMARK  8 active torsions:
REMARK  status: ('A' for Active; 'I' for Inactive)
REMARK    1  A    between atoms: N1_2  and  C3_4 
REMARK    2  A    between atoms: C3_4  and  C4_5 
REMARK    3  A    between atoms: C4_5  and  C5_6 
REMARK    4  A    between atoms: C5_6  and  N2_7 
REMARK    5  A    between atoms: N2_7  and  C6_9 
REMARK    6  A    between atoms: C7_12  and  N4_13 
REMARK    7  A    between atoms: N4_13  and  C8_15 
REMARK    8  A    between atoms: C10_17  and  C11_18 
ROOT
HETATM    1  C6  UNL     1       2.523  -1.952   0.225  1.00  0.00     0.679 A 
HETATM    2  N3  UNL     1       1.185  -1.731   0.152  1.00  0.00    -0.175 N 
ATOM      3  H3  UNL     1       0.851  -0.769   0.207  1.00  0.00     0.186 HD
HETATM    4  C7  UNL     1       0.279  -2.711   0.011  1.00  0.00     0.141 A 
HETATM    5  C17 UNL     1       0.764  -4.009  -0.060  1.00  0.00     0.071 A 
HETATM    6 BR1  UNL     1      -0.509  -5.412  -0.260  1.00  0.00    -0.046 Br
HETATM    7  C18 UNL     1       2.128  -4.276   0.011  1.00  0.00     0.129 A 
HETATM    8  N7  UNL     1       2.951  -3.224   0.152  1.00  0.00    -0.201 N 
ATOM      9  H7  UNL     1       3.954  -3.400   0.207  1.00  0.00     0.183 HD
ENDROOT
BRANCH   4  10
HETATM   10  N4  UNL     1      -1.094  -2.510  -0.068  1.00  0.00    -0.326 N 
ATOM     11  H4  UNL     1      -1.633  -3.358  -0.244  1.00  0.00     0.169 HD
BRANCH  10  12
HETATM   12  C8  UNL     1      -1.791  -1.466   0.039  1.00  0.00     0.123 A 
HETATM   13  C9  UNL     1      -3.169  -1.468  -0.072  1.00  0.00     0.076 A 
HETATM   14  C10 UNL     1      -3.632  -0.185   0.090  1.00  0.00     0.033 A 
HETATM   15  N5  UNL     1      -2.545   0.576   0.296  1.00  0.00    -0.303 N 
HETATM   16  N6  UNL     1      -1.452  -0.185   0.265  1.00  0.00    -0.285 N 
ATOM     17  H5  UNL     1      -2.555   1.584   0.452  1.00  0.00     0.186 HD
ATOM     18  H6  UNL     1      -0.499   0.154   0.394  1.00  0.00     0.188 HD
BRANCH  14  19
HETATM   19  C11 UNL     1      -5.028   0.324   0.055  1.00  0.00     0.037 C 
HETATM   20  C12 UNL     1      -5.236   1.256  -1.130  1.00  0.00     0.011 C 
HETATM   21  C13 UNL     1      -6.503   2.047  -0.974  1.00  0.00     0.001 C 
HETATM   22  C14 UNL     1      -7.468   1.214  -0.134  1.00  0.00     0.000 C 
HETATM   23  C15 UNL     1      -6.982   1.096   1.294  1.00  0.00     0.001 C 
HETATM   24  C16 UNL     1      -5.454   0.996   1.334  1.00  0.00     0.011 C 
ENDBRANCH  14  19
ENDBRANCH  10  12
ENDBRANCH   4  10
BRANCH   1  25
HETATM   25  N2  UNL     1       3.356  -0.966   0.360  1.00  0.00    -0.226 N 
ATOM     26  H2  UNL     1       3.028  -0.002   0.415  1.00  0.00     0.177 HD
BRANCH  25  27
HETATM   27  C5  UNL     1       4.758  -1.279   0.430  1.00  0.00     0.140 C 
BRANCH  27  28
HETATM   28  C4  UNL     1       5.631  -0.069   0.614  1.00  0.00     0.050 C 
BRANCH  28  29
HETATM   29  C3  UNL     1       5.412   0.846  -0.559  1.00  0.00     0.273 C 
BRANCH  29  30
HETATM   30  N1  UNL     1       6.187   2.052  -0.516  1.00  0.00     0.080 N 
HETATM   31  C1  UNL     1       5.711   2.881   0.562  1.00  0.00     0.309 C 
HETATM   32  C2  UNL     1       7.604   1.796  -0.462  1.00  0.00     0.309 C 
ENDBRANCH  29  30
ENDBRANCH  28  29
ENDBRANCH  27  28
ENDBRANCH  25  27
ENDBRANCH   1  25
TORSDOF 8
