REMARK  7 active torsions:
REMARK  status: ('A' for Active; 'I' for Inactive)
REMARK    1  A    between atoms: C6_9  and  N3_10 
REMARK    2  A    between atoms: C9_15  and  N4_16 
REMARK       I    between atoms: N4_16  and  C10_18 
REMARK    3  A    between atoms: C10_18  and  C11_20 
REMARK    4  A    between atoms: C11_20  and  C12_21 
REMARK    5  A    between atoms: C12_21  and  S1_22 
REMARK    6  A    between atoms: S1_22  and  C13_25 
REMARK    7  A    between atoms: C13_25  and  C14_26 
ROOT
HETATM    1  N1  UNL     1       7.902  -2.206  -2.393  1.00  0.00    -0.191 NA
HETATM    2  C1  UNL     1       7.349  -1.458  -1.698  1.00  0.00     0.103 C 
HETATM    3  C2  UNL     1       6.659  -0.545  -0.815  1.00  0.00     0.088 A 
HETATM    4  C3  UNL     1       5.273  -0.597  -0.680  1.00  0.00     0.037 A 
HETATM    5  C4  UNL     1       4.603   0.268   0.159  1.00  0.00    -0.011 A 
HETATM    6  C5  UNL     1       5.388   1.180   0.849  1.00  0.00     0.019 A 
HETATM    7  N2  UNL     1       6.724   1.206   0.698  1.00  0.00    -0.344 N 
ATOM      8  H2  UNL     1       7.256   1.896   1.228  1.00  0.00     0.167 HD
HETATM    9  C6  UNL     1       7.398   0.368  -0.117  1.00  0.00     0.120 A 
HETATM   10  C7  UNL     1       4.496   2.021   1.695  1.00  0.00     0.060 C 
HETATM   11  C8  UNL     1       3.201   1.976   0.878  1.00  0.00     0.036 C 
HETATM   12  C9  UNL     1       3.168   0.482   0.530  1.00  0.00     0.120 C 
ENDROOT
BRANCH   9  13
HETATM   13  N3  UNL     1       8.676   0.408  -0.249  1.00  0.00    -0.384 N 
ATOM     14  H32 UNL     1       9.185  -0.225  -0.865  1.00  0.00     0.157 HD
ATOM     15  H31 UNL     1       9.228   1.090   0.272  1.00  0.00     0.157 HD
ENDBRANCH   9  13
BRANCH  12  16
HETATM   16  N4  UNL     1       2.316   0.212  -0.581  1.00  0.00    -0.352 N 
HETATM   17  C10 UNL     1       1.206  -0.672  -0.526  1.00  0.00     0.218 C 
HETATM   18  O1  UNL     1       0.987  -1.228   0.563  1.00  0.00    -0.274 OA
ATOM     19  H4  UNL     1       2.515   0.680  -1.465  1.00  0.00     0.163 HD
BRANCH  17  20
HETATM   20  C11 UNL     1       0.374  -0.903  -1.700  1.00  0.00     0.115 C 
BRANCH  20  21
HETATM   21  C12 UNL     1      -0.955  -1.513  -1.551  1.00  0.00     0.117 C 
BRANCH  21  22
HETATM   22  S1  UNL     1      -2.197  -0.587  -0.707  1.00  0.00     0.010 S 
HETATM   23  O2  UNL     1      -2.411   0.668  -1.560  1.00  0.00    -0.259 OA
HETATM   24  S2  UNL     1      -1.690  -0.158   0.822  1.00  0.00     0.008 SA
BRANCH  22  25
HETATM   25  C13 UNL     1      -3.661  -1.580  -0.706  1.00  0.00     0.112 C 
BRANCH  25  26
HETATM   26  C14 UNL     1      -4.853  -1.017  -0.059  1.00  0.00    -0.003 C 
HETATM   27  C15 UNL     1      -4.758  -0.664   1.394  1.00  0.00     0.005 C 
HETATM   28  C16 UNL     1      -6.208  -0.375   1.832  1.00  0.00     0.000 C 
HETATM   29  C17 UNL     1      -6.649   0.955   1.289  1.00  0.00     0.000 C 
HETATM   30  C18 UNL     1      -5.748   1.313   0.130  1.00  0.00     0.000 C 
HETATM   31  C19 UNL     1      -5.485   0.144  -0.791  1.00  0.00     0.005 C 
ENDBRANCH  25  26
ENDBRANCH  22  25
ENDBRANCH  21  22
ENDBRANCH  20  21
ENDBRANCH  17  20
ENDBRANCH  12  16
TORSDOF 7
