REMARK  10 active torsions:
REMARK  status: ('A' for Active; 'I' for Inactive)
REMARK    1  A    between atoms: C2_2  and  C3_3 
REMARK    2  A    between atoms: C3_3  and  C4_4 
REMARK    3  A    between atoms: C3_3  and  C12_12 
REMARK    4  A    between atoms: C4_4  and  C5_5 
REMARK    5  A    between atoms: C5_5  and  C6_6 
REMARK    6  A    between atoms: C6_6  and  C7_7 
REMARK    7  A    between atoms: C7_7  and  C8_8 
REMARK    8  A    between atoms: C8_8  and  C9_9 
REMARK    9  A    between atoms: C12_12  and  N1_13 
REMARK   10  A    between atoms: N1_13  and  C13_16 
ROOT
HETATM    1  C3  UNL     1      -1.714  -1.147  -0.643  1.00  0.00     0.011 C 
ENDROOT
BRANCH   1   2
HETATM    2  C2  UNL     1      -2.852  -2.148  -0.565  1.00  0.00     0.002 C 
HETATM    3  C1  UNL     1      -2.411  -3.530  -0.998  1.00  0.00     0.005 C 
ENDBRANCH   1   2
BRANCH   1   4
HETATM    4  C4  UNL     1      -0.559  -1.536   0.218  1.00  0.00     0.006 C 
BRANCH   4   5
HETATM    5  C5  UNL     1       0.558  -0.534   0.108  1.00  0.00     0.000 C 
BRANCH   5   6
HETATM    6  C6  UNL     1       1.694  -1.026   0.995  1.00  0.00     0.000 C 
BRANCH   6   7
HETATM    7  C7  UNL     1       2.865  -0.069   0.951  1.00  0.00     0.000 C 
BRANCH   7   8
HETATM    8  C8  UNL     1       3.416   0.091  -0.443  1.00  0.00     0.004 C 
BRANCH   8   9
HETATM    9  C9  UNL     1       4.574   1.062  -0.380  1.00  0.00    -0.023 C 
HETATM   10  C10 UNL     1       4.066   2.399   0.147  1.00  0.00     0.009 C 
HETATM   11  C11 UNL     1       5.641   0.570   0.540  1.00  0.00     0.009 C 
ENDBRANCH   8   9
ENDBRANCH   7   8
ENDBRANCH   6   7
ENDBRANCH   5   6
ENDBRANCH   4   5
ENDBRANCH   1   4
BRANCH   1  12
HETATM   12  C12 UNL     1      -2.272   0.168  -0.161  1.00  0.00     0.237 C 
BRANCH  12  13
HETATM   13  N1  UNL     1      -3.390   0.581  -1.010  1.00  0.00    -0.071 N 
ATOM     14  H12 UNL     1      -3.177   0.570  -2.007  1.00  0.00     0.277 HD
ATOM     15  H11 UNL     1      -4.153  -0.095  -1.045  1.00  0.00     0.277 HD
BRANCH  13  16
HETATM   16  C13 UNL     1      -3.785   1.889  -0.507  1.00  0.00     0.186 A 
HETATM   17  C14 UNL     1      -4.310   2.068   0.860  1.00  0.00     0.035 A 
HETATM   18  C15 UNL     1      -5.243   2.105  -0.341  1.00  0.00     0.035 A 
ENDBRANCH  13  16
ENDBRANCH  12  13
ENDBRANCH   1  12
TORSDOF 10
