REMARK  6 active torsions:
REMARK  status: ('A' for Active; 'I' for Inactive)
REMARK    1  A    between atoms: C3_3  and  N1_4 
REMARK    2  A    between atoms: N1_4  and  N2_5 
REMARK    3  A    between atoms: N1_4  and  C4_8 
REMARK    4  A    between atoms: C4_8  and  C5_9 
REMARK    5  A    between atoms: C5_9  and  S1_10 
REMARK    6  A    between atoms: S1_10  and  C6_11 
ROOT
HETATM    1  C1  UNL     1       4.724   2.208   0.496  1.00  0.00     0.013 C 
HETATM    2  C2  UNL     1       4.430   1.071   0.218  1.00  0.00    -0.101 C 
HETATM    3  C3  UNL     1       4.101  -0.311  -0.123  1.00  0.00     0.205 C 
ENDROOT
BRANCH   3   4
HETATM    4  N1  UNL     1       2.776  -0.391  -0.706  1.00  0.00    -0.226 NA
BRANCH   4   5
HETATM    5  N2  UNL     1       2.525  -1.743  -1.056  1.00  0.00    -0.362 NA
ATOM      6  H22 UNL     1       3.196  -1.965  -1.791  1.00  0.00     0.171 HD
ATOM      7  H21 UNL     1       1.593  -1.799  -1.466  1.00  0.00     0.171 HD
ENDBRANCH   4   5
BRANCH   4   8
HETATM    8  C4  UNL     1       1.821  -0.075   0.340  1.00  0.00     0.124 C 
BRANCH   8   9
HETATM    9  C5  UNL     1       0.395  -0.184  -0.159  1.00  0.00     0.098 C 
BRANCH   9  10
HETATM   10  S1  UNL     1      -0.684   0.227   1.255  1.00  0.00    -0.092 SA
BRANCH  10  11
HETATM   11  C6  UNL     1      -2.406   0.090   0.823  1.00  0.00     0.160 A 
HETATM   12  N3  UNL     1      -3.097  -1.052   0.954  1.00  0.00    -0.332 N 
HETATM   13  C7  UNL     1      -4.394  -1.123   0.623  1.00  0.00     0.200 A 
ATOM     14  H3  UNL     1      -2.626  -1.883   1.313  1.00  0.00     0.168 HD
HETATM   15  N4  UNL     1      -5.055  -0.060   0.147  1.00  0.00    -0.188 N 
HETATM   16  C8  UNL     1      -4.351   1.081   0.021  1.00  0.00     0.678 A 
ATOM     17  H4  UNL     1      -6.041  -0.112  -0.107  1.00  0.00     0.185 HD
HETATM   18  N5  UNL     1      -4.938   2.162  -0.436  1.00  0.00    -0.234 N 
HETATM   19  N6  UNL     1      -3.049   1.167   0.349  1.00  0.00    -0.171 N 
ATOM     20  H52 UNL     1      -5.925   2.097  -0.685  1.00  0.00     0.174 HD
ATOM     21  H51 UNL     1      -4.405   3.026  -0.531  1.00  0.00     0.174 HD
ATOM     22  H6  UNL     1      -2.552   2.050   0.237  1.00  0.00     0.186 HD
ENDBRANCH  10  11
ENDBRANCH   9  10
ENDBRANCH   8   9
ENDBRANCH   4   8
ENDBRANCH   3   4
TORSDOF 6
