REMARK  8 active torsions:
REMARK  status: ('A' for Active; 'I' for Inactive)
REMARK    1  A    between atoms: C2_2  and  C3_3 
REMARK    2  A    between atoms: C2_2  and  C15_21 
REMARK    3  A    between atoms: C3_3  and  N1_4 
REMARK    4  A    between atoms: C3_3  and  C9_11 
REMARK    5  A    between atoms: N1_4  and  C4_6 
REMARK    6  A    between atoms: C4_6  and  C5_7 
REMARK    7  A    between atoms: C5_7  and  C6_8 
REMARK    8  A    between atoms: C9_11  and  O1_12 
REMARK       I    between atoms: N2_17  and  C13_18 
ROOT
HETATM    1  C3  UNL     1      -0.609   0.161   0.399  1.00  0.00     0.067 C 
ENDROOT
BRANCH   1   2
HETATM    2  C2  UNL     1      -1.217   1.475   0.180  1.00  0.00    -0.033 C 
HETATM    3  C1  UNL     1      -2.494   1.588  -0.265  1.00  0.00     0.022 C 
BRANCH   2   4
HETATM    4  C15 UNL     1      -0.510   2.770   0.332  1.00  0.00    -0.023 C 
HETATM    5  C16 UNL     1       0.569   3.067  -0.637  1.00  0.00     0.019 C 
HETATM    6  C17 UNL     1      -1.514   3.940   0.314  1.00  0.00     0.019 C 
HETATM    7  C18 UNL     1       0.115   2.875   1.735  1.00  0.00     0.019 C 
ENDBRANCH   2   4
ENDBRANCH   1   2
BRANCH   1   8
HETATM    8  N1  UNL     1       0.502  -0.136  -0.470  1.00  0.00    -0.389 N 
ATOM      9  H1  UNL     1       0.370  -0.295  -1.469  1.00  0.00     0.159 HD
BRANCH   8  10
HETATM   10  C4  UNL     1       1.788  -0.197   0.127  1.00  0.00     0.120 C 
BRANCH  10  11
HETATM   11  C5  UNL     1       2.791  -0.403  -1.027  1.00  0.00     0.023 C 
BRANCH  11  12
HETATM   12  C6  UNL     1       4.182  -0.531  -0.511  1.00  0.00    -0.021 C 
HETATM   13  C7  UNL     1       5.087  -0.715  -1.732  1.00  0.00     0.009 C 
HETATM   14  C8  UNL     1       4.364  -1.807   0.302  1.00  0.00     0.009 C 
ENDBRANCH  11  12
ENDBRANCH  10  11
ENDBRANCH   8  10
ENDBRANCH   1   8
BRANCH   1  15
HETATM   15  C9  UNL     1      -1.450  -1.011   0.654  1.00  0.00     0.180 C 
HETATM   16  C10 UNL     1      -2.357  -0.765   1.908  1.00  0.00     0.070 C 
HETATM   17  C11 UNL     1      -3.029  -2.123   1.944  1.00  0.00     0.025 C 
HETATM   18  C12 UNL     1      -3.424  -2.227   0.471  1.00  0.00     0.129 C 
HETATM   19  N2  UNL     1      -2.213  -1.718  -0.256  1.00  0.00    -0.315 N 
HETATM   20  C13 UNL     1      -2.069  -2.052  -1.609  1.00  0.00     0.218 C 
HETATM   21  C14 UNL     1      -3.073  -2.842  -2.392  1.00  0.00     0.117 C 
HETATM   22  O2  UNL     1      -1.076  -1.709  -2.270  1.00  0.00    -0.274 OA
BRANCH  15  23
HETATM   23  O1  UNL     1      -0.545  -2.000   1.232  1.00  0.00    -0.365 OA
ATOM     24  H1  UNL     1      -1.090  -2.760   1.397  1.00  0.00     0.213 HD
ENDBRANCH  15  23
ENDBRANCH   1  15
TORSDOF 8
