REMARK  8 active torsions:
REMARK  status: ('A' for Active; 'I' for Inactive)
REMARK    1  A    between atoms: C2_2  and  C3_3 
REMARK    2  A    between atoms: C3_3  and  C4_4 
REMARK    3  A    between atoms: C4_4  and  C5_5 
REMARK    4  A    between atoms: C5_5  and  C6_6 
REMARK    5  A    between atoms: C6_6  and  C7_7 
REMARK    6  A    between atoms: C9_12  and  C10_13 
REMARK    7  A    between atoms: C10_13  and  C11_14 
REMARK    8  A    between atoms: C21_30  and  C22_31 
ROOT
HETATM    1  C7  UNL     1       1.034  -0.334  -0.212  1.00  0.00     0.176 C 
HETATM    2  N1  UNL     1       1.148  -1.720  -0.657  1.00  0.00    -0.346 N 
ATOM      3  H1  UNL     1       2.078  -2.138  -0.661  1.00  0.00     0.163 HD
HETATM    4  C8  UNL     1       0.066  -2.528  -1.083  1.00  0.00     0.241 C 
HETATM    5  O1  UNL     1       0.252  -3.312  -2.050  1.00  0.00    -0.271 OA
HETATM    6  C9  UNL     1      -1.295  -2.542  -0.488  1.00  0.00     0.177 C 
HETATM    7  N2  UNL     1      -2.322  -2.739  -1.488  1.00  0.00    -0.348 N 
ATOM      8  H2  UNL     1      -2.231  -3.549  -2.102  1.00  0.00     0.163 HD
HETATM    9  C14 UNL     1      -3.431  -1.907  -1.680  1.00  0.00     0.218 C 
HETATM   10  O2  UNL     1      -4.336  -2.273  -2.509  1.00  0.00    -0.274 OA
HETATM   11  C15 UNL     1      -3.671  -0.606  -1.001  1.00  0.00     0.103 C 
HETATM   12  C16 UNL     1      -3.451   0.484  -2.023  1.00  0.00     0.009 C 
HETATM   13  C17 UNL     1      -4.031   1.804  -1.597  1.00  0.00     0.002 C 
HETATM   14  C18 UNL     1      -4.153   1.957  -0.111  1.00  0.00     0.020 C 
HETATM   15  C19 UNL     1      -2.906   2.500   0.538  1.00  0.00     0.122 C 
HETATM   16  N3  UNL     1      -2.266   3.461  -0.333  1.00  0.00    -0.359 N 
ATOM     17  H3  UNL     1      -2.801   4.290  -0.593  1.00  0.00     0.162 HD
HETATM   18  C20 UNL     1      -0.974   3.342  -0.845  1.00  0.00     0.240 C 
HETATM   19  O3  UNL     1      -0.701   3.764  -1.998  1.00  0.00    -0.271 OA
HETATM   20  C21 UNL     1       0.174   2.719  -0.090  1.00  0.00     0.176 C 
HETATM   21  N4  UNL     1       1.020   2.031  -1.046  1.00  0.00    -0.346 N 
ATOM     22  H4  UNL     1       1.674   2.595  -1.588  1.00  0.00     0.163 HD
HETATM   23  C24 UNL     1       1.007   0.643  -1.283  1.00  0.00     0.241 C 
HETATM   24  O4  UNL     1       0.968   0.255  -2.492  1.00  0.00    -0.271 OA
ENDROOT
BRANCH   1  25
HETATM   25  C6  UNL     1       1.991  -0.067   0.913  1.00  0.00     0.035 C 
BRANCH  25  26
HETATM   26  C5  UNL     1       3.430  -0.280   0.641  1.00  0.00     0.002 C 
BRANCH  26  27
HETATM   27  C4  UNL     1       4.045   0.545  -0.437  1.00  0.00     0.000 C 
BRANCH  27  28
HETATM   28  C3  UNL     1       5.526   0.194  -0.568  1.00  0.00    -0.000 C 
BRANCH  28  29
HETATM   29  C2  UNL     1       6.314   0.439   0.673  1.00  0.00    -0.005 C 
HETATM   30  C1  UNL     1       7.755   0.046   0.362  1.00  0.00     0.005 C 
ENDBRANCH  28  29
ENDBRANCH  27  28
ENDBRANCH  26  27
ENDBRANCH  25  26
ENDBRANCH   1  25
BRANCH   6  31
HETATM   31  C10 UNL     1      -1.331  -3.809   0.380  1.00  0.00     0.038 C 
BRANCH  31  32
HETATM   32  C11 UNL     1      -2.638  -4.000   1.070  1.00  0.00    -0.020 C 
HETATM   33  C12 UNL     1      -2.498  -5.297   1.879  1.00  0.00     0.009 C 
HETATM   34  C13 UNL     1      -2.978  -2.930   2.063  1.00  0.00     0.009 C 
ENDBRANCH  31  32
ENDBRANCH   6  31
BRANCH  20  35
HETATM   35  C22 UNL     1       0.919   3.917   0.516  1.00  0.00     0.030 C 
HETATM   36  C23 UNL     1       0.013   4.693   1.430  1.00  0.00     0.007 C 
ENDBRANCH  20  35
TORSDOF 8
