REMARK  9 active torsions:
REMARK  status: ('A' for Active; 'I' for Inactive)
REMARK    1  A    between atoms: N1_1  and  C1_4 
REMARK    2  A    between atoms: C2_7  and  N3_8 
REMARK    3  A    between atoms: N5_15  and  O3_16 
REMARK    4  A    between atoms: C7_23  and  C8_24 
REMARK    5  A    between atoms: C8_24  and  O5_25 
REMARK    6  A    between atoms: C8_24  and  C9_27 
REMARK    7  A    between atoms: C9_27  and  C10_28 
REMARK    8  A    between atoms: C10_28  and  N7_29 
REMARK    9  A    between atoms: N7_29  and  C11_31 
ROOT
HETATM    1  C1  UNL     1      -2.955  -1.785  -1.799  1.00  0.00     0.144 A 
HETATM    2  N2  UNL     1      -3.759  -1.057  -1.027  1.00  0.00    -0.173 N 
ATOM      3  H2  UNL     1      -4.760  -1.088  -1.219  1.00  0.00     0.186 HD
HETATM    4  C2  UNL     1      -3.338  -0.287  -0.015  1.00  0.00     0.710 A 
HETATM    5  N6  UNL     1      -2.036  -0.211   0.278  1.00  0.00    -0.186 N 
ATOM      6  H6  UNL     1      -1.707   0.373   1.047  1.00  0.00     0.184 HD
HETATM    7  C6  UNL     1      -1.163  -0.930  -0.472  1.00  0.00     0.093 A 
HETATM    8  C7  UNL     1       0.247  -1.029  -0.377  1.00  0.00     0.038 A 
HETATM    9  C16 UNL     1       0.587  -1.894  -1.389  1.00  0.00     0.104 A 
HETATM   10  N9  UNL     1      -0.526  -2.307  -2.068  1.00  0.00    -0.360 N 
ATOM     11  H9  UNL     1      -0.544  -2.949  -2.860  1.00  0.00     0.165 HD
HETATM   12  C17 UNL     1      -1.581  -1.720  -1.508  1.00  0.00     0.105 A 
ENDROOT
BRANCH   8  13
HETATM   13  C8  UNL     1       1.055  -0.327   0.609  1.00  0.00     0.058 C 
BRANCH  13  14
HETATM   14  O5  UNL     1       0.377   0.443   1.424  1.00  0.00    -0.364 OA
ATOM     15  H5  UNL     1       0.904   0.901   2.068  1.00  0.00     0.217 HD
ENDBRANCH  13  14
BRANCH  13  16
HETATM   16  C9  UNL     1       2.475  -0.328   0.850  1.00  0.00     0.084 C 
BRANCH  16  17
HETATM   17  C10 UNL     1       3.359  -1.168   0.009  1.00  0.00     0.126 C 
BRANCH  17  18
HETATM   18  N7  UNL     1       4.762  -1.043   0.383  1.00  0.00    -0.389 N 
ATOM     19  H7  UNL     1       5.243  -1.838   0.804  1.00  0.00     0.159 HD
BRANCH  18  20
HETATM   20  C11 UNL     1       5.463   0.162   0.170  1.00  0.00     0.030 A 
HETATM   21  C12 UNL     1       6.712   0.301   0.770  1.00  0.00     0.046 A 
HETATM   22  C13 UNL     1       7.479   1.428   0.614  1.00  0.00     0.089 A 
HETATM   23  N8  UNL     1       6.992   2.420  -0.148  1.00  0.00    -0.375 N 
HETATM   24  C14 UNL     1       5.798   2.349  -0.754  1.00  0.00     0.089 A 
ATOM     25  H8  UNL     1       7.553   3.263  -0.271  1.00  0.00     0.164 HD
HETATM   26  C15 UNL     1       5.030   1.214  -0.594  1.00  0.00     0.046 A 
ENDBRANCH  18  20
ENDBRANCH  17  18
ENDBRANCH  16  17
ENDBRANCH  13  16
ENDBRANCH   8  13
BRANCH   4  27
HETATM   27  N3  UNL     1      -4.327   0.449   0.738  1.00  0.00    -0.026 N 
HETATM   28  N4  UNL     1      -4.513   0.214   2.026  1.00  0.00    -0.236 N 
HETATM   29  C3  UNL     1      -5.439   0.896   2.752  1.00  0.00     0.331 A 
ATOM     30  H4  UNL     1      -3.947  -0.498   2.487  1.00  0.00     0.191 HD
HETATM   31  O1  UNL     1      -5.634   0.694   3.969  1.00  0.00    -0.260 OA
HETATM   32  C4  UNL     1      -6.204   1.857   2.127  1.00  0.00     0.345 A 
HETATM   33  O2  UNL     1      -7.084   2.532   2.736  1.00  0.00    -0.259 OA
HETATM   34  N5  UNL     1      -6.015   2.096   0.818  1.00  0.00    -0.127 N 
HETATM   35  C5  UNL     1      -5.086   1.393   0.151  1.00  0.00     0.390 A 
HETATM   36  O4  UNL     1      -4.861   1.575  -1.095  1.00  0.00    -0.241 OA
BRANCH  34  37
HETATM   37  O3  UNL     1      -6.731   3.034   0.119  1.00  0.00    -0.276 OA
ATOM     38  H3  UNL     1      -6.597   3.203  -0.806  1.00  0.00     0.245 HD
ENDBRANCH  34  37
ENDBRANCH   4  27
BRANCH   1  39
HETATM   39  N1  UNL     1      -3.343  -2.522  -2.764  1.00  0.00    -0.383 N 
ATOM     40  H12 UNL     1      -4.340  -2.569  -2.975  1.00  0.00     0.157 HD
ATOM     41  H11 UNL     1      -2.727  -3.080  -3.355  1.00  0.00     0.157 HD
ENDBRANCH   1  39
TORSDOF 9
