REMARK  6 active torsions:
REMARK  status: ('A' for Active; 'I' for Inactive)
REMARK    1  A    between atoms: C1_4  and  C2_6 
REMARK    2  A    between atoms: C7_11  and  O1_12 
REMARK    3  A    between atoms: O1_12  and  C8_13 
REMARK    4  A    between atoms: C8_13  and  C9_14 
REMARK    5  A    between atoms: C9_14  and  C10_15 
REMARK    6  A    between atoms: C10_15  and  N3_16 
REMARK       I    between atoms: N3_16  and  C11_18 
ROOT
HETATM    1  C2  UNL     1      -2.529  -1.147   0.100  1.00  0.00     0.038 A 
HETATM    2  C3  UNL     1      -3.822  -1.398   0.529  1.00  0.00     0.017 A 
HETATM    3  C4  UNL     1      -4.301  -0.930   1.735  1.00  0.00     0.001 A 
HETATM    4  C5  UNL     1      -3.443  -0.178   2.546  1.00  0.00     0.003 A 
HETATM    5  C6  UNL     1      -2.156   0.087   2.149  1.00  0.00     0.038 A 
HETATM    6  C7  UNL     1      -1.735  -0.404   0.939  1.00  0.00     0.082 A 
ENDROOT
BRANCH   6   7
HETATM    7  O1  UNL     1      -0.439  -0.130   0.551  1.00  0.00    -0.350 OA
BRANCH   7   8
HETATM    8  C8  UNL     1       0.442   0.624   1.352  1.00  0.00     0.177 C 
BRANCH   8   9
HETATM    9  C9  UNL     1       1.795   0.814   0.763  1.00  0.00     0.046 C 
BRANCH   9  10
HETATM   10  C10 UNL     1       1.775   1.532  -0.553  1.00  0.00     0.126 C 
BRANCH  10  11
HETATM   11  N3  UNL     1       3.079   1.722  -1.131  1.00  0.00    -0.345 N 
HETATM   12  C11 UNL     1       3.952   0.673  -1.479  1.00  0.00     0.328 C 
HETATM   13  N4  UNL     1       5.220   0.927  -2.042  1.00  0.00    -0.040 NA
HETATM   14  O2  UNL     1       3.596  -0.508  -1.286  1.00  0.00    -0.251 OA
ATOM     15  H3  UNL     1       3.391   2.678  -1.300  1.00  0.00     0.163 HD
ENDBRANCH  10  11
ENDBRANCH   9  10
ENDBRANCH   8   9
ENDBRANCH   7   8
ENDBRANCH   6   7
BRANCH   1  16
HETATM   16  C1  UNL     1      -2.077  -1.661  -1.168  1.00  0.00     0.123 C 
HETATM   17  N1  UNL     1      -2.855  -2.345  -1.910  1.00  0.00    -0.387 N 
ATOM     18  H12 UNL     1      -2.535  -2.709  -2.808  1.00  0.00     0.157 HD
ATOM     19  H11 UNL     1      -3.811  -2.531  -1.605  1.00  0.00     0.157 HD
HETATM   20  N2  UNL     1      -0.759  -1.405  -1.588  1.00  0.00    -0.082 NA
ENDBRANCH   1  16
TORSDOF 6
