REMARK  3 active torsions:
REMARK  status: ('A' for Active; 'I' for Inactive)
REMARK    1  A    between atoms: C2_2  and  O1_3 
REMARK    2  A    between atoms: O1_3  and  C3_4 
REMARK    3  A    between atoms: C3_4  and  C4_6 
ROOT
HETATM    1  C4  UNL     1       1.102   0.151  -0.240  1.00  0.00     0.120 A 
HETATM    2  S1  UNL     1       2.010   1.594  -0.248  1.00  0.00    -0.051 SA
HETATM    3  C5  UNL     1       3.566   0.899  -0.228  1.00  0.00     0.144 A 
HETATM    4  S2  UNL     1       5.049   1.650  -0.225  1.00  0.00    -0.052 SA
HETATM    5  N1  UNL     1       3.320  -0.411  -0.217  1.00  0.00    -0.332 N 
ATOM      6  H1  UNL     1       4.085  -1.086  -0.205  1.00  0.00     0.168 HD
HETATM    7  C6  UNL     1       2.069  -0.812  -0.222  1.00  0.00     0.138 A 
HETATM    8  C7  UNL     1       1.694  -2.233  -0.210  1.00  0.00     0.119 C 
HETATM    9  N2  UNL     1       1.392  -3.368  -0.183  1.00  0.00    -0.190 NA
ENDROOT
BRANCH   1  10
HETATM   10  C3  UNL     1      -0.371  -0.035  -0.250  1.00  0.00     0.303 C 
HETATM   11  O2  UNL     1      -0.850  -1.192  -0.241  1.00  0.00    -0.259 OA
BRANCH  10  12
HETATM   12  O1  UNL     1      -1.215   1.035  -0.267  1.00  0.00    -0.317 OA
BRANCH  12  13
HETATM   13  C2  UNL     1      -2.621   0.956  -0.278  1.00  0.00     0.174 C 
HETATM   14  C1  UNL     1      -3.187   0.251   0.912  1.00  0.00     0.034 C 
ENDBRANCH  12  13
ENDBRANCH  10  12
ENDBRANCH   1  10
TORSDOF 3
