REMARK  3 active torsions:
REMARK  status: ('A' for Active; 'I' for Inactive)
REMARK       I    between atoms: C1_2  and  N1_3 
REMARK    1  A    between atoms: C1_2  and  C10_13 
REMARK    2  A    between atoms: N1_3  and  C2_5 
REMARK    3  A    between atoms: C2_5  and  C3_6 
ROOT
HETATM    1  C2  UNL     1      -0.267   1.001  -0.354  1.00  0.00     0.127 C 
ENDROOT
BRANCH   1   2
HETATM    2  N1  UNL     1      -1.207   0.087   0.239  1.00  0.00    -0.360 N 
HETATM    3  C1  UNL     1      -2.567   0.175  -0.112  1.00  0.00     0.221 C 
HETATM    4  O1  UNL     1      -2.931   1.046  -0.934  1.00  0.00    -0.273 OA
ATOM      5  H1  UNL     1      -0.891  -0.617   0.906  1.00  0.00     0.162 HD
BRANCH   3   6
HETATM    6  C10 UNL     1      -3.550  -0.750   0.482  1.00  0.00     0.078 A 
HETATM    7  C11 UNL     1      -4.925  -0.179   0.787  1.00  0.00     0.015 A 
HETATM    8  C12 UNL     1      -4.727  -1.085  -0.368  1.00  0.00     0.015 A 
ENDBRANCH   3   6
ENDBRANCH   1   2
BRANCH   1   9
HETATM    9  C3  UNL     1       1.095   0.689   0.190  1.00  0.00     0.008 C 
HETATM   10  C4  UNL     1       2.162   1.614  -0.387  1.00  0.00     0.011 C 
HETATM   11  C5  UNL     1       3.269   0.635  -0.657  1.00  0.00    -0.014 C 
HETATM   12  C6  UNL     1       3.650   0.000   0.655  1.00  0.00     0.005 C 
HETATM   13  C9  UNL     1       2.456  -0.507  -1.291  1.00  0.00     0.010 C 
HETATM   14  C7  UNL     1       2.599  -1.062   0.951  1.00  0.00     0.005 C 
HETATM   15  C8  UNL     1       1.540  -0.716  -0.073  1.00  0.00    -0.009 C 
ENDBRANCH   1   9
TORSDOF 3
