REMARK  4 active torsions:
REMARK  status: ('A' for Active; 'I' for Inactive)
REMARK       I    between atoms: C1_4  and  N2_5 
REMARK       I    between atoms: C1_4  and  N4_15 
REMARK    1  A    between atoms: N2_5  and  N3_7 
REMARK    2  A    between atoms: C2_9  and  C3_10 
REMARK    3  A    between atoms: N4_15  and  N5_17 
REMARK    4  A    between atoms: N5_17  and  C7_19 
ROOT
HETATM    1  N1  UNL     1      -2.019  -2.079  -1.772  1.00  0.00    -0.232 N 
ATOM      2  H11 UNL     1      -2.655  -1.880  -2.544  1.00  0.00     0.174 HD
ATOM      3  H12 UNL     1      -1.463  -2.934  -1.763  1.00  0.00     0.174 HD
HETATM    4  C1  UNL     1      -1.963  -1.216  -0.838  1.00  0.00     0.705 C 
HETATM    5  N2  UNL     1      -1.063  -1.497   0.254  1.00  0.00    -0.132 N 
ATOM      6  H2  UNL     1      -1.301  -2.237   0.914  1.00  0.00     0.205 HD
HETATM    7  N4  UNL     1      -2.737  -0.027  -0.851  1.00  0.00    -0.129 N 
ATOM      8  H4  UNL     1      -2.968   0.407  -1.744  1.00  0.00     0.205 HD
ENDROOT
BRANCH   5   9
HETATM    9  N3  UNL     1       0.107  -0.795   0.431  1.00  0.00    -0.295 N 
HETATM   10  C2  UNL     1       1.187  -0.961  -0.214  1.00  0.00     0.144 C 
ATOM     11  H3  UNL     1       0.106  -0.071   1.150  1.00  0.00     0.186 HD
BRANCH  10  12
HETATM   12  C3  UNL     1       2.358  -0.142   0.075  1.00  0.00     0.091 A 
HETATM   13  C4  UNL     1       3.605  -0.232  -0.558  1.00  0.00     0.040 A 
HETATM   14  C5  UNL     1       4.421   0.709   0.007  1.00  0.00     0.027 A 
HETATM   15  C6  UNL     1       3.664   1.349   0.961  1.00  0.00     0.142 A 
HETATM   16  O1  UNL     1       2.479   0.811   0.954  1.00  0.00    -0.321 OA
ENDBRANCH  10  12
ENDBRANCH   5   9
BRANCH   7  17
HETATM   17  N5  UNL     1      -3.192   0.566   0.339  1.00  0.00    -0.263 N 
ATOM     18  H5  UNL     1      -3.205   0.017   1.199  1.00  0.00     0.190 HD
BRANCH  17  19
HETATM   19  C7  UNL     1      -3.633   1.912   0.366  1.00  0.00     0.369 C 
HETATM   20  O2  UNL     1      -3.680   2.704  -0.587  1.00  0.00    -0.282 OA
ENDBRANCH  17  19
ENDBRANCH   7  17
TORSDOF 4
