REMARK  11 active torsions:
REMARK  status: ('A' for Active; 'I' for Inactive)
REMARK    1  A    between atoms: C3_3  and  O1_4 
REMARK    2  A    between atoms: O1_4  and  C4_5 
REMARK    3  A    between atoms: C4_5  and  C5_6 
REMARK    4  A    between atoms: C5_6  and  C6_7 
REMARK    5  A    between atoms: C6_7  and  C7_8 
REMARK    6  A    between atoms: C7_8  and  C8_9 
REMARK    7  A    between atoms: C8_9  and  C9_10 
REMARK    8  A    between atoms: C9_10  and  C10_11 
REMARK    9  A    between atoms: C10_11  and  C11_12 
REMARK   10  A    between atoms: C11_12  and  C12_13 
REMARK   11  A    between atoms: C18_22  and  C19_23 
ROOT
HETATM    1  C1  UNL     1      -4.708  -0.251  -2.248  1.00  0.00     0.004 A 
HETATM    2  C2  UNL     1      -3.637  -0.191  -1.355  1.00  0.00     0.037 A 
HETATM    3  C3  UNL     1      -3.857   0.042  -0.016  1.00  0.00     0.069 A 
HETATM    4  C17 UNL     1      -5.184   0.217   0.433  1.00  0.00     0.050 A 
HETATM    5  C18 UNL     1      -6.243   0.161  -0.432  1.00  0.00    -0.004 A 
HETATM    6  C25 UNL     1      -5.988  -0.074  -1.769  1.00  0.00     0.014 A 
ENDROOT
BRANCH   3   7
HETATM    7  O1  UNL     1      -2.876   0.117   0.909  1.00  0.00    -0.351 OA
BRANCH   7   8
HETATM    8  C4  UNL     1      -1.510   0.027   0.887  1.00  0.00     0.175 C 
BRANCH   8   9
HETATM    9  C5  UNL     1      -0.750   1.040   0.114  1.00  0.00     0.027 C 
BRANCH   9  10
HETATM   10  C6  UNL     1       0.735   0.740   0.207  1.00  0.00     0.002 C 
BRANCH  10  11
HETATM   11  C7  UNL     1       1.291   0.766   1.590  1.00  0.00     0.000 C 
BRANCH  11  12
HETATM   12  C8  UNL     1       2.760   0.438   1.558  1.00  0.00     0.000 C 
BRANCH  12  13
HETATM   13  C9  UNL     1       3.505   1.429   0.743  1.00  0.00     0.000 C 
BRANCH  13  14
HETATM   14  C10 UNL     1       5.001   1.151   0.714  1.00  0.00     0.000 C 
BRANCH  14  15
HETATM   15  C11 UNL     1       5.303  -0.202   0.134  1.00  0.00     0.005 C 
BRANCH  15  16
HETATM   16  C12 UNL     1       6.791  -0.421   0.131  1.00  0.00    -0.011 C 
HETATM   17  C13 UNL     1       7.522   0.611  -0.685  1.00  0.00     0.032 C 
HETATM   18  C14 UNL     1       8.579   0.004  -1.564  1.00  0.00     0.232 C 
HETATM   19  N1  UNL     1       9.351  -0.970  -0.813  1.00  0.00    -0.075 N 
HETATM   20  C15 UNL     1       8.559  -2.108  -0.404  1.00  0.00     0.232 C 
ATOM     21  H12 UNL     1      10.176  -1.266  -1.335  1.00  0.00     0.277 HD
ATOM     22  H11 UNL     1       9.810  -0.536  -0.012  1.00  0.00     0.277 HD
HETATM   23  C16 UNL     1       7.071  -1.785  -0.467  1.00  0.00     0.032 C 
ENDBRANCH  15  16
ENDBRANCH  14  15
ENDBRANCH  13  14
ENDBRANCH  12  13
ENDBRANCH  11  12
ENDBRANCH  10  11
ENDBRANCH   9  10
ENDBRANCH   8   9
ENDBRANCH   7   8
ENDBRANCH   3   7
BRANCH   5  24
HETATM   24  C19 UNL     1      -7.630   0.336  -0.011  1.00  0.00     0.071 A 
HETATM   25  N2  UNL     1      -7.966   1.333   0.832  1.00  0.00    -0.363 N 
HETATM   26  C20 UNL     1      -9.236   1.535   1.250  1.00  0.00     0.090 A 
ATOM     27  H2  UNL     1      -7.234   1.959   1.167  1.00  0.00     0.165 HD
HETATM   28  C21 UNL     1     -10.275   0.726   0.835  1.00  0.00     0.049 A 
HETATM   29  C22 UNL     1      -9.967  -0.310  -0.033  1.00  0.00     0.063 A 
HETATM   30  N3  UNL     1     -10.740  -1.258  -0.611  1.00  0.00    -0.350 N 
HETATM   31  C24 UNL     1      -8.654  -0.485  -0.439  1.00  0.00     0.088 A 
HETATM   32  C23 UNL     1      -9.924  -2.018  -1.369  1.00  0.00     0.181 A 
ATOM     33  H3  UNL     1     -11.747  -1.375  -0.496  1.00  0.00     0.166 HD
HETATM   34  N4  UNL     1      -8.665  -1.549  -1.263  1.00  0.00    -0.349 N 
ATOM     35  H4  UNL     1      -7.848  -1.939  -1.734  1.00  0.00     0.167 HD
ENDBRANCH   5  24
TORSDOF 11
