REMARK  13 active torsions:
REMARK  status: ('A' for Active; 'I' for Inactive)
REMARK    1  A    between atoms: N1_1  and  C1_4 
REMARK    2  A    between atoms: C3_8  and  C4_9 
REMARK       I    between atoms: C4_9  and  N3_11 
REMARK    3  A    between atoms: N3_11  and  C5_13 
REMARK    4  A    between atoms: C6_18  and  C7_19 
REMARK    5  A    between atoms: C7_19  and  C8_20 
REMARK    6  A    between atoms: C8_20  and  S1_21 
REMARK    7  A    between atoms: S1_21  and  C9_22 
REMARK    8  A    between atoms: C9_22  and  C10_23 
REMARK    9  A    between atoms: C10_23  and  C11_24 
REMARK   10  A    between atoms: N7_32  and  C16_33 
REMARK   11  A    between atoms: C16_33  and  O2_34 
REMARK   12  A    between atoms: O2_34  and  C17_35 
REMARK   13  A    between atoms: C17_35  and  C18_36 
ROOT
HETATM    1  C5  UNL     1      -2.263  -0.690  -0.103  1.00  0.00     0.705 A 
HETATM    2  N4  UNL     1      -1.456   0.049  -0.897  1.00  0.00    -0.130 N 
ATOM      3  H4  UNL     1      -1.749   0.748  -1.579  1.00  0.00     0.205 HD
HETATM    4  N5  UNL     1      -0.229  -0.304  -0.623  1.00  0.00    -0.274 N 
ATOM      5  H5  UNL     1       0.590   0.098  -1.080  1.00  0.00     0.189 HD
HETATM    6  C6  UNL     1      -0.161  -1.250   0.321  1.00  0.00     0.117 A 
HETATM    7  N7  UNL     1      -1.471  -1.481   0.636  1.00  0.00    -0.147 N 
ENDROOT
BRANCH   1   8
HETATM    8  N3  UNL     1      -3.549  -0.646  -0.035  1.00  0.00    -0.153 N 
HETATM    9  C4  UNL     1      -4.288   0.243  -0.842  1.00  0.00     0.278 C 
HETATM   10  O1  UNL     1      -4.896  -0.159  -1.842  1.00  0.00    -0.266 OA
ATOM     11  H3  UNL     1      -4.039  -1.263   0.612  1.00  0.00     0.187 HD
BRANCH   9  12
HETATM   12  C3  UNL     1      -4.311   1.670  -0.453  1.00  0.00     0.092 A 
HETATM   13  C2  UNL     1      -4.958   2.703  -1.081  1.00  0.00     0.115 A 
HETATM   14  N2  UNL     1      -4.844   3.895  -0.564  1.00  0.00    -0.345 N 
HETATM   15  C1  UNL     1      -4.112   4.046   0.538  1.00  0.00     0.142 A 
ATOM     16  H2  UNL     1      -5.306   4.695  -0.995  1.00  0.00     0.167 HD
HETATM   17  S2  UNL     1      -3.566   2.464   0.859  1.00  0.00    -0.048 SA
BRANCH  15  18
HETATM   18  N1  UNL     1      -3.865   5.141   1.220  1.00  0.00    -0.380 N 
ATOM     19  H12 UNL     1      -4.192   6.088   1.028  1.00  0.00     0.158 HD
ATOM     20  H11 UNL     1      -3.304   5.257   2.064  1.00  0.00     0.158 HD
ENDBRANCH  15  18
ENDBRANCH   9  12
ENDBRANCH   1   8
BRANCH   7  21
HETATM   21  C16 UNL     1      -1.892  -2.469   1.604  1.00  0.00     0.318 C 
BRANCH  21  22
HETATM   22  O2  UNL     1      -1.949  -3.708   1.040  1.00  0.00    -0.370 OA
BRANCH  22  23
HETATM   23  C17 UNL     1      -2.782  -3.872  -0.038  1.00  0.00     0.180 C 
BRANCH  23  24
HETATM   24  C18 UNL     1      -2.675  -5.364  -0.424  1.00  0.00     0.111 C 
HETATM   25 BR2  UNL     1      -3.788  -5.761  -1.927  1.00  0.00    -0.094 Br
ENDBRANCH  23  24
ENDBRANCH  22  23
ENDBRANCH  21  22
ENDBRANCH   7  21
BRANCH   6  26
HETATM   26  C7  UNL     1       0.950  -1.956   0.946  1.00  0.00     0.089 C 
BRANCH  26  27
HETATM   27  C8  UNL     1       2.338  -1.551   0.689  1.00  0.00     0.081 C 
BRANCH  27  28
HETATM   28  S1  UNL     1       2.876  -0.015   1.326  1.00  0.00    -0.168 SA
BRANCH  28  29
HETATM   29  C9  UNL     1       2.342   1.517   0.680  1.00  0.00     0.080 C 
BRANCH  29  30
HETATM   30  C10 UNL     1       2.828   1.762  -0.745  1.00  0.00     0.067 C 
BRANCH  30  31
HETATM   31  C11 UNL     1       4.315   1.763  -0.790  1.00  0.00     0.009 A 
HETATM   32  C12 UNL     1       5.019   0.620  -1.011  1.00  0.00     0.026 A 
HETATM   33  C13 UNL     1       6.407   0.666  -1.044  1.00  0.00     0.022 A 
HETATM   34  C14 UNL     1       7.071   1.841  -0.856  1.00  0.00     0.026 A 
HETATM   35 BR1  UNL     1       8.975   1.941  -0.893  1.00  0.00    -0.050 Br
HETATM   36  C15 UNL     1       6.322   2.982  -0.634  1.00  0.00     0.107 A 
HETATM   37  N6  UNL     1       4.984   2.920  -0.606  1.00  0.00    -0.368 N 
ATOM     38  H6  UNL     1       4.454   3.775  -0.440  1.00  0.00     0.165 HD
ENDBRANCH  30  31
ENDBRANCH  29  30
ENDBRANCH  28  29
ENDBRANCH  27  28
ENDBRANCH  26  27
ENDBRANCH   6  26
TORSDOF 13
