REMARK  14 active torsions:
REMARK  status: ('A' for Active; 'I' for Inactive)
REMARK    1  A    between atoms: N1_1  and  C1_5 
REMARK    2  A    between atoms: C1_5  and  C2_6 
REMARK       I    between atoms: C2_6  and  N2_8 
REMARK    3  A    between atoms: N2_8  and  C3_10 
REMARK    4  A    between atoms: C3_10  and  C4_11 
REMARK    5  A    between atoms: C5_13  and  N3_14 
REMARK    6  A    between atoms: N4_16  and  N5_18 
REMARK    7  A    between atoms: N5_18  and  C6_20 
REMARK    8  A    between atoms: C7_23  and  N7_24 
REMARK    9  A    between atoms: C8_31  and  C9_32 
REMARK   10  A    between atoms: C11_37  and  N10_38 
REMARK   11  A    between atoms: N10_38  and  C12_40 
REMARK   12  A    between atoms: C13_44  and  O4_45 
REMARK   13  A    between atoms: C14_48  and  O6_49 
REMARK   14  A    between atoms: C15_51  and  O7_52 
ROOT
HETATM    1  C4  UNL     1      -3.387  -0.140   0.023  1.00  0.00     0.173 C 
HETATM    2  O2  UNL     1      -2.332  -0.297   0.918  1.00  0.00    -0.354 OA
HETATM    3  C5  UNL     1      -1.300   0.609   0.653  1.00  0.00     0.263 C 
HETATM    4  C11 UNL     1      -1.832   1.963   0.991  1.00  0.00     0.162 C 
HETATM    5  C14 UNL     1      -2.873   2.337  -0.045  1.00  0.00     0.176 C 
HETATM    6  C15 UNL     1      -3.922   1.272  -0.030  1.00  0.00     0.179 C 
ENDROOT
BRANCH   3   7
HETATM    7  N3  UNL     1      -0.830   0.485  -0.710  1.00  0.00    -0.291 N 
HETATM    8  N4  UNL     1       0.013  -0.348  -1.096  1.00  0.00    -0.243 N 
ATOM      9  H4  UNL     1       0.246  -0.316  -2.088  1.00  0.00     0.208 HD
ATOM     10  H3  UNL     1      -1.216   1.125  -1.404  1.00  0.00     0.184 HD
BRANCH   8  11
HETATM   11  N5  UNL     1       0.670  -1.305  -0.358  1.00  0.00    -0.266 N 
ATOM     12  H5  UNL     1       0.156  -2.002   0.182  1.00  0.00     0.190 HD
BRANCH  11  13
HETATM   13  C6  UNL     1       2.106  -1.287  -0.376  1.00  0.00     0.159 C 
HETATM   14  N6  UNL     1       2.717  -2.194  -1.019  1.00  0.00    -0.320 N 
HETATM   15  C7  UNL     1       4.097  -2.476  -1.244  1.00  0.00     0.485 C 
ATOM     16  H6  UNL     1       2.090  -2.861  -1.469  1.00  0.00     0.165 HD
HETATM   17  N8  UNL     1       4.916  -1.312  -1.468  1.00  0.00    -0.016 N 
HETATM   18  C8  UNL     1       5.288  -0.687  -0.230  1.00  0.00     0.288 C 
ATOM     19  H82 UNL     1       5.734  -1.534  -2.035  1.00  0.00     0.282 HD
ATOM     20  H81 UNL     1       4.462  -0.651  -2.099  1.00  0.00     0.282 HD
HETATM   21  C10 UNL     1       4.430   0.541  -0.045  1.00  0.00     0.125 C 
HETATM   22  S1  UNL     1       2.790   0.066   0.547  1.00  0.00    -0.090 SA
BRANCH  15  23
HETATM   23  N7  UNL     1       4.712  -3.273  -0.219  1.00  0.00    -0.033 N 
ATOM     24  H73 UNL     1       4.581  -2.840   0.695  1.00  0.00     0.278 HD
ATOM     25  H72 UNL     1       4.190  -4.138  -0.079  1.00  0.00     0.278 HD
ATOM     26  H71 UNL     1       5.699  -3.475  -0.380  1.00  0.00     0.278 HD
ENDBRANCH  15  23
BRANCH  18  27
HETATM   27  C9  UNL     1       6.728  -0.387  -0.188  1.00  0.00     0.263 C 
HETATM   28  N9  UNL     1       7.268   0.230   0.953  1.00  0.00    -0.060 NA
HETATM   29  O3  UNL     1       7.522  -0.656  -1.133  1.00  0.00    -0.275 OA
ENDBRANCH  18  27
ENDBRANCH  11  13
ENDBRANCH   8  11
ENDBRANCH   3   7
BRANCH   4  30
HETATM   30  N10 UNL     1      -0.882   2.970   1.285  1.00  0.00    -0.363 N 
ATOM     31  H10 UNL     1      -0.852   3.408   2.206  1.00  0.00     0.158 HD
BRANCH  30  32
HETATM   32  C12 UNL     1       0.026   3.354   0.268  1.00  0.00     0.434 C 
HETATM   33  N11 UNL     1       0.897   4.423   0.797  1.00  0.00     0.019 N 
HETATM   34  C13 UNL     1      -0.255   5.255   0.417  1.00  0.00     0.475 C 
ATOM     35 2H11 UNL     1       1.304   4.412   1.732  1.00  0.00     0.288 HD
ATOM     36 1H11 UNL     1       1.849   4.591   0.472  1.00  0.00     0.288 HD
HETATM   37  O5  UNL     1      -0.450   4.331  -0.635  1.00  0.00    -0.289 OA
BRANCH  34  38
HETATM   38  O4  UNL     1       0.084   6.502  -0.061  1.00  0.00    -0.349 OA
ATOM     39  H4  UNL     1      -0.660   7.039  -0.306  1.00  0.00     0.214 HD
ENDBRANCH  34  38
ENDBRANCH  30  32
ENDBRANCH   4  30
BRANCH   1  40
HETATM   40  C3  UNL     1      -4.519  -1.000   0.543  1.00  0.00     0.157 C 
BRANCH  40  41
HETATM   41  N2  UNL     1      -4.221  -2.384   0.655  1.00  0.00    -0.357 N 
HETATM   42  C2  UNL     1      -3.854  -3.209  -0.424  1.00  0.00     0.243 C 
HETATM   43  O1  UNL     1      -3.777  -2.727  -1.576  1.00  0.00    -0.272 OA
ATOM     44  H2  UNL     1      -4.277  -2.809   1.581  1.00  0.00     0.162 HD
BRANCH  42  45
HETATM   45  C1  UNL     1      -3.545  -4.651  -0.276  1.00  0.00     0.331 C 
BRANCH  45  46
HETATM   46  N1  UNL     1      -3.669  -5.084   1.094  1.00  0.00    -0.071 N 
ATOM     47  H13 UNL     1      -3.097  -4.515   1.718  1.00  0.00     0.274 HD
ATOM     48  H12 UNL     1      -4.589  -4.860   1.473  1.00  0.00     0.274 HD
ATOM     49  H11 UNL     1      -3.456  -6.076   1.196  1.00  0.00     0.274 HD
ENDBRANCH  45  46
ENDBRANCH  42  45
ENDBRANCH  40  41
ENDBRANCH   1  40
BRANCH   5  50
HETATM   50  O6  UNL     1      -3.508   3.542   0.335  1.00  0.00    -0.391 OA
ATOM     51  H6  UNL     1      -4.161   3.776  -0.314  1.00  0.00     0.210 HD
ENDBRANCH   5  50
BRANCH   6  52
HETATM   52  O7  UNL     1      -4.714   1.336  -1.200  1.00  0.00    -0.390 OA
ATOM     53  H7  UNL     1      -5.050   2.224  -1.233  1.00  0.00     0.210 HD
ENDBRANCH   6  52
TORSDOF 14
