REMARK  5 active torsions:
REMARK  status: ('A' for Active; 'I' for Inactive)
REMARK    1  A    between atoms: N1_1  and  C1_4 
REMARK    2  A    between atoms: N4_10  and  C3_11 
REMARK    3  A    between atoms: C3_11  and  C4_12 
REMARK    4  A    between atoms: C4_12  and  N6_14 
REMARK    5  A    between atoms: N6_14  and  N7_16 
ROOT
HETATM    1  C1  UNL     1      -3.804   0.760   0.098  1.00  0.00     0.680 A 
HETATM    2  N2  UNL     1      -2.685   1.226  -0.486  1.00  0.00    -0.174 N 
ATOM      3  H2  UNL     1      -2.748   2.080  -1.041  1.00  0.00     0.186 HD
HETATM    4  C2  UNL     1      -1.490   0.625  -0.376  1.00  0.00     0.152 A 
HETATM    5  N3  UNL     1      -0.236   0.819  -0.813  1.00  0.00    -0.282 N 
ATOM      6  H3  UNL     1       0.055   1.597  -1.405  1.00  0.00     0.189 HD
HETATM    7  N4  UNL     1       0.571  -0.128  -0.376  1.00  0.00    -0.294 N 
HETATM    8  C5  UNL     1      -0.136  -1.009   0.385  1.00  0.00     0.131 A 
HETATM    9  C6  UNL     1      -1.448  -0.595   0.429  1.00  0.00     0.095 A 
HETATM   10  C7  UNL     1      -2.604  -1.054   1.018  1.00  0.00     0.275 A 
HETATM   11  O1  UNL     1      -2.589  -2.113   1.722  1.00  0.00    -0.267 OA
HETATM   12  N8  UNL     1      -3.747  -0.365   0.836  1.00  0.00    -0.155 N 
ATOM     13  H8  UNL     1      -4.602  -0.708   1.274  1.00  0.00     0.187 HD
ENDROOT
BRANCH   7  14
HETATM   14  C3  UNL     1       1.998  -0.290  -0.616  1.00  0.00     0.222 C 
BRANCH  14  15
HETATM   15  C4  UNL     1       2.800   0.402   0.420  1.00  0.00     0.127 C 
HETATM   16  N5  UNL     1       2.668   1.802   0.600  1.00  0.00    -0.084 NA
BRANCH  15  17
HETATM   17  N6  UNL     1       3.623  -0.240   1.170  1.00  0.00    -0.296 N 
ATOM     18  H6  UNL     1       4.153   0.280   1.870  1.00  0.00     0.187 HD
BRANCH  17  19
HETATM   19  N7  UNL     1       3.824  -1.619   1.069  1.00  0.00    -0.344 N 
ATOM     20  H72 UNL     1       3.286  -2.123   0.364  1.00  0.00     0.176 HD
ATOM     21  H71 UNL     1       4.477  -2.128   1.664  1.00  0.00     0.176 HD
ENDBRANCH  17  19
ENDBRANCH  15  17
ENDBRANCH  14  15
ENDBRANCH   7  14
BRANCH   1  22
HETATM   22  N1  UNL     1      -4.953   1.375  -0.033  1.00  0.00    -0.234 N 
ATOM     23  H12 UNL     1      -4.996   2.227  -0.592  1.00  0.00     0.174 HD
ATOM     24  H11 UNL     1      -5.801   1.022   0.410  1.00  0.00     0.174 HD
ENDBRANCH   1  22
TORSDOF 5
