REMARK  1 active torsions:
REMARK  status: ('A' for Active; 'I' for Inactive)
REMARK       I    between atoms: N1_2  and  C2_4 
REMARK       I    between atoms: C2_4  and  N2_6 
REMARK    1  A    between atoms: N6_13  and  N7_14 
ROOT
HETATM    1  C1  UNL     1       3.834  -0.008   0.410  1.00  0.00     0.151 C 
HETATM    2  N1  UNL     1       2.474   0.312   0.787  1.00  0.00    -0.347 N 
ATOM      3  H1  UNL     1       2.233   0.518   1.756  1.00  0.00     0.163 HD
HETATM    4  C2  UNL     1       1.487   0.331  -0.229  1.00  0.00     0.322 C 
HETATM    5  O1  UNL     1       1.803   0.074  -1.415  1.00  0.00    -0.247 OA
HETATM    6  N2  UNL     1       0.166   0.648   0.176  1.00  0.00    -0.277 N 
ATOM      7  H2  UNL     1       0.037   1.508   0.708  1.00  0.00     0.173 HD
HETATM    8  C3  UNL     1      -0.863  -0.040  -0.064  1.00  0.00     0.235 C 
HETATM    9  N3  UNL     1      -0.947  -1.263  -0.776  1.00  0.00    -0.254 N 
ATOM     10  H3  UNL     1      -0.183  -1.892  -1.024  1.00  0.00     0.187 HD
HETATM   11  N4  UNL     1      -2.314  -1.419  -1.065  1.00  0.00    -0.004 NA
HETATM   12  N5  UNL     1      -2.995  -0.899   0.042  1.00  0.00     0.017 NA
HETATM   13  N6  UNL     1      -2.197   0.245   0.324  1.00  0.00    -0.153 N 
ENDROOT
BRANCH  13  14
HETATM   14  N7  UNL     1      -2.603   1.459   0.883  1.00  0.00    -0.323 N 
ATOM     15  H72 UNL     1      -2.031   2.279   1.085  1.00  0.00     0.178 HD
ATOM     16  H71 UNL     1      -3.562   1.664   1.162  1.00  0.00     0.178 HD
ENDBRANCH  13  14
TORSDOF 1
