REMARK  3 active torsions:
REMARK  status: ('A' for Active; 'I' for Inactive)
REMARK    1  A    between atoms: N1_2  and  S1_4 
REMARK    2  A    between atoms: S1_4  and  N2_7 
REMARK       I    between atoms: N2_7  and  C2_9 
REMARK       I    between atoms: C2_9  and  N4_13 
REMARK    3  A    between atoms: N4_13  and  N5_15 
ROOT
HETATM    1  N2  UNL     1       0.181  -0.727  -0.334  1.00  0.00    -0.099 N 
ATOM      2  H2  UNL     1      -0.089  -1.503  -0.939  1.00  0.00     0.199 HD
HETATM    3  C2  UNL     1       1.378  -0.007  -0.595  1.00  0.00     0.700 C 
HETATM    4  N3  UNL     1       1.282   1.147  -1.150  1.00  0.00    -0.233 N 
ATOM      5  H31 UNL     1       2.141   1.664  -1.337  1.00  0.00     0.174 HD
ATOM      6  H32 UNL     1       0.372   1.536  -1.398  1.00  0.00     0.174 HD
HETATM    7  N4  UNL     1       2.647  -0.550  -0.249  1.00  0.00    -0.138 N 
ATOM      8  H4  UNL     1       3.020  -1.313  -0.815  1.00  0.00     0.205 HD
ENDROOT
BRANCH   1   9
HETATM    9  S1  UNL     1      -0.807  -0.294   0.994  1.00  0.00     0.332 S 
HETATM   10  O1  UNL     1      -1.412  -1.524   1.607  1.00  0.00    -0.182 OA
HETATM   11  O2  UNL     1       0.073   0.332   2.066  1.00  0.00    -0.182 OA
BRANCH   9  12
HETATM   12  N1  UNL     1      -1.969   0.867   0.544  1.00  0.00    -0.307 N 
HETATM   13  C1  UNL     1      -3.206   0.286   0.078  1.00  0.00     0.161 C 
ATOM     14  H1  UNL     1      -1.807   1.873   0.598  1.00  0.00     0.173 HD
ENDBRANCH   9  12
ENDBRANCH   1   9
BRANCH   7  15
HETATM   15  N5  UNL     1       3.393  -0.096   0.810  1.00  0.00    -0.331 N 
ATOM     16  H52 UNL     1       3.005   0.667   1.365  1.00  0.00     0.177 HD
ATOM     17  H51 UNL     1       4.303  -0.485   1.058  1.00  0.00     0.177 HD
ENDBRANCH   7  15
TORSDOF 3
