REMARK  3 active torsions:
REMARK  status: ('A' for Active; 'I' for Inactive)
REMARK    1  A    between atoms: N1_1  and  O1_4 
REMARK    2  A    between atoms: O1_4  and  N2_5 
REMARK       I    between atoms: N2_5  and  C1_7 
REMARK       I    between atoms: C1_7  and  N3_9 
REMARK    3  A    between atoms: N3_9  and  C2_11 
ROOT
HETATM    1  N2  UNL     1       2.350   0.168  -1.112  1.00  0.00    -0.191 N 
ATOM      2  H2  UNL     1       2.103   0.766  -1.901  1.00  0.00     0.201 HD
HETATM    3  C1  UNL     1       1.283  -0.268  -0.195  1.00  0.00     0.360 C 
HETATM    4  O2  UNL     1       1.682  -0.995   0.735  1.00  0.00    -0.244 OA
HETATM    5  N3  UNL     1       0.029   0.111  -0.406  1.00  0.00    -0.138 N 
ATOM      6  H3  UNL     1       0.124   0.924  -1.015  1.00  0.00     0.189 HD
ENDROOT
BRANCH   5   7
HETATM    7  C2  UNL     1      -1.182   0.003  -0.258  1.00  0.00     0.705 A 
HETATM    8  N4  UNL     1      -1.903  -0.901   0.460  1.00  0.00    -0.128 N 
HETATM    9  N5  UNL     1      -3.187  -0.674   0.307  1.00  0.00    -0.237 N 
ATOM     10  H4  UNL     1      -1.504  -1.645   1.033  1.00  0.00     0.205 HD
HETATM   11  C3  UNL     1      -3.368   0.368  -0.507  1.00  0.00     0.353 A 
ATOM     12  H5  UNL     1      -3.934  -1.213   0.745  1.00  0.00     0.192 HD
HETATM   13  O3  UNL     1      -4.499   0.829  -0.849  1.00  0.00    -0.245 OA
HETATM   14  N6  UNL     1      -2.156   0.787  -0.854  1.00  0.00    -0.138 N 
ATOM     15  H6  UNL     1      -1.969   1.576  -1.473  1.00  0.00     0.189 HD
ENDBRANCH   5   7
BRANCH   1  16
HETATM   16  O1  UNL     1       3.630  -0.188  -0.952  1.00  0.00    -0.160 OA
BRANCH  16  17
HETATM   17  N1  UNL     1       4.172   0.548   0.033  1.00  0.00    -0.286 N 
ATOM     18  H12 UNL     1       3.674   1.261   0.565  1.00  0.00     0.186 HD
ATOM     19  H11 UNL     1       5.148   0.277   0.155  1.00  0.00     0.186 HD
ENDBRANCH  16  17
ENDBRANCH   1  16
TORSDOF 3
