REMARK  6 active torsions:
REMARK  status: ('A' for Active; 'I' for Inactive)
REMARK    1  A    between atoms: C2_2  and  C3_3 
REMARK    2  A    between atoms: C4_4  and  C5_5 
REMARK    3  A    between atoms: C7_10  and  N2_11 
REMARK    4  A    between atoms: N2_11  and  N3_13 
REMARK    5  A    between atoms: C9_20  and  C10_21 
REMARK    6  A    between atoms: C10_21  and  C11_22 
ROOT
HETATM    1  C5  UNL     1      -0.651  -1.251  -0.118  1.00  0.00     0.075 A 
HETATM    2  C6  UNL     1       0.086  -2.335  -0.593  1.00  0.00     0.116 A 
HETATM    3 BR1  UNL     1      -0.865  -3.815  -1.317  1.00  0.00    -0.029 Br
HETATM    4  N1  UNL     1       1.416  -2.341  -0.544  1.00  0.00    -0.182 N 
ATOM      5  H1  UNL     1       1.952  -3.136  -0.893  1.00  0.00     0.185 HD
HETATM    6  C7  UNL     1       2.035  -1.258  -0.016  1.00  0.00     0.698 A 
HETATM    7  N6  UNL     1       1.337  -0.205   0.446  1.00  0.00    -0.193 N 
ATOM      8  H6  UNL     1       1.847   0.588   0.835  1.00  0.00     0.184 HD
HETATM    9  C9  UNL     1      -0.006  -0.156   0.416  1.00  0.00     0.048 A 
ENDROOT
BRANCH   6  10
HETATM   10  N2  UNL     1       3.322  -1.292   0.020  1.00  0.00    -0.130 N 
ATOM     11  H2  UNL     1       3.780  -2.126  -0.349  1.00  0.00     0.205 HD
BRANCH  10  12
HETATM   12  N3  UNL     1       4.129  -0.294   0.516  1.00  0.00    -0.262 N 
HETATM   13  C8  UNL     1       5.344  -0.091   0.180  1.00  0.00     0.216 C 
HETATM   14  N4  UNL     1       5.954  -0.935  -0.778  1.00  0.00    -0.065 NA
HETATM   15  N5  UNL     1       6.104   0.962   0.743  1.00  0.00    -0.065 NA
ATOM     16  H3  UNL     1       3.723   0.335   1.209  1.00  0.00     0.190 HD
ENDBRANCH  10  12
ENDBRANCH   6  10
BRANCH   9  17
HETATM   17  C10 UNL     1      -0.749   1.020   0.928  1.00  0.00     0.063 C 
BRANCH  17  18
HETATM   18  C11 UNL     1      -1.265   1.919  -0.169  1.00  0.00    -0.017 C 
HETATM   19  C12 UNL     1      -0.140   2.465  -1.023  1.00  0.00     0.010 C 
HETATM   20  C13 UNL     1      -1.970   3.100   0.462  1.00  0.00     0.010 C 
ENDBRANCH  17  18
ENDBRANCH   9  17
BRANCH   1  21
HETATM   21  C4  UNL     1      -2.089  -1.300  -0.189  1.00  0.00    -0.062 C 
HETATM   22  C3  UNL     1      -3.305  -1.352  -0.230  1.00  0.00    -0.101 C 
BRANCH  22  23
HETATM   23  C2  UNL     1      -4.767  -1.432  -0.274  1.00  0.00     0.090 C 
HETATM   24  C1  UNL     1      -5.150  -2.749   0.368  1.00  0.00     0.018 C 
ENDBRANCH  22  23
ENDBRANCH   1  21
TORSDOF 6
