REMARK  9 active torsions:
REMARK  status: ('A' for Active; 'I' for Inactive)
REMARK    1  A    between atoms: N1_1  and  C1_4 
REMARK    2  A    between atoms: C2_7  and  C3_8 
REMARK    3  A    between atoms: C3_8  and  O1_9 
REMARK    4  A    between atoms: C6_14  and  N4_15 
REMARK    5  A    between atoms: C8_23  and  C9_24 
REMARK    6  A    between atoms: C9_24  and  N7_25 
REMARK    7  A    between atoms: C9_24  and  C10_29 
REMARK    8  A    between atoms: C11_36  and  N12_37 
REMARK    9  A    between atoms: N12_37  and  N13_39 
REMARK       I    between atoms: N14_41  and  C12_43 
ROOT
HETATM    1  C1  UNL     1      -1.183  -0.493  -2.933  1.00  0.00     0.677 A 
HETATM    2  N2  UNL     1       0.033  -0.391  -2.400  1.00  0.00    -0.190 N 
ATOM      3  H2  UNL     1       0.829  -0.402  -3.038  1.00  0.00     0.184 HD
HETATM    4  C2  UNL     1       0.301  -0.271  -1.045  1.00  0.00     0.096 A 
HETATM    5  C8  UNL     1      -0.822  -0.270  -0.272  1.00  0.00     0.054 A 
HETATM    6  C11 UNL     1      -2.119  -0.378  -0.856  1.00  0.00     0.147 A 
HETATM    7  N16 UNL     1      -2.280  -0.487  -2.169  1.00  0.00    -0.175 N 
ATOM      8  H16 UNL     1      -3.210  -0.564  -2.581  1.00  0.00     0.186 HD
ENDROOT
BRANCH   4   9
HETATM    9  C3  UNL     1       1.635  -0.082  -0.609  1.00  0.00     0.196 C 
HETATM   10  C4  UNL     1       2.204   1.251  -0.293  1.00  0.00     0.199 C 
HETATM   11  N3  UNL     1       3.587   0.884   0.039  1.00  0.00    -0.320 N 
HETATM   12  C5  UNL     1       4.847   1.380   0.174  1.00  0.00     0.149 A 
HETATM   13  C7  UNL     1       3.652  -0.419   0.320  1.00  0.00     0.186 A 
HETATM   14  C6  UNL     1       5.705   0.372   0.543  1.00  0.00     0.192 A 
HETATM   15  N5  UNL     1       4.933  -0.719   0.623  1.00  0.00    -0.308 N 
ATOM     16  H5  UNL     1       5.267  -1.649   0.878  1.00  0.00     0.170 HD
HETATM   17  N6  UNL     1       2.337  -1.018   0.191  1.00  0.00    -0.323 N 
ATOM     18  H6  UNL     1       2.000  -1.898   0.581  1.00  0.00     0.166 HD
BRANCH   9  19
HETATM   19  O1  UNL     1       2.416  -0.272  -1.858  1.00  0.00    -0.364 OA
ATOM     20  H1  UNL     1       3.311  -0.145  -1.566  1.00  0.00     0.213 HD
ENDBRANCH   9  19
BRANCH  14  21
HETATM   21  N4  UNL     1       7.098   0.472   0.782  1.00  0.00    -0.096 N 
HETATM   22  O2  UNL     1       7.675   1.568   0.665  1.00  0.00    -0.530 OA
HETATM   23  O3  UNL     1       7.861  -0.609   1.148  1.00  0.00    -0.530 OA
ENDBRANCH  14  21
ENDBRANCH   4   9
BRANCH   5  24
HETATM   24  C9  UNL     1      -0.803  -0.262   1.171  1.00  0.00     0.291 C 
BRANCH  24  25
HETATM   25  N7  UNL     1       0.249   0.176   1.959  1.00  0.00    -0.064 N 
ATOM     26  H73 UNL     1       1.073  -0.346   1.660  1.00  0.00     0.275 HD
ATOM     27  H72 UNL     1       0.459   1.128   1.660  1.00  0.00     0.275 HD
ATOM     28  H71 UNL     1       0.262   0.182   2.979  1.00  0.00     0.275 HD
ENDBRANCH  24  25
BRANCH  24  29
HETATM   29  C10 UNL     1      -0.918  -1.729   1.571  1.00  0.00     0.142 A 
HETATM   30  N8  UNL     1      -1.044  -2.785   0.775  1.00  0.00    -0.272 N 
HETATM   31  N9  UNL     1      -1.111  -3.851   1.561  1.00  0.00    -0.007 NA
ATOM     32  H8  UNL     1      -1.082  -2.777  -0.244  1.00  0.00     0.185 HD
HETATM   33  N10 UNL     1      -1.031  -3.504   2.840  1.00  0.00    -0.007 NA
HETATM   34  N11 UNL     1      -0.911  -2.178   2.827  1.00  0.00    -0.272 N 
ATOM     35  H11 UNL     1      -0.826  -1.591   3.657  1.00  0.00     0.185 HD
ENDBRANCH  24  29
ENDBRANCH   5  24
BRANCH   1  36
HETATM   36  N1  UNL     1      -1.366  -0.602  -4.211  1.00  0.00    -0.234 N 
ATOM     37  H12 UNL     1      -0.529  -0.607  -4.794  1.00  0.00     0.174 HD
ATOM     38  H11 UNL     1      -2.297  -0.680  -4.619  1.00  0.00     0.174 HD
ENDBRANCH   1  36
BRANCH   6  39
HETATM   39  N12 UNL     1      -3.263  -0.363   0.025  1.00  0.00    -0.270 N 
ATOM     40  H12 UNL     1      -3.613  -1.212   0.468  1.00  0.00     0.190 HD
BRANCH  39  41
HETATM   41  N13 UNL     1      -3.868   0.893   0.237  1.00  0.00    -0.237 N 
HETATM   42  N14 UNL     1      -4.964   1.194  -0.329  1.00  0.00    -0.239 N 
HETATM   43  C12 UNL     1      -5.626   2.429  -0.163  1.00  0.00     0.348 C 
ATOM     44  H14 UNL     1      -5.392   0.500  -0.942  1.00  0.00     0.193 HD
HETATM   45  N15 UNL     1      -7.035   2.460  -0.340  1.00  0.00    -0.038 NA
HETATM   46  O4  UNL     1      -5.051   3.504   0.130  1.00  0.00    -0.249 OA
ATOM     47  H13 UNL     1      -3.419   1.570   0.854  1.00  0.00     0.208 HD
ENDBRANCH  39  41
ENDBRANCH   6  39
TORSDOF 9
