REMARK  1 active torsions:
REMARK  status: ('A' for Active; 'I' for Inactive)
REMARK    1  A    between atoms: C4_4  and  C5_5 
ROOT
HETATM    1  C5  UNL     1      -0.714  -0.086   0.844  1.00  0.00     0.015 C 
HETATM    2  C6  UNL     1      -1.425  -1.260   0.251  1.00  0.00     0.015 C 
HETATM    3  C7  UNL     1      -0.155  -1.544  -0.545  1.00  0.00     0.011 C 
HETATM    4  C8  UNL     1       0.909  -2.261   0.272  1.00  0.00     0.131 C 
HETATM    5  N1  UNL     1       2.040  -1.474  -0.104  1.00  0.00    -0.343 N 
HETATM    6  C9  UNL     1       3.372  -1.538  -0.548  1.00  0.00     0.223 C 
HETATM    7  O1  UNL     1       4.015  -2.589  -0.752  1.00  0.00    -0.273 OA
HETATM    8  C10 UNL     1       3.888  -0.125  -0.735  1.00  0.00     0.148 C 
HETATM    9  C11 UNL     1       2.577   0.596  -0.953  1.00  0.00     0.129 C 
HETATM   10  C12 UNL     1       2.098   0.561  -2.360  1.00  0.00     0.054 C 
HETATM   11  F1  UNL     1       2.745   1.894  -0.505  1.00  0.00    -0.241 F 
HETATM   12  C13 UNL     1       1.663  -0.101   0.025  1.00  0.00     0.132 C 
HETATM   13  C14 UNL     1       0.229  -0.059  -0.376  1.00  0.00     0.025 C 
ENDROOT
BRANCH   1  14
HETATM   14  C4  UNL     1      -1.492   1.112   1.047  1.00  0.00    -0.020 C 
HETATM   15  C2  UNL     1      -2.768   1.243   1.140  1.00  0.00    -0.091 C 
HETATM   16  C1  UNL     1      -3.824   0.205   1.070  1.00  0.00     0.042 C 
HETATM   17  C3  UNL     1      -3.338   2.666   1.349  1.00  0.00     0.042 C 
ENDBRANCH   1  14
TORSDOF 1
