REMARK  5 active torsions:
REMARK  status: ('A' for Active; 'I' for Inactive)
REMARK    1  A    between atoms: C2_2  and  C3_3 
REMARK    2  A    between atoms: C4_4  and  C5_5 
REMARK    3  A    between atoms: C12_14  and  O2_15 
REMARK    4  A    between atoms: C12_14  and  C13_17 
REMARK    5  A    between atoms: C13_17  and  O3_18 
ROOT
HETATM    1  C3  UNL     1      -0.811  -1.146   0.198  1.00  0.00     0.047 C 
HETATM    2  C4  UNL     1      -1.542   0.076  -0.193  1.00  0.00     0.000 C 
HETATM    3  C7  UNL     1      -0.639   1.025  -0.918  1.00  0.00     0.015 C 
HETATM    4  C8  UNL     1      -1.394   2.344  -1.086  1.00  0.00     0.012 C 
HETATM    5  C9  UNL     1       0.613   1.311  -0.156  1.00  0.00     0.285 C 
HETATM    6  N1  UNL     1       1.212   0.253   0.517  1.00  0.00     0.161 N 
HETATM    7  C10 UNL     1       0.600  -1.002   0.588  1.00  0.00     0.261 C 
HETATM    8  C11 UNL     1       1.522  -1.845  -0.313  1.00  0.00     0.210 C 
HETATM    9  O1  UNL     1       2.771  -1.391   0.172  1.00  0.00    -0.327 OA
HETATM   10  C12 UNL     1       2.589  -0.017   0.071  1.00  0.00     0.393 C 
ENDROOT
BRANCH  10  11
HETATM   11  O2  UNL     1       2.784   0.356  -1.243  1.00  0.00    -0.340 OA
ATOM     12  H2  UNL     1       3.672   0.182  -1.531  1.00  0.00     0.215 HD
ENDBRANCH  10  11
BRANCH  10  13
HETATM   13  C13 UNL     1       3.577   0.749   0.925  1.00  0.00     0.268 C 
BRANCH  13  14
HETATM   14  O3  UNL     1       3.491   0.402   2.251  1.00  0.00    -0.393 OA
ATOM     15  H3  UNL     1       4.111   0.883   2.787  1.00  0.00     0.209 HD
ENDBRANCH  13  14
ENDBRANCH  10  13
BRANCH   1  16
HETATM   16  C2  UNL     1      -0.907  -2.272  -0.796  1.00  0.00    -0.030 C 
HETATM   17  C1  UNL     1      -1.359  -2.131  -2.029  1.00  0.00     0.007 C 
ENDBRANCH   1  16
BRANCH   2  18
HETATM   18  C5  UNL     1      -2.172   0.806   0.976  1.00  0.00     0.001 C 
HETATM   19  C6  UNL     1      -3.169  -0.051   1.712  1.00  0.00     0.005 C 
ENDBRANCH   2  18
TORSDOF 5
