REMARK  3 active torsions:
REMARK  status: ('A' for Active; 'I' for Inactive)
REMARK    1  A    between atoms: O1_2  and  C2_3 
REMARK    2  A    between atoms: C13_16  and  C14_17 
REMARK    3  A    between atoms: C14_17  and  O3_18 
ROOT
HETATM    1  C2  UNL     1      -0.941  -0.696  -0.003  1.00  0.00     0.133 C 
HETATM    2  C3  UNL     1      -0.126  -1.096  -1.192  1.00  0.00     0.041 C 
HETATM    3  C4  UNL     1       0.694  -0.016  -1.810  1.00  0.00     0.037 C 
HETATM    4  C5  UNL     1      -0.230   1.173  -2.023  1.00  0.00     0.017 C 
HETATM    5  C6  UNL     1      -0.564   1.711  -0.670  1.00  0.00     0.030 C 
HETATM    6  C7  UNL     1       0.696   2.013   0.107  1.00  0.00     0.137 C 
HETATM    7  O2  UNL     1       1.842   1.635  -0.481  1.00  0.00    -0.360 OA
HETATM    8  C8  UNL     1       1.908   0.397  -1.070  1.00  0.00     0.226 C 
HETATM    9  N1  UNL     1       2.311  -0.581  -0.051  1.00  0.00    -0.368 N 
HETATM   10  C9  UNL     1       3.139  -1.690  -0.464  1.00  0.00     0.151 C 
HETATM   11  C10 UNL     1       1.967  -0.548   1.327  1.00  0.00     0.084 C 
HETATM   12  C11 UNL     1       1.043   0.243   1.852  1.00  0.00    -0.002 C 
HETATM   13  C12 UNL     1       0.160   1.247   1.239  1.00  0.00     0.052 C 
HETATM   14  C13 UNL     1      -0.945   0.727   0.351  1.00  0.00     0.022 C 
ENDROOT
BRANCH  14  15
HETATM   15  C14 UNL     1      -2.297   1.115   0.975  1.00  0.00     0.177 C 
BRANCH  15  16
HETATM   16  O3  UNL     1      -2.237   2.493   1.292  1.00  0.00    -0.400 OA
ATOM     17  H3  UNL     1      -3.072   2.733   1.677  1.00  0.00     0.209 HD
ENDBRANCH  15  16
ENDBRANCH  14  15
BRANCH   1  18
HETATM   18  O1  UNL     1      -2.236  -1.176  -0.199  1.00  0.00    -0.390 OA
HETATM   19  C1  UNL     1      -2.593  -2.172   0.698  1.00  0.00     0.202 C 
ENDBRANCH   1  18
TORSDOF 3
