REMARK  9 active torsions:
REMARK  status: ('A' for Active; 'I' for Inactive)
REMARK    1  A    between atoms: C3_3  and  C4_4 
REMARK    2  A    between atoms: C5_5  and  C6_6 
REMARK    3  A    between atoms: C6_6  and  C7_7 
REMARK    4  A    between atoms: C12_12  and  C13_13 
REMARK    5  A    between atoms: C13_13  and  C14_14 
REMARK    6  A    between atoms: C14_14  and  C15_15 
REMARK    7  A    between atoms: C15_15  and  C16_16 
REMARK    8  A    between atoms: C17_21  and  C18_22 
REMARK    9  A    between atoms: C18_22  and  O2_23 
ROOT
HETATM    1  C4  UNL     1       2.029   0.217   0.999  1.00  0.00     0.028 C 
HETATM    2  C5  UNL     1       0.774   0.469   0.762  1.00  0.00    -0.024 C 
ENDROOT
BRANCH   2   3
HETATM    3  C6  UNL     1       0.134   0.964  -0.453  1.00  0.00     0.032 C 
BRANCH   3   4
HETATM    4  C7  UNL     1      -0.913   0.041  -1.002  1.00  0.00    -0.007 C 
HETATM    5  C8  UNL     1      -0.348  -1.285  -1.369  1.00  0.00     0.005 C 
HETATM    6  C9  UNL     1      -0.850  -2.432  -0.555  1.00  0.00     0.000 C 
HETATM    7  C10 UNL     1      -2.321  -2.504  -0.395  1.00  0.00     0.000 C 
HETATM    8  C11 UNL     1      -2.942  -1.124  -0.758  1.00  0.00     0.005 C 
HETATM    9  C12 UNL     1      -2.101  -0.158  -0.008  1.00  0.00    -0.010 C 
BRANCH   9  10
HETATM   10  C13 UNL     1      -2.592   1.148   0.390  1.00  0.00     0.005 C 
BRANCH  10  11
HETATM   11  C14 UNL     1      -3.682   1.362   1.337  1.00  0.00     0.001 C 
BRANCH  11  12
HETATM   12  C15 UNL     1      -5.034   0.864   0.972  1.00  0.00     0.015 C 
BRANCH  12  13
HETATM   13  C16 UNL     1      -5.492   1.518  -0.318  1.00  0.00     0.114 C 
HETATM   14 CL1  UNL     1      -7.086   0.982  -0.830  1.00  0.00    -0.130 Cl
ENDBRANCH  12  13
ENDBRANCH  11  12
ENDBRANCH  10  11
ENDBRANCH   9  10
ENDBRANCH   3   4
ENDBRANCH   2   3
BRANCH   1  15
HETATM   15  C3  UNL     1       3.162   0.355   0.119  1.00  0.00     0.063 A 
HETATM   16  C2  UNL     1       4.471   0.038   0.514  1.00  0.00     0.001 A 
HETATM   17  C1  UNL     1       4.937  -0.472   1.824  1.00  0.00     0.053 C 
HETATM   18  C17 UNL     1       5.277   0.287  -0.550  1.00  0.00     0.107 A 
HETATM   19  O1  UNL     1       4.521   0.723  -1.522  1.00  0.00    -0.239 OA
HETATM   20  N1  UNL     1       3.286   0.762  -1.130  1.00  0.00    -0.261 N 
ATOM     21  H1  UNL     1       2.508   1.069  -1.714  1.00  0.00     0.195 HD
BRANCH  18  22
HETATM   22  C18 UNL     1       6.755   0.101  -0.611  1.00  0.00     0.231 C 
BRANCH  22  23
HETATM   23  O2  UNL     1       7.225   0.462  -1.867  1.00  0.00    -0.394 OA
ATOM     24  H2  UNL     1       8.167   0.343  -1.906  1.00  0.00     0.209 HD
ENDBRANCH  22  23
ENDBRANCH  18  22
ENDBRANCH   1  15
TORSDOF 9
