REMARK  5 active torsions:
REMARK  status: ('A' for Active; 'I' for Inactive)
REMARK    1  A    between atoms: C5_5  and  N1_6 
REMARK       I    between atoms: N1_6  and  C6_8 
REMARK       I    between atoms: C6_8  and  N6_27 
REMARK    2  A    between atoms: N2_9  and  C7_11 
REMARK    3  A    between atoms: C7_11  and  C8_12 
REMARK    4  A    between atoms: C8_12  and  N3_13 
REMARK    5  A    between atoms: N4_16  and  C11_17 
ROOT
HETATM    1  C11 UNL     1       4.982   0.627  -0.200  1.00  0.00     0.051 A 
HETATM    2  C12 UNL     1       5.906   0.789  -1.239  1.00  0.00     0.031 A 
HETATM    3  C13 UNL     1       6.558   1.983  -1.423  1.00  0.00     0.002 A 
HETATM    4  C14 UNL     1       6.273   3.015  -0.553  1.00  0.00     0.002 A 
HETATM    5  C15 UNL     1       5.366   2.862   0.470  1.00  0.00     0.025 A 
HETATM    6  C16 UNL     1       4.697   1.648   0.664  1.00  0.00     0.071 A 
HETATM    7  C17 UNL     1       3.758   1.525   1.734  1.00  0.00     0.102 C 
HETATM    8  N5  UNL     1       2.995   1.441   2.579  1.00  0.00    -0.191 NA
ENDROOT
BRANCH   1   9
HETATM    9  N4  UNL     1       4.355  -0.629  -0.067  1.00  0.00    -0.376 N 
HETATM   10  C10 UNL     1       4.505  -1.483   1.114  1.00  0.00     0.153 C 
HETATM   11  C9  UNL     1       3.305  -2.389   1.238  1.00  0.00     0.292 C 
HETATM   12  N3  UNL     1       2.092  -1.746   0.789  1.00  0.00     0.093 N 
HETATM   13  C19 UNL     1       2.111  -1.279  -0.554  1.00  0.00     0.292 C 
HETATM   14  C18 UNL     1       3.506  -1.173  -1.106  1.00  0.00     0.153 C 
BRANCH  12  15
HETATM   15  C8  UNL     1       0.910  -2.504   1.150  1.00  0.00     0.292 C 
BRANCH  15  16
HETATM   16  C7  UNL     1      -0.288  -1.749   0.651  1.00  0.00     0.168 C 
BRANCH  16  17
HETATM   17  N2  UNL     1      -1.533  -2.414   0.954  1.00  0.00    -0.224 N 
HETATM   18  C6  UNL     1      -2.641  -2.179   0.340  1.00  0.00     0.683 C 
HETATM   19  N1  UNL     1      -2.712  -1.220  -0.710  1.00  0.00    -0.221 N 
HETATM   20  N6  UNL     1      -3.803  -2.898   0.723  1.00  0.00    -0.126 N 
ATOM     21  H1  UNL     1      -2.252  -1.448  -1.591  1.00  0.00     0.178 HD
HETATM   22  C20 UNL     1      -4.230  -4.031   0.003  1.00  0.00     0.196 C 
ATOM     23  H6  UNL     1      -4.339  -2.589   1.534  1.00  0.00     0.197 HD
HETATM   24  N7  UNL     1      -4.592  -4.977  -0.577  1.00  0.00    -0.171 NA
ATOM     25  H2  UNL     1      -1.536  -3.111   1.698  1.00  0.00     0.177 HD
BRANCH  19  26
HETATM   26  C5  UNL     1      -3.381   0.040  -0.618  1.00  0.00     0.099 C 
HETATM   27  C4  UNL     1      -2.852   0.938   0.489  1.00  0.00     0.026 C 
HETATM   28  C3  UNL     1      -3.395   2.322   0.125  1.00  0.00     0.006 C 
HETATM   29  C2  UNL     1      -4.873   2.298   0.305  1.00  0.00    -0.019 C 
HETATM   30  C1  UNL     1      -5.409   3.669  -0.057  1.00  0.00     0.010 C 
HETATM   31  C22 UNL     1      -5.594   1.227  -0.431  1.00  0.00     0.006 C 
HETATM   32  C21 UNL     1      -4.882  -0.069  -0.586  1.00  0.00     0.026 C 
ENDBRANCH  19  26
ENDBRANCH  16  17
ENDBRANCH  15  16
ENDBRANCH  12  15
ENDBRANCH   1   9
TORSDOF 5
