REMARK  14 active torsions:
REMARK  status: ('A' for Active; 'I' for Inactive)
REMARK    1  A    between atoms: S1_2  and  N1_4 
REMARK    2  A    between atoms: S1_2  and  C18_37 
REMARK    3  A    between atoms: N1_4  and  C1_6 
REMARK    4  A    between atoms: C2_9  and  N3_10 
REMARK    5  A    between atoms: N3_10  and  C3_12 
REMARK    6  A    between atoms: C3_12  and  C4_13 
REMARK    7  A    between atoms: C4_13  and  O3_14 
REMARK    8  A    between atoms: C5_18  and  N5_19 
REMARK    9  A    between atoms: N5_19  and  C6_21 
REMARK   10  A    between atoms: C6_21  and  C7_22 
REMARK   11  A    between atoms: C9_24  and  C10_25 
REMARK   12  A    between atoms: C21_40  and  C22_41 
REMARK   13  A    between atoms: C22_41  and  O4_42 
REMARK   14  A    between atoms: O4_42  and  C23_43 
ROOT
HETATM    1  C1  UNL     1      -0.378  -1.713   0.239  1.00  0.00     0.721 A 
HETATM    2  N2  UNL     1      -0.537  -3.065   0.140  1.00  0.00    -0.021 N 
ATOM      3  H2  UNL     1       0.246  -3.640  -0.172  1.00  0.00     0.203 HD
HETATM    4  C2  UNL     1      -1.694  -3.647   0.443  1.00  0.00     0.707 A 
HETATM    5  N4  UNL     1      -2.707  -2.872   0.851  1.00  0.00    -0.022 N 
ATOM      6  H4  UNL     1      -3.598  -3.308   1.086  1.00  0.00     0.203 HD
HETATM    7  C5  UNL     1      -2.586  -1.529   0.961  1.00  0.00     0.707 A 
HETATM    8  N7  UNL     1      -1.412  -0.959   0.651  1.00  0.00    -0.021 N 
ATOM      9  H7  UNL     1      -1.303   0.052   0.728  1.00  0.00     0.203 HD
ENDROOT
BRANCH   1  10
HETATM   10  N1  UNL     1       0.776  -1.247  -0.075  1.00  0.00    -0.111 N 
ATOM     11  H1  UNL     1       1.496  -1.904  -0.375  1.00  0.00     0.197 HD
BRANCH  10  12
HETATM   12  S1  UNL     1       1.170   0.413  -0.017  1.00  0.00     0.276 S 
HETATM   13  O1  UNL     1       0.249   1.158  -0.932  1.00  0.00    -0.200 OA
HETATM   14  O2  UNL     1       0.908   0.902   1.383  1.00  0.00    -0.200 OA
BRANCH  12  15
HETATM   15  C18 UNL     1       2.863   0.676  -0.448  1.00  0.00     0.080 A 
HETATM   16  C19 UNL     1       3.262   0.891  -1.749  1.00  0.00     0.026 A 
HETATM   17  C20 UNL     1       4.595   1.096  -2.080  1.00  0.00     0.011 A 
HETATM   18  C21 UNL     1       5.571   1.091  -1.109  1.00  0.00    -0.034 A 
HETATM   19  C29 UNL     1       5.171   0.875   0.194  1.00  0.00     0.011 A 
HETATM   20  C30 UNL     1       3.845   0.671   0.523  1.00  0.00     0.026 A 
BRANCH  18  21
HETATM   21  C22 UNL     1       7.011   1.309  -1.437  1.00  0.00     0.214 C 
BRANCH  21  22
HETATM   22  O4  UNL     1       7.804   1.270  -0.287  1.00  0.00    -0.347 OA
BRANCH  22  23
HETATM   23  C23 UNL     1       9.174   1.440  -0.281  1.00  0.00     0.069 A 
HETATM   24  C24 UNL     1       9.825   1.662  -1.474  1.00  0.00     0.037 A 
HETATM   25  C25 UNL     1      11.202   1.840  -1.532  1.00  0.00     0.003 A 
HETATM   26  C26 UNL     1      11.943   1.793  -0.360  1.00  0.00     0.000 A 
HETATM   27  C27 UNL     1      11.307   1.572   0.841  1.00  0.00     0.003 A 
HETATM   28  C28 UNL     1       9.930   1.398   0.869  1.00  0.00     0.037 A 
ENDBRANCH  22  23
ENDBRANCH  21  22
ENDBRANCH  18  21
ENDBRANCH  12  15
ENDBRANCH  10  12
ENDBRANCH   1  10
BRANCH   4  29
HETATM   29  N3  UNL     1      -1.881  -4.908   0.364  1.00  0.00    -0.223 N 
ATOM     30  H3  UNL     1      -2.797  -5.280   0.614  1.00  0.00     0.177 HD
BRANCH  29  31
HETATM   31  C3  UNL     1      -0.863  -5.827  -0.060  1.00  0.00     0.164 C 
BRANCH  31  32
HETATM   32  C4  UNL     1      -1.266  -7.229   0.371  1.00  0.00     0.184 C 
BRANCH  32  33
HETATM   33  O3  UNL     1      -1.404  -7.312   1.743  1.00  0.00    -0.399 OA
ATOM     34  H3  UNL     1      -1.656  -8.188   2.012  1.00  0.00     0.209 HD
ENDBRANCH  32  33
ENDBRANCH  31  32
ENDBRANCH  29  31
ENDBRANCH   4  29
BRANCH   7  35
HETATM   35  N5  UNL     1      -3.626  -0.887   1.363  1.00  0.00    -0.219 N 
ATOM     36  H5  UNL     1      -4.472  -1.416   1.573  1.00  0.00     0.178 HD
BRANCH  35  37
HETATM   37  C6  UNL     1      -3.652   0.552   1.531  1.00  0.00     0.195 C 
BRANCH  37  38
HETATM   38  C7  UNL     1      -5.040   1.042   1.767  1.00  0.00     0.028 A 
HETATM   39  C8  UNL     1      -5.852   1.433   0.725  1.00  0.00     0.039 A 
HETATM   40  C9  UNL     1      -7.141   1.888   0.919  1.00  0.00    -0.023 A 
HETATM   41  C16 UNL     1      -7.640   1.954   2.201  1.00  0.00     0.029 A 
HETATM   42  C17 UNL     1      -6.808   1.556   3.232  1.00  0.00     0.089 A 
HETATM   43  N6  UNL     1      -5.552   1.116   3.011  1.00  0.00    -0.368 N 
ATOM     44  H6  UNL     1      -4.977   0.833   3.804  1.00  0.00     0.165 HD
BRANCH  40  45
HETATM   45  C10 UNL     1      -8.008   2.304  -0.179  1.00  0.00    -0.026 A 
HETATM   46  C11 UNL     1      -7.371   2.875  -1.274  1.00  0.00     0.012 A 
HETATM   47  C12 UNL     1      -8.059   3.313  -2.378  1.00  0.00     0.001 A 
HETATM   48  C13 UNL     1      -9.441   3.168  -2.374  1.00  0.00     0.000 A 
HETATM   49  C14 UNL     1     -10.079   2.600  -1.285  1.00  0.00     0.001 A 
HETATM   50  C15 UNL     1      -9.364   2.159  -0.169  1.00  0.00     0.012 A 
ENDBRANCH  40  45
ENDBRANCH  37  38
ENDBRANCH  35  37
ENDBRANCH   7  35
TORSDOF 14
