REMARK  15 active torsions:
REMARK  status: ('A' for Active; 'I' for Inactive)
REMARK    1  A    between atoms: C2_2  and  C3_3 
REMARK    2  A    between atoms: C3_3  and  C29_43 
REMARK    3  A    between atoms: C4_4  and  C5_5 
REMARK    4  A    between atoms: C5_5  and  C6_6 
REMARK    5  A    between atoms: C6_6  and  C8_8 
REMARK    6  A    between atoms: C10_13  and  C11_14 
REMARK    7  A    between atoms: C15_21  and  C16_22 
REMARK    8  A    between atoms: C16_22  and  C18_24 
REMARK    9  A    between atoms: C21_29  and  C22_30 
REMARK   10  A    between atoms: C25_35  and  O5_36 
REMARK   11  A    between atoms: C26_38  and  C27_39 
REMARK   12  A    between atoms: C27_39  and  C28_40 
REMARK   13  A    between atoms: C29_43  and  C30_44 
REMARK   14  A    between atoms: C31_45  and  C32_46 
REMARK   15  A    between atoms: C32_46  and  O8_49 
ROOT
HETATM    1  C8  UNL     1       0.291   0.254  -0.994  1.00  0.00     0.100 C 
HETATM    2  N1  UNL     1      -0.171   0.251   0.361  1.00  0.00    -0.353 N 
ATOM      3  H1  UNL     1      -0.430   1.187   0.673  1.00  0.00     0.163 HD
HETATM    4  C9  UNL     1      -0.358  -0.691   1.359  1.00  0.00     0.241 C 
HETATM    5  O1  UNL     1       0.366  -0.614   2.433  1.00  0.00    -0.271 OA
HETATM    6  C10 UNL     1      -1.285  -1.846   1.454  1.00  0.00     0.180 C 
HETATM    7  N2  UNL     1      -2.307  -1.567   2.491  1.00  0.00    -0.345 N 
ATOM      8  H2  UNL     1      -2.277  -2.117   3.349  1.00  0.00     0.163 HD
HETATM    9  C14 UNL     1      -3.319  -0.591   2.370  1.00  0.00     0.248 C 
HETATM   10  O2  UNL     1      -3.457   0.253   3.295  1.00  0.00    -0.271 OA
HETATM   11  C15 UNL     1      -4.263  -0.455   1.231  1.00  0.00     0.227 C 
HETATM   12  O3  UNL     1      -4.464   0.819   0.771  1.00  0.00    -0.304 OA
HETATM   13  C20 UNL     1      -3.761   1.860   0.354  1.00  0.00     0.282 C 
HETATM   14  O4  UNL     1      -3.709   2.928   1.079  1.00  0.00    -0.263 OA
HETATM   15  C21 UNL     1      -2.957   2.040  -0.897  1.00  0.00     0.186 C 
HETATM   16  N3  UNL     1      -2.953   0.918  -1.772  1.00  0.00    -0.360 N 
ATOM     17  H3  UNL     1      -3.768   0.869  -2.384  1.00  0.00     0.162 HD
HETATM   18  C25 UNL     1      -2.046  -0.131  -1.954  1.00  0.00     0.118 C 
HETATM   19  C26 UNL     1      -0.584  -0.201  -2.082  1.00  0.00     0.093 C 
ENDROOT
BRANCH   1  20
HETATM   20  C6  UNL     1       1.008   1.588  -1.246  1.00  0.00     0.008 C 
HETATM   21  C7  UNL     1       1.143   2.050  -2.623  1.00  0.00     0.012 C 
BRANCH  20  22
HETATM   22  C5  UNL     1       2.229   1.778  -0.368  1.00  0.00     0.034 C 
BRANCH  22  23
HETATM   23  C4  UNL     1       3.375   1.061  -0.930  1.00  0.00    -0.018 C 
HETATM   24  C3  UNL     1       4.099   0.110  -0.377  1.00  0.00    -0.052 C 
BRANCH  24  25
HETATM   25  C2  UNL     1       3.787  -0.343   0.960  1.00  0.00    -0.003 C 
HETATM   26  C1  UNL     1       4.451  -1.291   1.545  1.00  0.00     0.012 C 
ENDBRANCH  24  25
BRANCH  24  27
HETATM   27  C29 UNL     1       5.234  -0.502  -1.137  1.00  0.00     0.132 C 
BRANCH  27  28
HETATM   28  C30 UNL     1       6.471  -0.235  -0.446  1.00  0.00    -0.099 C 
HETATM   29  C31 UNL     1       7.529   0.010   0.124  1.00  0.00    -0.069 C 
BRANCH  29  30
HETATM   30  C32 UNL     1       8.781   0.292   0.827  1.00  0.00     0.113 C 
HETATM   31  C33 UNL     1       8.491   0.091   2.303  1.00  0.00     0.060 C 
HETATM   32  C34 UNL     1       9.167   1.736   0.580  1.00  0.00     0.060 C 
BRANCH  30  33
HETATM   33  O8  UNL     1       9.804  -0.555   0.422  1.00  0.00    -0.378 OA
ATOM     34  H8  UNL     1      10.617  -0.372   0.878  1.00  0.00     0.211 HD
ENDBRANCH  30  33
ENDBRANCH  29  30
ENDBRANCH  27  28
ENDBRANCH  24  27
ENDBRANCH  22  23
ENDBRANCH  20  22
ENDBRANCH   1  20
BRANCH  19  35
HETATM   35  C27 UNL     1      -0.329  -1.662  -2.504  1.00  0.00     0.128 C 
BRANCH  35  36
HETATM   36  C28 UNL     1       0.934  -2.058  -2.994  1.00  0.00     0.173 C 
HETATM   37  O6  UNL     1       1.918  -1.356  -3.190  1.00  0.00    -0.648 OA
HETATM   38  O7  UNL     1       1.135  -3.435  -3.313  1.00  0.00    -0.648 OA
ENDBRANCH  35  36
ENDBRANCH  19  35
BRANCH  18  39
HETATM   39  O5  UNL     1      -2.695  -1.279  -2.025  1.00  0.00    -0.349 OA
ATOM     40  H5  UNL     1      -2.079  -1.992  -2.149  1.00  0.00     0.219 HD
ENDBRANCH  18  39
BRANCH   6  41
HETATM   41  C11 UNL     1      -0.463  -3.027   1.962  1.00  0.00     0.009 C 
HETATM   42  C12 UNL     1       0.646  -3.281   0.980  1.00  0.00     0.012 C 
HETATM   43  C13 UNL     1      -1.326  -4.280   1.985  1.00  0.00     0.012 C 
ENDBRANCH   6  41
BRANCH  15  44
HETATM   44  C22 UNL     1      -3.626   3.207  -1.678  1.00  0.00     0.010 C 
HETATM   45  C23 UNL     1      -5.050   2.861  -2.004  1.00  0.00     0.012 C 
HETATM   46  C24 UNL     1      -2.835   3.454  -2.923  1.00  0.00     0.012 C 
ENDBRANCH  15  44
BRANCH  11  47
HETATM   47  C16 UNL     1      -5.596  -1.032   1.646  1.00  0.00     0.020 C 
HETATM   48  C17 UNL     1      -6.524  -0.878   0.419  1.00  0.00     0.013 C 
BRANCH  47  49
HETATM   49  C18 UNL     1      -6.270  -0.289   2.753  1.00  0.00     0.003 C 
HETATM   50  C19 UNL     1      -6.584   1.157   2.434  1.00  0.00     0.005 C 
ENDBRANCH  47  49
ENDBRANCH  11  47
TORSDOF 15
