REMARK  15 active torsions:
REMARK  status: ('A' for Active; 'I' for Inactive)
REMARK    1  A    between atoms: C2_2  and  O1_3 
REMARK    2  A    between atoms: C2_2  and  C3_5 
REMARK    3  A    between atoms: C5_9  and  C6_10 
REMARK    4  A    between atoms: C7_13  and  S1_14 
REMARK    5  A    between atoms: S1_14  and  C8_15 
REMARK    6  A    between atoms: C10_20  and  C11_21 
REMARK    7  A    between atoms: C11_21  and  C12_22 
REMARK       I    between atoms: C12_22  and  N3_24 
REMARK    8  A    between atoms: N3_24  and  C13_26 
REMARK    9  A    between atoms: N4_29  and  C16_30 
REMARK   10  A    between atoms: C16_30  and  O6_31 
REMARK   11  A    between atoms: C16_30  and  C17_33 
REMARK   12  A    between atoms: C17_33  and  C18_34 
REMARK   13  A    between atoms: C18_34  and  C19_35 
REMARK   14  A    between atoms: C19_35  and  C20_36 
REMARK   15  A    between atoms: C21_37  and  C22_38 
ROOT
HETATM    1  C11 UNL     1      -2.202   0.095  -0.061  1.00  0.00     0.135 C 
ENDROOT
BRANCH   1   2
HETATM    2  C10 UNL     1      -2.999   1.283   0.440  1.00  0.00     0.195 C 
HETATM    3  N2  UNL     1      -2.813   2.416  -0.479  1.00  0.00    -0.069 N 
HETATM    4  C9  UNL     1      -3.504   1.958  -1.686  1.00  0.00     0.248 C 
ATOM      5  H22 UNL     1      -1.844   2.700  -0.621  1.00  0.00     0.277 HD
ATOM      6  H21 UNL     1      -3.128   3.317  -0.119  1.00  0.00     0.277 HD
HETATM    7  C8  UNL     1      -4.646   1.074  -1.224  1.00  0.00     0.080 C 
HETATM    8  C30 UNL     1      -4.484   1.077   0.269  1.00  0.00     0.050 C 
BRANCH   7   9
HETATM    9  S1  UNL     1      -6.154   1.911  -1.783  1.00  0.00    -0.125 SA
BRANCH   9  10
HETATM   10  C7  UNL     1      -7.594   0.992  -1.302  1.00  0.00     0.018 C 
HETATM   11  C5  UNL     1      -8.828   1.382  -1.635  1.00  0.00     0.128 C 
HETATM   12  N1  UNL     1      -9.769   0.437  -1.103  1.00  0.00    -0.304 N 
HETATM   13  C4  UNL     1     -10.857  -0.415  -0.785  1.00  0.00     0.233 C 
HETATM   14  C33 UNL     1      -9.089  -0.143   0.067  1.00  0.00     0.117 C 
HETATM   15  C3  UNL     1      -9.963  -1.341  -0.019  1.00  0.00     0.130 C 
HETATM   16  O2  UNL     1     -12.081  -0.344  -1.078  1.00  0.00    -0.272 OA
HETATM   17  C31 UNL     1      -7.684  -0.266  -0.521  1.00  0.00     0.048 C 
HETATM   18  C32 UNL     1      -7.593  -1.492  -1.408  1.00  0.00     0.018 C 
BRANCH  11  19
HETATM   19  C6  UNL     1      -9.200   2.558  -2.406  1.00  0.00     0.228 C 
HETATM   20  O3  UNL     1      -8.351   3.355  -2.854  1.00  0.00    -0.643 OA
HETATM   21  O4  UNL     1     -10.530   2.864  -2.689  1.00  0.00    -0.643 OA
ENDBRANCH  11  19
BRANCH  15  22
HETATM   22  C2  UNL     1     -10.491  -1.698   1.362  1.00  0.00     0.129 C 
HETATM   23  C1  UNL     1      -9.533  -2.636   2.062  1.00  0.00     0.040 C 
BRANCH  22  24
HETATM   24  O1  UNL     1     -11.712  -2.318   1.198  1.00  0.00    -0.395 OA
ATOM     25  H1  UNL     1     -12.314  -1.729   0.758  1.00  0.00     0.210 HD
ENDBRANCH  22  24
ENDBRANCH  15  22
ENDBRANCH   9  10
ENDBRANCH   7   9
ENDBRANCH   1   2
BRANCH   1  26
HETATM   26  C12 UNL     1      -0.786   0.484  -0.121  1.00  0.00     0.219 C 
HETATM   27  O5  UNL     1      -0.445   1.582   0.427  1.00  0.00    -0.274 OA
HETATM   28  N3  UNL     1       0.152  -0.344  -0.774  1.00  0.00    -0.356 N 
ATOM     29  H3  UNL     1      -0.130  -1.222  -1.210  1.00  0.00     0.162 HD
BRANCH  28  30
HETATM   30  C13 UNL     1       1.512   0.094  -0.802  1.00  0.00     0.087 C 
HETATM   31  C14 UNL     1       1.849   0.542  -2.227  1.00  0.00     0.045 C 
HETATM   32  C15 UNL     1       3.324   0.671  -2.341  1.00  0.00     0.127 C 
HETATM   33  N4  UNL     1       4.054   0.643  -1.068  1.00  0.00    -0.362 N 
HETATM   34  C28 UNL     1       3.770  -0.355  -0.090  1.00  0.00     0.127 C 
HETATM   35  C29 UNL     1       2.440  -1.045  -0.487  1.00  0.00     0.045 C 
BRANCH  33  36
HETATM   36  C16 UNL     1       5.020   1.647  -0.872  1.00  0.00     0.137 C 
BRANCH  36  37
HETATM   37  O6  UNL     1       5.091   2.537  -1.859  1.00  0.00    -0.346 OA
ATOM     38  H6  UNL     1       5.743   3.215  -1.727  1.00  0.00     0.219 HD
ENDBRANCH  36  37
BRANCH  36  39
HETATM   39  C17 UNL     1       5.900   1.819   0.216  1.00  0.00     0.052 C 
BRANCH  39  40
HETATM   40  C18 UNL     1       6.077   1.129   1.282  1.00  0.00    -0.019 C 
BRANCH  40  41
HETATM   41  C19 UNL     1       7.138   1.628   2.256  1.00  0.00     0.054 C 
BRANCH  41  42
HETATM   42  C20 UNL     1       8.185   0.549   2.410  1.00  0.00    -0.027 C 
HETATM   43  C21 UNL     1       9.401   0.823   2.061  1.00  0.00    -0.026 C 
BRANCH  43  44
HETATM   44  C22 UNL     1      10.607  -0.039   2.109  1.00  0.00     0.008 C 
HETATM   45  C23 UNL     1      11.264  -0.024   0.752  1.00  0.00     0.008 C 
HETATM   46  C24 UNL     1      10.842  -1.089  -0.178  1.00  0.00     0.001 C 
HETATM   47  C25 UNL     1       9.833  -2.070   0.353  1.00  0.00     0.000 C 
HETATM   48  C26 UNL     1      10.309  -2.510   1.693  1.00  0.00     0.001 C 
HETATM   49  C27 UNL     1      10.343  -1.372   2.666  1.00  0.00     0.008 C 
ENDBRANCH  43  44
ENDBRANCH  41  42
ENDBRANCH  40  41
ENDBRANCH  39  40
ENDBRANCH  36  39
ENDBRANCH  33  36
ENDBRANCH  28  30
ENDBRANCH   1  26
TORSDOF 15
