REMARK  11 active torsions:
REMARK  status: ('A' for Active; 'I' for Inactive)
REMARK    1  A    between atoms: C1_2  and  C2_3 
REMARK       I    between atoms: C1_2  and  N1_16 
REMARK    2  A    between atoms: C2_3  and  C3_4 
REMARK    3  A    between atoms: C3_4  and  S1_5 
REMARK    4  A    between atoms: S1_5  and  C4_8 
REMARK    5  A    between atoms: C4_8  and  C5_9 
REMARK    6  A    between atoms: N1_16  and  C11_18 
REMARK    7  A    between atoms: C14_21  and  C15_22 
REMARK    8  A    between atoms: C15_22  and  C16_24 
REMARK    9  A    between atoms: C19_29  and  N3_30 
REMARK   10  A    between atoms: N3_30  and  S2_32 
REMARK   11  A    between atoms: S2_32  and  C20_35 
ROOT
HETATM    1  C11 UNL     1      -1.126   2.818   0.275  1.00  0.00     0.107 A 
HETATM    2  C12 UNL     1      -0.543   1.590   0.449  1.00  0.00     0.050 A 
HETATM    3  C13 UNL     1       0.778   1.480   0.796  1.00  0.00     0.020 A 
HETATM    4  C14 UNL     1       1.548   2.618   0.976  1.00  0.00     0.030 A 
HETATM    5  C26 UNL     1       0.943   3.856   0.794  1.00  0.00     0.105 A 
HETATM    6  N5  UNL     1      -0.335   3.933   0.460  1.00  0.00    -0.351 N 
ATOM      7  H5  UNL     1      -0.753   4.855   0.334  1.00  0.00     0.166 HD
ENDROOT
BRANCH   4   8
HETATM    8  C15 UNL     1       2.933   2.590   1.356  1.00  0.00     0.198 C 
HETATM    9  O4  UNL     1       3.434   3.657   1.839  1.00  0.00    -0.286 OA
BRANCH   8  10
HETATM   10  C16 UNL     1       3.777   1.411   1.214  1.00  0.00     0.071 A 
HETATM   11  C17 UNL     1       4.483   0.968   2.347  1.00  0.00     0.106 A 
HETATM   12  N2  UNL     1       5.316  -0.087   2.300  1.00  0.00    -0.372 N 
HETATM   13  C18 UNL     1       5.507  -0.773   1.136  1.00  0.00     0.121 A 
ATOM     14  H2  UNL     1       5.810  -0.377   3.144  1.00  0.00     0.164 HD
HETATM   15  C19 UNL     1       4.825  -0.369  -0.014  1.00  0.00     0.097 A 
HETATM   16  C25 UNL     1       3.978   0.712   0.054  1.00  0.00     0.160 A 
HETATM   17  F2  UNL     1       3.304   1.123  -1.063  1.00  0.00    -0.203 F 
BRANCH  15  18
HETATM   18  N3  UNL     1       4.989  -1.062  -1.225  1.00  0.00    -0.276 N 
ATOM     19  H3  UNL     1       4.196  -1.589  -1.592  1.00  0.00     0.179 HD
BRANCH  18  20
HETATM   20  S2  UNL     1       6.455  -1.068  -2.119  1.00  0.00     0.263 S 
HETATM   21  O5  UNL     1       6.255  -1.863  -3.393  1.00  0.00    -0.200 OA
HETATM   22  O6  UNL     1       6.846   0.327  -2.539  1.00  0.00    -0.200 OA
BRANCH  20  23
HETATM   23  C20 UNL     1       7.799  -1.740  -1.253  1.00  0.00     0.082 A 
HETATM   24  C21 UNL     1       8.015  -3.091  -1.172  1.00  0.00     0.042 A 
HETATM   25  C22 UNL     1       9.129  -3.577  -0.475  1.00  0.00     0.089 A 
HETATM   26  N4  UNL     1       9.997  -2.748   0.121  1.00  0.00    -0.375 N 
HETATM   27  C23 UNL     1       9.801  -1.423   0.051  1.00  0.00     0.089 A 
ATOM     28  H4  UNL     1      10.801  -3.122   0.624  1.00  0.00     0.164 HD
HETATM   29  C24 UNL     1       8.715  -0.918  -0.627  1.00  0.00     0.042 A 
ENDBRANCH  20  23
ENDBRANCH  18  20
ENDBRANCH  15  18
ENDBRANCH   8  10
ENDBRANCH   4   8
BRANCH   1  30
HETATM   30  N1  UNL     1      -2.341   3.005  -0.012  1.00  0.00    -0.313 N 
HETATM   31  C1  UNL     1      -3.370   2.135  -0.221  1.00  0.00     0.224 C 
HETATM   32  O1  UNL     1      -4.067   2.149  -1.313  1.00  0.00    -0.273 OA
ATOM     33  H1  UNL     1      -2.601   3.987  -0.105  1.00  0.00     0.170 HD
BRANCH  31  34
HETATM   34  C2  UNL     1      -3.763   1.117   0.780  1.00  0.00     0.118 C 
BRANCH  34  35
HETATM   35  C3  UNL     1      -5.279   0.886   0.586  1.00  0.00     0.149 C 
BRANCH  35  36
HETATM   36  S1  UNL     1      -5.836  -0.351   1.734  1.00  0.00     0.148 S 
HETATM   37  O2  UNL     1      -5.107  -1.628   1.349  1.00  0.00    -0.228 OA
HETATM   38  O3  UNL     1      -5.522   0.003   3.138  1.00  0.00    -0.228 OA
BRANCH  36  39
HETATM   39  C4  UNL     1      -7.568  -0.655   1.535  1.00  0.00     0.178 C 
BRANCH  39  40
HETATM   40  C5  UNL     1      -7.896  -1.144   0.157  1.00  0.00    -0.044 A 
HETATM   41  C6  UNL     1      -8.187  -0.210  -0.838  1.00  0.00     0.011 A 
HETATM   42  C7  UNL     1      -8.501  -0.632  -2.111  1.00  0.00     0.043 A 
HETATM   43  C8  UNL     1      -8.537  -1.977  -2.436  1.00  0.00     0.116 A 
HETATM   44  F1  UNL     1      -8.851  -2.419  -3.696  1.00  0.00    -0.206 F 
HETATM   45  C9  UNL     1      -8.245  -2.868  -1.438  1.00  0.00     0.043 A 
HETATM   46  C10 UNL     1      -7.929  -2.469  -0.159  1.00  0.00     0.011 A 
ENDBRANCH  39  40
ENDBRANCH  36  39
ENDBRANCH  35  36
ENDBRANCH  34  35
ENDBRANCH  31  34
ENDBRANCH   1  30
TORSDOF 11
