REMARK  0 active torsions:
REMARK  status: ('A' for Active; 'I' for Inactive)
ROOT
HETATM    1  C1  UNL     1       1.346   0.032  -1.375  1.00  0.00     0.040 C 
HETATM    2  C2  UNL     1       0.481  -0.237  -0.134  1.00  0.00     0.093 C 
HETATM    3  C3  UNL     1       1.293   0.056   1.056  1.00  0.00     0.040 C 
HETATM    4  N1  UNL     1       0.194  -1.658  -0.177  1.00  0.00    -0.115 NA
HETATM    5  N2  UNL     1      -1.149  -1.836  -0.001  1.00  0.00    -0.036 NA
HETATM    6  N3  UNL     1      -1.785  -0.620   0.058  1.00  0.00    -0.084 NA
HETATM    7  C4  UNL     1      -0.826   0.404  -0.261  1.00  0.00     0.208 C 
HETATM    8  C5  UNL     1      -1.057   1.646   0.526  1.00  0.00     0.075 C 
HETATM    9  F1  UNL     1      -1.033   0.729  -1.610  1.00  0.00    -0.221 F 
ENDROOT
TORSDOF 0
