REMARK  5 active torsions:
REMARK  status: ('A' for Active; 'I' for Inactive)
REMARK    1  A    between atoms: C2_2  and  C3_3 
REMARK    2  A    between atoms: C2_2  and  C11_12 
REMARK    3  A    between atoms: C7_8  and  C8_9 
REMARK    4  A    between atoms: C11_12  and  O2_13 
REMARK    5  A    between atoms: C12_16  and  O4_17 
ROOT
HETATM    1  C11 UNL     1       0.150  -0.967   0.095  1.00  0.00     0.176 C 
HETATM    2  O3  UNL     1       0.976  -2.123  -0.142  1.00  0.00    -0.324 OA
HETATM    3  C12 UNL     1       2.251  -1.741   0.274  1.00  0.00     0.266 C 
HETATM    4  C13 UNL     1       2.245  -0.286   0.529  1.00  0.00     0.062 C 
HETATM    5  C14 UNL     1       3.448   0.499   0.390  1.00  0.00    -0.039 C 
HETATM    6  C15 UNL     1       3.956   0.859   1.819  1.00  0.00     0.015 C 
HETATM    7  C16 UNL     1       4.651  -0.318  -0.117  1.00  0.00     0.015 C 
HETATM    8  C17 UNL     1       3.367   1.836  -0.289  1.00  0.00     0.009 C 
HETATM    9  C18 UNL     1       2.044   2.204  -0.842  1.00  0.00     0.002 C 
HETATM   10  C19 UNL     1       0.855   1.473  -0.241  1.00  0.00     0.015 C 
HETATM   11  C20 UNL     1       1.083   0.042  -0.438  1.00  0.00     0.022 C 
HETATM   12  C21 UNL     1       1.555  -0.355  -1.807  1.00  0.00     0.021 C 
ENDROOT
BRANCH   1  13
HETATM   13  C2  UNL     1      -1.194  -1.136  -0.431  1.00  0.00     0.056 C 
HETATM   14  C1  UNL     1      -1.327  -1.204  -1.935  1.00  0.00     0.016 C 
BRANCH  13  15
HETATM   15  C3  UNL     1      -2.204  -0.172   0.082  1.00  0.00     0.069 C 
HETATM   16  C4  UNL     1      -2.240   0.054   1.545  1.00  0.00     0.132 C 
HETATM   17  O1  UNL     1      -1.737   0.914   2.245  1.00  0.00    -0.298 OA
HETATM   18  C5  UNL     1      -3.091  -1.054   2.145  1.00  0.00     0.079 C 
HETATM   19  C6  UNL     1      -4.142  -1.283   1.077  1.00  0.00     0.013 C 
HETATM   20  C7  UNL     1      -3.634  -0.575  -0.179  1.00  0.00     0.002 C 
BRANCH  20  21
HETATM   21  C8  UNL     1      -4.506   0.629  -0.387  1.00  0.00    -0.010 A 
HETATM   22  C9  UNL     1      -4.173   1.565  -1.548  1.00  0.00     0.005 A 
HETATM   23  C10 UNL     1      -4.151   2.015  -0.136  1.00  0.00     0.005 A 
ENDBRANCH  20  21
ENDBRANCH  13  15
ENDBRANCH   1  13
BRANCH   1  24
HETATM   24  O2  UNL     1       0.063  -0.963   1.499  1.00  0.00    -0.364 OA
ATOM     25  H2  UNL     1       0.942  -0.853   1.843  1.00  0.00     0.213 HD
ENDBRANCH   1  24
BRANCH   3  26
HETATM   26  O4  UNL     1       2.552  -2.479   1.445  1.00  0.00    -0.371 OA
ATOM     27  H4  UNL     1       3.421  -2.219   1.728  1.00  0.00     0.212 HD
ENDBRANCH   3  26
TORSDOF 5
