REMARK  7 active torsions:
REMARK  status: ('A' for Active; 'I' for Inactive)
REMARK    1  A    between atoms: C3_4  and  C4_5 
REMARK    2  A    between atoms: C7_9  and  C8_10 
REMARK    3  A    between atoms: C8_10  and  O2_11 
REMARK    4  A    between atoms: C8_10  and  C9_13 
REMARK    5  A    between atoms: C9_13  and  O3_14 
REMARK    6  A    between atoms: C10_16  and  O4_17 
REMARK    7  A    between atoms: C11_19  and  N2_20 
REMARK       I    between atoms: N2_20  and  C12_22 
ROOT
HETATM    1  C1  UNL     1      -2.801   0.374   2.539  1.00  0.00     0.221 C 
HETATM    2  N1  UNL     1      -2.274   0.258   1.509  1.00  0.00    -0.461 NA
HETATM    3  C2  UNL     1      -1.607   0.133   0.249  1.00  0.00     0.219 C 
HETATM    4  C3  UNL     1      -0.958  -1.205   0.119  1.00  0.00     0.188 C 
HETATM    5  O1  UNL     1       0.056  -1.315   1.044  1.00  0.00    -0.368 OA
HETATM    6  C7  UNL     1       1.170  -0.527   0.667  1.00  0.00     0.184 C 
HETATM    7  C10 UNL     1       0.822   0.565  -0.287  1.00  0.00     0.175 C 
HETATM    8  C11 UNL     1      -0.490   1.158   0.196  1.00  0.00     0.155 C 
ENDROOT
BRANCH   4   9
HETATM    9  C4  UNL     1      -1.868  -2.357   0.040  1.00  0.00    -0.061 C 
HETATM   10  C5  UNL     1      -3.177  -2.314   0.027  1.00  0.00     0.016 C 
HETATM   11  C6  UNL     1      -1.248  -3.736  -0.046  1.00  0.00     0.045 C 
ENDBRANCH   4   9
BRANCH   8  12
HETATM   12  N2  UNL     1      -0.865   2.335  -0.542  1.00  0.00    -0.340 N 
HETATM   13  C12 UNL     1      -0.928   3.610   0.086  1.00  0.00     0.296 C 
HETATM   14  O5  UNL     1      -0.647   3.702   1.323  1.00  0.00    -0.258 OA
HETATM   15  C13 UNL     1      -1.291   4.799  -0.595  1.00  0.00    -0.017 C 
HETATM   16  C14 UNL     1      -1.612   5.793  -1.174  1.00  0.00     0.022 C 
ATOM     17  H2  UNL     1      -1.090   2.254  -1.534  1.00  0.00     0.164 HD
ENDBRANCH   8  12
BRANCH   7  18
HETATM   18  O4  UNL     1       1.750   1.630  -0.147  1.00  0.00    -0.391 OA
ATOM     19  H4  UNL     1       1.528   2.326  -0.755  1.00  0.00     0.210 HD
ENDBRANCH   7  18
BRANCH   6  20
HETATM   20  C8  UNL     1       2.312  -1.405   0.223  1.00  0.00     0.173 C 
BRANCH  20  21
HETATM   21  O2  UNL     1       1.927  -2.158  -0.861  1.00  0.00    -0.391 OA
ATOM     22  H2  UNL     1       2.647  -2.711  -1.141  1.00  0.00     0.210 HD
ENDBRANCH  20  21
BRANCH  20  23
HETATM   23  C9  UNL     1       3.545  -0.598  -0.084  1.00  0.00     0.198 C 
BRANCH  23  24
HETATM   24  O3  UNL     1       3.948   0.176   1.006  1.00  0.00    -0.398 OA
ATOM     25  H3  UNL     1       4.726   0.685   0.812  1.00  0.00     0.209 HD
ENDBRANCH  23  24
ENDBRANCH  20  23
ENDBRANCH   6  20
TORSDOF 7
