REMARK  5 active torsions:
REMARK  status: ('A' for Active; 'I' for Inactive)
REMARK    1  A    between atoms: C2_2  and  C3_3 
REMARK    2  A    between atoms: C3_3  and  C4_4 
REMARK    3  A    between atoms: C4_4  and  N1_5 
REMARK    4  A    between atoms: C9_12  and  N3_13 
REMARK    5  A    between atoms: C14_24  and  C15_25 
ROOT
HETATM    1  N1  UNL     1       2.206  -0.346   0.803  1.00  0.00     0.093 N 
HETATM    2  C5  UNL     1       1.731  -0.610   2.144  1.00  0.00     0.279 C 
HETATM    3  C6  UNL     1       0.654  -1.677   2.135  1.00  0.00     0.088 C 
HETATM    4  C7  UNL     1      -0.496  -1.063   1.405  1.00  0.00     0.020 A 
HETATM    5  N2  UNL     1      -1.722  -1.267   1.853  1.00  0.00    -0.355 N 
ATOM      6  H2  UNL     1      -1.875  -1.856   2.672  1.00  0.00     0.166 HD
HETATM    7  C8  UNL     1      -2.747  -0.708   1.240  1.00  0.00     0.089 A 
HETATM    8  C9  UNL     1      -3.982  -0.967   1.773  1.00  0.00     0.128 A 
HETATM    9  N4  UNL     1      -5.055  -0.416   1.189  1.00  0.00    -0.328 N 
ATOM     10  H4  UNL     1      -5.989  -0.588   1.560  1.00  0.00     0.168 HD
HETATM   11  C10 UNL     1      -4.887   0.359   0.118  1.00  0.00     0.139 A 
HETATM   12  N5  UNL     1      -6.052   0.922  -0.463  1.00  0.00    -0.081 NA
HETATM   13  C11 UNL     1      -3.635   0.643  -0.452  1.00  0.00     0.099 A 
HETATM   14  C12 UNL     1      -3.624   1.496  -1.606  1.00  0.00     0.104 C 
HETATM   15  N6  UNL     1      -3.698   2.191  -2.540  1.00  0.00    -0.191 NA
HETATM   16  C13 UNL     1      -2.526   0.109   0.103  1.00  0.00     0.035 A 
HETATM   17  C14 UNL     1      -1.275   0.327  -0.369  1.00  0.00     0.053 A 
HETATM   18  C16 UNL     1      -0.216  -0.291   0.319  1.00  0.00     0.009 A 
HETATM   19  C17 UNL     1       1.146  -0.094  -0.138  1.00  0.00     0.314 C 
ENDROOT
BRANCH  17  20
HETATM   20  C15 UNL     1      -0.920   1.139  -1.503  1.00  0.00     0.266 C 
HETATM   21  N7  UNL     1      -0.789   0.516  -2.790  1.00  0.00    -0.057 NA
HETATM   22  O1  UNL     1      -0.693   2.379  -1.486  1.00  0.00    -0.271 OA
ENDBRANCH  17  20
BRANCH   8  23
HETATM   23  N3  UNL     1      -4.137  -1.725   2.809  1.00  0.00    -0.384 N 
ATOM     24  H32 UNL     1      -3.320  -2.144   3.253  1.00  0.00     0.157 HD
ATOM     25  H31 UNL     1      -5.057  -1.918   3.206  1.00  0.00     0.157 HD
ENDBRANCH   8  23
BRANCH   1  26
HETATM   26  C4  UNL     1       3.097   0.811   0.873  1.00  0.00     0.272 C 
BRANCH  26  27
HETATM   27  C3  UNL     1       3.801   0.956  -0.438  1.00  0.00     0.030 C 
BRANCH  27  28
HETATM   28  C2  UNL     1       4.620  -0.345  -0.607  1.00  0.00    -0.003 C 
HETATM   29  C1  UNL     1       5.346  -0.271  -1.920  1.00  0.00     0.005 C 
ENDBRANCH  27  28
ENDBRANCH  26  27
ENDBRANCH   1  26
TORSDOF 5
