REMARK  10 active torsions:
REMARK  status: ('A' for Active; 'I' for Inactive)
REMARK    1  A    between atoms: C2_2  and  C3_3 
REMARK    2  A    between atoms: C3_3  and  C4_4 
REMARK    3  A    between atoms: C3_3  and  N1_7 
REMARK    4  A    between atoms: C4_4  and  O1_5 
REMARK    5  A    between atoms: N1_7  and  C5_9 
REMARK    6  A    between atoms: C6_12  and  N3_13 
REMARK    7  A    between atoms: C8_18  and  N5_19 
REMARK    8  A    between atoms: C9_20  and  N6_21 
REMARK    9  A    between atoms: C12_31  and  C13_32 
REMARK   10  A    between atoms: C13_32  and  C14_33 
ROOT
HETATM    1  N5  UNL     1       0.827   2.445   0.804  1.00  0.00    -0.113 N 
HETATM    2  C9  UNL     1       1.055   3.500   1.607  1.00  0.00     0.686 A 
HETATM    3  N7  UNL     1       2.375   3.617   1.717  1.00  0.00    -0.182 N 
ATOM      4  H7  UNL     1       2.857   4.330   2.264  1.00  0.00     0.184 HD
HETATM    5  C10 UNL     1       2.982   2.648   0.994  1.00  0.00     0.162 A 
HETATM    6  C11 UNL     1       4.289   2.318   0.766  1.00  0.00     0.278 A 
HETATM    7  O2  UNL     1       5.184   3.022   1.314  1.00  0.00    -0.265 OA
HETATM    8  N8  UNL     1       4.561   1.269  -0.024  1.00  0.00    -0.311 N 
ATOM      9  H8  UNL     1       5.539   1.030  -0.189  1.00  0.00     0.170 HD
HETATM   10  C12 UNL     1       3.617   0.516  -0.610  1.00  0.00     0.086 A 
HETATM   11  N9  UNL     1       2.335   0.846  -0.382  1.00  0.00    -0.329 N 
ATOM     12  H9  UNL     1       1.596   0.292  -0.814  1.00  0.00     0.168 HD
HETATM   13  C18 UNL     1       1.997   1.893   0.405  1.00  0.00     0.165 A 
ENDROOT
BRANCH   1  14
HETATM   14  C8  UNL     1      -0.483   1.973   0.424  1.00  0.00     0.171 A 
HETATM   15  N4  UNL     1      -1.220   2.591  -0.512  1.00  0.00    -0.174 N 
HETATM   16  C6  UNL     1      -2.449   2.148  -0.868  1.00  0.00     0.680 A 
ATOM     17  H4  UNL     1      -0.842   3.421  -0.970  1.00  0.00     0.186 HD
HETATM   18  N2  UNL     1      -2.937   1.058  -0.261  1.00  0.00    -0.175 N 
HETATM   19  C5  UNL     1      -2.280   0.360   0.694  1.00  0.00     0.143 A 
ATOM     20  H2  UNL     1      -3.864   0.733  -0.537  1.00  0.00     0.186 HD
HETATM   21  C19 UNL     1      -1.005   0.861   1.029  1.00  0.00     0.123 A 
HETATM   22 CL1  UNL     1      -0.107  -0.020   2.275  1.00  0.00    -0.076 Cl
BRANCH  16  23
HETATM   23  N3  UNL     1      -3.153   2.735  -1.760  1.00  0.00    -0.230 N 
HETATM   24  C7  UNL     1      -4.456   2.220  -2.099  1.00  0.00     0.165 C 
ATOM     25  H3  UNL     1      -2.793   3.566  -2.230  1.00  0.00     0.177 HD
ENDBRANCH  16  23
BRANCH  19  26
HETATM   26  N1  UNL     1      -2.706  -0.665   1.285  1.00  0.00    -0.368 N 
ATOM     27  H1  UNL     1      -2.041  -1.025   1.969  1.00  0.00     0.161 HD
BRANCH  26  28
HETATM   28  C3  UNL     1      -3.876  -1.427   1.225  1.00  0.00     0.106 C 
BRANCH  28  29
HETATM   29  C2  UNL     1      -4.191  -2.092  -0.092  1.00  0.00     0.023 C 
HETATM   30  C1  UNL     1      -2.982  -2.791  -0.672  1.00  0.00     0.007 C 
ENDBRANCH  28  29
BRANCH  28  31
HETATM   31  C4  UNL     1      -5.129  -0.741   1.749  1.00  0.00     0.189 C 
BRANCH  31  32
HETATM   32  O1  UNL     1      -6.238  -1.546   1.657  1.00  0.00    -0.399 OA
ATOM     33  H1  UNL     1      -7.020  -1.118   1.984  1.00  0.00     0.209 HD
ENDBRANCH  31  32
ENDBRANCH  28  31
ENDBRANCH  26  28
ENDBRANCH  19  26
ENDBRANCH   1  14
BRANCH   2  34
HETATM   34  N6  UNL     1       0.111   4.216   2.133  1.00  0.00    -0.234 N 
ATOM     35  H62 UNL     1      -0.902   4.126   2.049  1.00  0.00     0.174 HD
ATOM     36  H61 UNL     1       0.284   5.016   2.742  1.00  0.00     0.174 HD
ENDBRANCH   2  34
BRANCH  10  37
HETATM   37  C13 UNL     1       4.008  -0.608  -1.455  1.00  0.00     0.085 C 
BRANCH  37  38
HETATM   38  C14 UNL     1       4.160  -1.910  -0.747  1.00  0.00    -0.045 C 
HETATM   39  C15 UNL     1       2.880  -2.361  -0.075  1.00  0.00     0.015 C 
HETATM   40  C16 UNL     1       5.269  -1.935   0.253  1.00  0.00     0.015 C 
HETATM   41  C17 UNL     1       4.483  -2.968  -1.806  1.00  0.00     0.015 C 
ENDBRANCH  37  38
ENDBRANCH  10  37
TORSDOF 10
