REMARK  13 active torsions:
REMARK  status: ('A' for Active; 'I' for Inactive)
REMARK    1  A    between atoms: C2_2  and  C3_3 
REMARK    2  A    between atoms: C2_2  and  C5_7 
REMARK    3  A    between atoms: C5_7  and  O1_9 
REMARK    4  A    between atoms: C5_7  and  C7_11 
REMARK    5  A    between atoms: C12_17  and  O3_18 
REMARK    6  A    between atoms: O3_18  and  C13_19 
REMARK    7  A    between atoms: C13_19  and  C14_21 
REMARK    8  A    between atoms: C14_21  and  C15_22 
REMARK    9  A    between atoms: C14_21  and  N1_29 
REMARK   10  A    between atoms: C15_22  and  C16_23 
REMARK       I    between atoms: N1_29  and  C22_31 
REMARK   11  A    between atoms: C22_31  and  O6_33 
REMARK   12  A    between atoms: O6_33  and  C23_34 
REMARK   13  A    between atoms: C28_39  and  O7_41 
ROOT
HETATM    1  C7  UNL     1       2.946  -0.196  -0.962  1.00  0.00     0.156 C 
HETATM    2  C8  UNL     1       4.125  -1.094  -0.850  1.00  0.00     0.035 C 
HETATM    3  C9  UNL     1       3.652  -2.559  -0.939  1.00  0.00     0.013 C 
HETATM    4  C10 UNL     1       2.606  -2.709   0.104  1.00  0.00     0.051 C 
HETATM    5  C11 UNL     1       1.455  -1.792  -0.349  1.00  0.00     0.158 C 
HETATM    6  O2  UNL     1       1.910  -0.522  -0.082  1.00  0.00    -0.374 OA
HETATM    7  C12 UNL     1       0.383  -2.250   0.612  1.00  0.00     0.164 C 
HETATM    8  C27 UNL     1       0.491  -3.715   0.626  1.00  0.00     0.073 C 
HETATM    9  C28 UNL     1       1.919  -4.016   0.157  1.00  0.00     0.063 C 
HETATM   10  C29 UNL     1       1.958  -4.801  -1.117  1.00  0.00     0.046 C 
ENDROOT
BRANCH   7  11
HETATM   11  O3  UNL     1      -0.876  -1.725   0.312  1.00  0.00    -0.312 OA
BRANCH  11  12
HETATM   12  C13 UNL     1      -1.517  -0.743   1.112  1.00  0.00     0.282 C 
HETATM   13  O4  UNL     1      -0.839  -0.395   2.100  1.00  0.00    -0.263 OA
BRANCH  12  14
HETATM   14  C14 UNL     1      -2.842  -0.227   0.752  1.00  0.00     0.190 C 
BRANCH  14  15
HETATM   15  C15 UNL     1      -3.950  -1.093   1.323  1.00  0.00     0.074 C 
BRANCH  15  16
HETATM   16  C16 UNL     1      -3.931  -2.481   0.872  1.00  0.00    -0.056 A 
HETATM   17  C17 UNL     1      -4.622  -2.827  -0.287  1.00  0.00     0.007 A 
HETATM   18  C18 UNL     1      -4.631  -4.135  -0.719  1.00  0.00     0.001 A 
HETATM   19  C19 UNL     1      -3.953  -5.101  -0.003  1.00  0.00     0.000 A 
HETATM   20  C20 UNL     1      -3.261  -4.778   1.148  1.00  0.00     0.001 A 
HETATM   21  C21 UNL     1      -3.257  -3.468   1.575  1.00  0.00     0.007 A 
ENDBRANCH  15  16
ENDBRANCH  14  15
BRANCH  14  22
HETATM   22  N1  UNL     1      -3.091   1.102   1.325  1.00  0.00    -0.323 N 
HETATM   23  C22 UNL     1      -3.596   2.145   0.500  1.00  0.00     0.362 C 
HETATM   24  O5  UNL     1      -3.849   1.950  -0.730  1.00  0.00    -0.238 OA
ATOM     25  H1  UNL     1      -2.902   1.277   2.312  1.00  0.00     0.165 HD
BRANCH  23  26
HETATM   26  O6  UNL     1      -3.836   3.417   0.992  1.00  0.00    -0.294 OA
BRANCH  26  27
HETATM   27  C23 UNL     1      -4.364   4.407   0.110  1.00  0.00     0.061 C 
HETATM   28  C24 UNL     1      -5.726   3.992  -0.402  1.00  0.00     0.046 C 
HETATM   29  C25 UNL     1      -4.483   5.695   0.870  1.00  0.00     0.046 C 
HETATM   30  C26 UNL     1      -3.454   4.610  -1.094  1.00  0.00     0.046 C 
ENDBRANCH  26  27
ENDBRANCH  23  26
ENDBRANCH  14  22
ENDBRANCH  12  14
ENDBRANCH  11  12
ENDBRANCH   7  11
BRANCH   9  31
HETATM   31  O7  UNL     1       2.519  -4.792   1.150  1.00  0.00    -0.390 OA
ATOM     32  H7  UNL     1       2.077  -5.632   1.184  1.00  0.00     0.210 HD
ENDBRANCH   9  31
BRANCH   1  33
HETATM   33  C5  UNL     1       3.264   1.256  -0.657  1.00  0.00     0.089 C 
HETATM   34  C6  UNL     1       3.519   1.413   0.800  1.00  0.00     0.049 C 
BRANCH  33  35
HETATM   35  C2  UNL     1       4.244   1.878  -1.574  1.00  0.00     0.090 C 
HETATM   36  C1  UNL     1       5.662   1.446  -1.477  1.00  0.00     0.019 C 
BRANCH  35  37
HETATM   37  C3  UNL     1       4.159   3.402  -1.627  1.00  0.00     0.246 C 
HETATM   38  C4  UNL     1       4.739   4.062  -0.422  1.00  0.00     0.090 C 
HETATM   39  F1  UNL     1       2.910   3.821  -1.933  1.00  0.00    -0.206 F 
HETATM   40  F2  UNL     1       4.975   3.752  -2.719  1.00  0.00    -0.206 F 
ENDBRANCH  35  37
ENDBRANCH  33  35
BRANCH  33  41
HETATM   41  O1  UNL     1       1.993   1.904  -0.886  1.00  0.00    -0.387 OA
ATOM     42  H1  UNL     1       1.364   1.505  -0.297  1.00  0.00     0.210 HD
ENDBRANCH  33  41
ENDBRANCH   1  33
TORSDOF 13
