REMARK  9 active torsions:
REMARK  status: ('A' for Active; 'I' for Inactive)
REMARK    1  A    between atoms: C2_2  and  O1_4 
REMARK    2  A    between atoms: O1_4  and  C4_5 
REMARK    3  A    between atoms: C5_8  and  N2_9 
REMARK    4  A    between atoms: N2_9  and  C6_11 
REMARK    5  A    between atoms: N3_14  and  C9_15 
REMARK    6  A    between atoms: C9_15  and  N4_17 
REMARK    7  A    between atoms: N4_17  and  C10_19 
REMARK    8  A    between atoms: C13_22  and  S2_23 
REMARK    9  A    between atoms: C17_29  and  C18_30 
ROOT
HETATM    1  C6  UNL     1      -1.538  -1.686  -3.033  1.00  0.00     0.118 C 
HETATM    2  C7  UNL     1      -1.468  -2.567  -1.843  1.00  0.00     0.047 C 
HETATM    3  C8  UNL     1       0.033  -2.404  -1.490  1.00  0.00     0.128 C 
HETATM    4  N3  UNL     1       0.255  -0.992  -1.725  1.00  0.00    -0.341 N 
HETATM    5  C17 UNL     1      -0.676  -0.496  -2.703  1.00  0.00     0.210 C 
ENDROOT
BRANCH   1   6
HETATM    6  N2  UNL     1      -2.861  -1.366  -3.477  1.00  0.00    -0.368 N 
ATOM      7  H2  UNL     1      -3.129  -1.640  -4.422  1.00  0.00     0.161 HD
BRANCH   6   8
HETATM    8  C5  UNL     1      -3.807  -0.700  -2.691  1.00  0.00     0.125 A 
HETATM    9  N1  UNL     1      -3.571  -0.289  -1.436  1.00  0.00    -0.321 N 
HETATM   10  C4  UNL     1      -4.459   0.351  -0.663  1.00  0.00     0.166 A 
ATOM     11  H1  UNL     1      -2.649  -0.477  -1.042  1.00  0.00     0.169 HD
HETATM   12  C21 UNL     1      -5.696   0.588  -1.233  1.00  0.00     0.086 A 
HETATM   13  C20 UNL     1      -5.993   0.186  -2.522  1.00  0.00     0.056 A 
HETATM   14 CL2  UNL     1      -6.907   1.416  -0.290  1.00  0.00    -0.080 Cl
HETATM   15  C19 UNL     1      -5.057  -0.467  -3.281  1.00  0.00     0.079 A 
HETATM   16 CL1  UNL     1      -5.400  -0.995  -4.930  1.00  0.00    -0.080 Cl
BRANCH  10  17
HETATM   17  O1  UNL     1      -4.203   0.771   0.632  1.00  0.00    -0.330 OA
BRANCH  17  18
HETATM   18  C2  UNL     1      -3.002   0.593   1.310  1.00  0.00     0.122 C 
HETATM   19  C1  UNL     1      -3.320  -0.170   2.601  1.00  0.00     0.040 C 
HETATM   20  C3  UNL     1      -2.489   1.955   1.746  1.00  0.00     0.040 C 
ENDBRANCH  17  18
ENDBRANCH  10  17
ENDBRANCH   6   8
ENDBRANCH   1   6
BRANCH   5  21
HETATM   21  C18 UNL     1       0.024  -0.006  -3.932  1.00  0.00     0.199 C 
HETATM   22  O4  UNL     1      -0.671   0.533  -4.818  1.00  0.00    -0.646 OA
HETATM   23  O5  UNL     1       1.379  -0.143  -4.089  1.00  0.00    -0.646 OA
ENDBRANCH   5  21
BRANCH   4  24
HETATM   24  C9  UNL     1       1.277  -0.237  -1.049  1.00  0.00     0.175 C 
HETATM   25  S1  UNL     1       1.347   1.355  -1.380  1.00  0.00    -0.041 SA
BRANCH  24  26
HETATM   26  N4  UNL     1       2.137  -0.854  -0.115  1.00  0.00    -0.333 N 
ATOM     27  H4  UNL     1       1.971  -1.848   0.044  1.00  0.00     0.168 HD
BRANCH  26  28
HETATM   28  C10 UNL     1       3.187  -0.291   0.624  1.00  0.00     0.034 A 
HETATM   29  C11 UNL     1       3.940   0.790   0.217  1.00  0.00     0.031 A 
HETATM   30  C12 UNL     1       4.935   1.273   1.067  1.00  0.00     0.025 A 
HETATM   31  C13 UNL     1       5.179   0.698   2.288  1.00  0.00     0.059 A 
HETATM   32  C15 UNL     1       4.422  -0.381   2.682  1.00  0.00     0.025 A 
HETATM   33  C16 UNL     1       3.438  -0.878   1.871  1.00  0.00     0.031 A 
BRANCH  31  34
HETATM   34  S2  UNL     1       6.418   1.311   3.330  1.00  0.00     0.171 S 
HETATM   35  C14 UNL     1       5.809   2.570   4.436  1.00  0.00     0.167 C 
HETATM   36  O2  UNL     1       7.077   0.205   4.133  1.00  0.00    -0.223 OA
HETATM   37  O3  UNL     1       7.517   1.899   2.467  1.00  0.00    -0.223 OA
ENDBRANCH  31  34
ENDBRANCH  26  28
ENDBRANCH  24  26
ENDBRANCH   4  24
TORSDOF 9
