REMARK  8 active torsions:
REMARK  status: ('A' for Active; 'I' for Inactive)
REMARK    1  A    between atoms: C3_4  and  S2_5 
REMARK    2  A    between atoms: S2_5  and  N1_8 
REMARK    3  A    between atoms: C6_11  and  C7_12 
REMARK    4  A    between atoms: C7_12  and  O4_14 
REMARK    5  A    between atoms: O4_14  and  C8_15 
REMARK    6  A    between atoms: C8_15  and  C10_17 
REMARK    7  A    between atoms: C10_17  and  C11_18 
REMARK    8  A    between atoms: C11_18  and  N2_19 
ROOT
HETATM    1  C1  UNL     1      -4.371   2.127   2.838  1.00  0.00     0.058 C 
HETATM    2  C2  UNL     1      -3.780   1.667   1.525  1.00  0.00     0.005 A 
HETATM    3  S1  UNL     1      -4.550   1.483   0.037  1.00  0.00    -0.079 SA
HETATM    4  C3  UNL     1      -3.195   0.931  -0.917  1.00  0.00     0.134 A 
HETATM    5  C6  UNL     1      -2.189   0.918  -0.004  1.00  0.00     0.094 A 
HETATM    6  C13 UNL     1      -2.497   1.301   1.265  1.00  0.00     0.077 A 
HETATM    7  N5  UNL     1      -1.535   1.346   2.370  1.00  0.00    -0.100 NA
ENDROOT
BRANCH   5   8
HETATM    8  C7  UNL     1      -0.794   0.504  -0.342  1.00  0.00     0.297 C 
HETATM    9  O3  UNL     1      -0.451   0.147  -1.467  1.00  0.00    -0.259 OA
BRANCH   8  10
HETATM   10  O4  UNL     1       0.225   0.496   0.615  1.00  0.00    -0.312 OA
BRANCH  10  11
HETATM   11  C8  UNL     1       1.555   0.102   0.298  1.00  0.00     0.129 C 
HETATM   12  C9  UNL     1       1.890  -1.159   1.052  1.00  0.00     0.040 C 
BRANCH  11  13
HETATM   13  C10 UNL     1       2.537   1.195   0.524  1.00  0.00     0.051 C 
BRANCH  13  14
HETATM   14  C11 UNL     1       3.950   0.839   0.193  1.00  0.00     0.124 C 
BRANCH  14  15
HETATM   15  N2  UNL     1       4.500  -0.253   0.956  1.00  0.00    -0.367 N 
HETATM   16  C12 UNL     1       5.562  -0.828   0.506  1.00  0.00     0.196 C 
HETATM   17  N3  UNL     1       6.191  -0.417  -0.701  1.00  0.00    -0.067 NA
HETATM   18  N4  UNL     1       6.125  -1.913   1.246  1.00  0.00    -0.067 NA
ATOM     19  H2  UNL     1       4.063  -0.561   1.825  1.00  0.00     0.161 HD
ENDBRANCH  14  15
ENDBRANCH  13  14
ENDBRANCH  11  13
ENDBRANCH  10  11
ENDBRANCH   8  10
ENDBRANCH   5   8
BRANCH   4  20
HETATM   20  S2  UNL     1      -3.314   0.538  -2.625  1.00  0.00     0.250 S 
HETATM   21  O1  UNL     1      -2.113   0.837  -3.427  1.00  0.00    -0.205 OA
HETATM   22  O2  UNL     1      -4.527   1.288  -3.192  1.00  0.00    -0.205 OA
BRANCH  20  23
HETATM   23  N1  UNL     1      -3.702  -1.128  -2.772  1.00  0.00    -0.214 NA
HETATM   24  C4  UNL     1      -2.634  -1.856  -3.410  1.00  0.00     0.129 C 
HETATM   25  C5  UNL     1      -3.956  -1.690  -1.468  1.00  0.00     0.129 C 
ENDBRANCH  20  23
ENDBRANCH   4  20
TORSDOF 8
