REMARK  6 active torsions:
REMARK  status: ('A' for Active; 'I' for Inactive)
REMARK    1  A    between atoms: C3_7  and  N3_8 
REMARK    2  A    between atoms: N3_8  and  C4_10 
REMARK    3  A    between atoms: C4_10  and  C5_11 
REMARK    4  A    between atoms: C10_20  and  N6_21 
REMARK    5  A    between atoms: N6_21  and  C11_23 
REMARK    6  A    between atoms: C14_26  and  C15_27 
ROOT
HETATM    1  C1  UNL     1      -2.487  -4.808  -0.432  1.00  0.00     0.165 C 
HETATM    2  N1  UNL     1      -1.334  -3.956  -0.434  1.00  0.00    -0.229 N 
ATOM      3  H1  UNL     1      -0.424  -4.385  -0.604  1.00  0.00     0.177 HD
HETATM    4  C2  UNL     1      -1.373  -2.694  -0.236  1.00  0.00     0.706 A 
HETATM    5  N2  UNL     1      -2.535  -2.074  -0.019  1.00  0.00    -0.021 N 
ATOM      6  H2  UNL     1      -3.409  -2.599  -0.054  1.00  0.00     0.203 HD
HETATM    7  C3  UNL     1      -2.552  -0.762   0.245  1.00  0.00     0.711 A 
HETATM    8  N5  UNL     1      -1.383  -0.051   0.292  1.00  0.00    -0.021 N 
ATOM      9  H5  UNL     1      -1.401   0.949   0.493  1.00  0.00     0.203 HD
HETATM   10  C10 UNL     1      -0.190  -0.683   0.069  1.00  0.00     0.711 A 
HETATM   11  N7  UNL     1      -0.188  -1.983  -0.187  1.00  0.00    -0.021 N 
ATOM     12  H7  UNL     1       0.697  -2.464  -0.350  1.00  0.00     0.203 HD
ENDROOT
BRANCH  10  13
HETATM   13  N6  UNL     1       0.831   0.017   0.140  1.00  0.00    -0.191 N 
ATOM     14  H6  UNL     1       0.500   0.958   0.354  1.00  0.00     0.184 HD
BRANCH  13  15
HETATM   15  C11 UNL     1       2.173   0.119   0.067  1.00  0.00     0.051 A 
HETATM   16  C12 UNL     1       3.133  -0.856   0.294  1.00  0.00     0.031 A 
HETATM   17  C13 UNL     1       4.482  -0.625   0.212  1.00  0.00     0.015 A 
HETATM   18  C14 UNL     1       4.982   0.652  -0.114  1.00  0.00    -0.013 A 
HETATM   19  C18 UNL     1       4.056   1.641  -0.343  1.00  0.00     0.046 A 
HETATM   20 CL1  UNL     1       4.638   3.299  -0.646  1.00  0.00    -0.083 Cl
HETATM   21  C19 UNL     1       2.722   1.388  -0.258  1.00  0.00     0.054 A 
BRANCH  18  22
HETATM   22  C15 UNL     1       6.404   0.812  -0.368  1.00  0.00    -0.076 C 
HETATM   23  C16 UNL     1       7.350   0.294   0.657  1.00  0.00     0.044 C 
HETATM   24  C17 UNL     1       6.924   1.866  -1.236  1.00  0.00     0.044 C 
ENDBRANCH  18  22
ENDBRANCH  13  15
ENDBRANCH  10  13
BRANCH   7  25
HETATM   25  N3  UNL     1      -3.591  -0.105   0.486  1.00  0.00    -0.199 N 
ATOM     26  H3  UNL     1      -3.384   0.878   0.662  1.00  0.00     0.183 HD
BRANCH  25  27
HETATM   27  C4  UNL     1      -4.951  -0.369   0.576  1.00  0.00     0.135 C 
BRANCH  27  28
HETATM   28  C5  UNL     1      -5.752   0.855   0.195  1.00  0.00     0.048 A 
HETATM   29  C6  UNL     1      -5.483   2.054   0.841  1.00  0.00     0.031 A 
HETATM   30  C7  UNL     1      -6.162   3.200   0.482  1.00  0.00     0.004 A 
HETATM   31  C8  UNL     1      -7.111   3.163  -0.522  1.00  0.00     0.017 A 
HETATM   32  C9  UNL     1      -7.349   1.954  -1.138  1.00  0.00     0.088 A 
HETATM   33  N4  UNL     1      -6.661   0.838  -0.757  1.00  0.00    -0.365 N 
ATOM     34  H4  UNL     1      -6.859  -0.044  -1.229  1.00  0.00     0.165 HD
ENDBRANCH  27  28
ENDBRANCH  25  27
ENDBRANCH   7  25
TORSDOF 6
