REMARK  7 active torsions:
REMARK  status: ('A' for Active; 'I' for Inactive)
REMARK    1  A    between atoms: C2_2  and  O1_3 
REMARK    2  A    between atoms: O1_3  and  C3_4 
REMARK    3  A    between atoms: C5_6  and  C6_7 
REMARK    4  A    between atoms: C6_7  and  C7_8 
REMARK    5  A    between atoms: C9_14  and  C10_15 
REMARK    6  A    between atoms: C10_15  and  C11_16 
REMARK    7  A    between atoms: C22_31  and  O3_32 
ROOT
HETATM    1  C7  UNL     1       0.834  -0.540  -0.303  1.00  0.00     0.099 A 
HETATM    2  N1  UNL     1       0.461   0.054   0.844  1.00  0.00    -0.297 N 
ATOM      3  H1  UNL     1       1.171   0.243   1.552  1.00  0.00     0.187 HD
HETATM    4  N2  UNL     1      -0.795   0.404   1.090  1.00  0.00    -0.310 N 
ATOM      5  H2  UNL     1      -1.009   0.852   1.981  1.00  0.00     0.186 HD
HETATM    6  C8  UNL     1      -1.799   0.196   0.221  1.00  0.00     0.122 A 
HETATM    7  C9  UNL     1      -1.493  -0.410  -0.979  1.00  0.00     0.034 A 
HETATM    8  C19 UNL     1      -0.162  -0.774  -1.226  1.00  0.00     0.211 A 
HETATM    9  O2  UNL     1       0.112  -1.326  -2.319  1.00  0.00    -0.285 OA
ENDROOT
BRANCH   1  10
HETATM   10  C6  UNL     1       2.083  -0.896  -0.562  1.00  0.00     0.046 C 
BRANCH  10  11
HETATM   11  C5  UNL     1       3.165  -0.666   0.388  1.00  0.00    -0.031 A 
HETATM   12  C4  UNL     1       3.752   0.573   0.553  1.00  0.00     0.051 A 
HETATM   13  C3  UNL     1       4.776   0.768   1.459  1.00  0.00     0.102 A 
HETATM   14  C22 UNL     1       5.269  -0.266   2.250  1.00  0.00     0.099 A 
HETATM   15  C21 UNL     1       4.680  -1.495   2.081  1.00  0.00     0.040 A 
HETATM   16  C20 UNL     1       3.656  -1.691   1.176  1.00  0.00     0.014 A 
BRANCH  13  17
HETATM   17  O1  UNL     1       5.372   2.004   1.632  1.00  0.00    -0.349 OA
BRANCH  17  18
HETATM   18  C2  UNL     1       5.074   3.186   0.968  1.00  0.00     0.171 C 
HETATM   19  C1  UNL     1       5.261   3.157  -0.522  1.00  0.00     0.034 C 
ENDBRANCH  17  18
ENDBRANCH  13  17
BRANCH  14  20
HETATM   20  O3  UNL     1       6.302  -0.050   3.159  1.00  0.00    -0.358 OA
ATOM     21  H3  UNL     1       6.638  -0.756   3.699  1.00  0.00     0.217 HD
ENDBRANCH  14  20
ENDBRANCH  10  11
ENDBRANCH   1  10
BRANCH   7  22
HETATM   22  C10 UNL     1      -2.442  -0.630  -1.851  1.00  0.00     0.030 C 
BRANCH  22  23
HETATM   23  C11 UNL     1      -3.815  -0.245  -1.576  1.00  0.00    -0.004 A 
HETATM   24  C12 UNL     1      -4.343   1.021  -1.710  1.00  0.00     0.100 A 
HETATM   25  N3  UNL     1      -5.642   1.001  -1.367  1.00  0.00    -0.364 N 
HETATM   26  C13 UNL     1      -6.003  -0.264  -1.002  1.00  0.00     0.046 A 
ATOM     27  H3  UNL     1      -6.264   1.809  -1.378  1.00  0.00     0.165 HD
HETATM   28  C14 UNL     1      -7.199  -0.797  -0.576  1.00  0.00     0.030 A 
HETATM   29  C18 UNL     1      -4.862  -1.027  -1.135  1.00  0.00     0.041 A 
HETATM   30  C15 UNL     1      -7.276  -2.135  -0.268  1.00  0.00     0.005 A 
HETATM   31  C16 UNL     1      -6.143  -2.907  -0.398  1.00  0.00     0.043 A 
HETATM   32  C17 UNL     1      -4.951  -2.371  -0.824  1.00  0.00     0.129 A 
HETATM   33  F1  UNL     1      -3.816  -3.108  -0.961  1.00  0.00    -0.205 F 
ENDBRANCH  22  23
ENDBRANCH   7  22
TORSDOF 7
