REMARK  7 active torsions:
REMARK  status: ('A' for Active; 'I' for Inactive)
REMARK    1  A    between atoms: N1_2  and  C2_4 
REMARK    2  A    between atoms: C3_7  and  N3_8 
REMARK    3  A    between atoms: N3_8  and  C4_10 
REMARK    4  A    between atoms: C4_10  and  C5_11 
REMARK    5  A    between atoms: C8_14  and  N4_15 
REMARK    6  A    between atoms: C13_22  and  N6_23 
REMARK    7  A    between atoms: N6_23  and  C14_25 
ROOT
HETATM    1  C2  UNL     1       0.454   2.783  -1.290  1.00  0.00     0.706 A 
HETATM    2  N2  UNL     1       0.066   1.551  -1.680  1.00  0.00    -0.022 N 
ATOM      3  H2  UNL     1      -0.727   1.444  -2.313  1.00  0.00     0.203 HD
HETATM    4  C3  UNL     1       0.722   0.465  -1.236  1.00  0.00     0.707 A 
HETATM    5  N5  UNL     1       1.762   0.633  -0.404  1.00  0.00    -0.021 N 
ATOM      6  H5  UNL     1       2.261  -0.190  -0.066  1.00  0.00     0.203 HD
HETATM    7  C13 UNL     1       2.166   1.848  -0.003  1.00  0.00     0.711 A 
HETATM    8  N7  UNL     1       1.501   2.923  -0.455  1.00  0.00    -0.021 N 
ATOM      9  H7  UNL     1       1.792   3.856  -0.163  1.00  0.00     0.203 HD
ENDROOT
BRANCH   4  10
HETATM   10  N3  UNL     1       0.400  -0.740  -1.571  1.00  0.00    -0.221 N 
ATOM     11  H3  UNL     1       0.952  -1.508  -1.189  1.00  0.00     0.178 HD
BRANCH  10  12
HETATM   12  C4  UNL     1      -0.685  -1.062  -2.447  1.00  0.00     0.176 C 
BRANCH  12  13
HETATM   13  C5  UNL     1      -1.973  -1.215  -1.711  1.00  0.00    -0.040 A 
HETATM   14  C6  UNL     1      -3.169  -1.410  -2.351  1.00  0.00     0.011 A 
HETATM   15  C7  UNL     1      -4.305  -1.539  -1.587  1.00  0.00     0.030 A 
HETATM   16  C8  UNL     1      -4.255  -1.476  -0.205  1.00  0.00     0.029 A 
HETATM   17  C11 UNL     1      -3.060  -1.280   0.450  1.00  0.00     0.030 A 
HETATM   18  C12 UNL     1      -1.912  -1.150  -0.325  1.00  0.00     0.011 A 
BRANCH  16  19
HETATM   19  N4  UNL     1      -5.432  -1.606   0.573  1.00  0.00    -0.390 N 
HETATM   20  C9  UNL     1      -6.136  -0.378   0.895  1.00  0.00     0.149 C 
HETATM   21  C10 UNL     1      -5.907  -2.901   1.021  1.00  0.00     0.149 C 
ENDBRANCH  16  19
ENDBRANCH  12  13
ENDBRANCH  10  12
ENDBRANCH   4  10
BRANCH   1  22
HETATM   22  N1  UNL     1      -0.210   3.792  -1.746  1.00  0.00    -0.229 N 
HETATM   23  C1  UNL     1       0.136   5.152  -1.380  1.00  0.00     0.165 C 
ATOM     24  H1  UNL     1      -0.995   3.629  -2.377  1.00  0.00     0.177 HD
ENDBRANCH   1  22
BRANCH   7  25
HETATM   25  N6  UNL     1       3.176   1.979   0.802  1.00  0.00    -0.191 N 
ATOM     26  H6  UNL     1       3.461   2.915   1.091  1.00  0.00     0.184 HD
BRANCH  25  27
HETATM   27  C14 UNL     1       3.897   0.857   1.293  1.00  0.00     0.050 A 
HETATM   28  C15 UNL     1       3.692   0.330   2.552  1.00  0.00     0.033 A 
HETATM   29  C16 UNL     1       4.419  -0.770   2.995  1.00  0.00     0.045 A 
HETATM   30  C17 UNL     1       5.368  -1.373   2.197  1.00  0.00     0.122 A 
HETATM   31  F1  UNL     1       6.071  -2.450   2.646  1.00  0.00    -0.206 F 
HETATM   32  C18 UNL     1       5.583  -0.853   0.930  1.00  0.00    -0.021 A 
HETATM   33  C19 UNL     1       6.596  -1.474   0.043  1.00  0.00     0.051 C 
HETATM   34  C20 UNL     1       4.857   0.232   0.509  1.00  0.00     0.039 A 
ENDBRANCH  25  27
ENDBRANCH   7  25
TORSDOF 7
