REMARK  9 active torsions:
REMARK  status: ('A' for Active; 'I' for Inactive)
REMARK    1  A    between atoms: C1_2  and  C2_3 
REMARK       I    between atoms: C1_2  and  N2_27 
REMARK    2  A    between atoms: C2_3  and  C3_4 
REMARK    3  A    between atoms: C9_10  and  C10_11 
REMARK    4  A    between atoms: C10_11  and  C11_12 
REMARK    5  A    between atoms: C11_12  and  C12_13 
REMARK    6  A    between atoms: C12_13  and  N1_14 
REMARK    7  A    between atoms: N2_27  and  C25_29 
REMARK    8  A    between atoms: C25_29  and  C26_30 
REMARK    9  A    between atoms: C26_30  and  C27_31 
ROOT
HETATM    1  C3  UNL     1       1.002   1.327   0.606  1.00  0.00     0.007 C 
HETATM    2  C4  UNL     1       1.261  -0.138   0.328  1.00  0.00     0.015 C 
HETATM    3  C5  UNL     1       0.600  -1.018   1.363  1.00  0.00     0.019 C 
HETATM    4  C6  UNL     1       0.689  -2.445   0.957  1.00  0.00     0.009 C 
HETATM    5  C7  UNL     1      -0.211  -2.900  -0.131  1.00  0.00     0.005 C 
HETATM    6  C8  UNL     1      -1.607  -2.298  -0.093  1.00  0.00     0.039 C 
HETATM    7  C9  UNL     1      -1.812  -1.718   1.281  1.00  0.00    -0.055 C 
HETATM    8  C19 UNL     1      -0.844  -0.632   1.436  1.00  0.00    -0.051 C 
HETATM    9  C20 UNL     1      -1.099   0.643   1.623  1.00  0.00    -0.009 C 
HETATM   10  C21 UNL     1       0.071   1.567   1.740  1.00  0.00    -0.018 C 
HETATM   11  C22 UNL     1      -0.421   3.009   1.855  1.00  0.00     0.014 C 
HETATM   12  C23 UNL     1      -0.382   2.816   3.353  1.00  0.00     0.002 C 
HETATM   13  C24 UNL     1       0.566   1.652   3.121  1.00  0.00     0.014 C 
ENDROOT
BRANCH   1  14
HETATM   14  C2  UNL     1       2.347   1.982   0.762  1.00  0.00     0.108 C 
BRANCH  14  15
HETATM   15  C1  UNL     1       3.103   1.793  -0.525  1.00  0.00     0.217 C 
HETATM   16  O1  UNL     1       2.575   1.200  -1.504  1.00  0.00    -0.274 OA
HETATM   17  N2  UNL     1       4.425   2.289  -0.639  1.00  0.00    -0.361 N 
ATOM     18  H2  UNL     1       4.812   2.762   0.178  1.00  0.00     0.162 HD
BRANCH  17  19
HETATM   19  C25 UNL     1       5.268   2.190  -1.787  1.00  0.00     0.123 C 
BRANCH  19  20
HETATM   20  C26 UNL     1       5.563   0.767  -2.209  1.00  0.00     0.024 C 
BRANCH  20  21
HETATM   21  C27 UNL     1       6.244  -0.039  -1.151  1.00  0.00    -0.010 C 
HETATM   22  C28 UNL     1       6.467  -1.446  -1.728  1.00  0.00     0.032 C 
HETATM   23  C29 UNL     1       7.209  -2.208  -0.633  1.00  0.00     0.232 C 
HETATM   24  N3  UNL     1       8.578  -1.754  -0.627  1.00  0.00    -0.075 N 
HETATM   25  C30 UNL     1       8.726  -0.398  -1.071  1.00  0.00     0.232 C 
ATOM     26  H32 UNL     1       8.999  -1.882   0.293  1.00  0.00     0.277 HD
ATOM     27  H31 UNL     1       9.170  -2.381  -1.172  1.00  0.00     0.277 HD
HETATM   28  C31 UNL     1       7.559   0.493  -0.689  1.00  0.00     0.032 C 
ENDBRANCH  20  21
ENDBRANCH  19  20
ENDBRANCH  17  19
ENDBRANCH  14  15
ENDBRANCH   1  14
BRANCH   7  29
HETATM   29  C10 UNL     1      -3.158  -1.603   1.804  1.00  0.00    -0.018 C 
BRANCH  29  30
HETATM   30  C11 UNL     1      -4.238  -0.853   1.163  1.00  0.00     0.047 C 
BRANCH  30  31
HETATM   31  C12 UNL     1      -4.663  -1.306  -0.213  1.00  0.00     0.125 C 
BRANCH  31  32
HETATM   32  N1  UNL     1      -5.736  -0.513  -0.736  1.00  0.00    -0.393 N 
HETATM   33  C13 UNL     1      -6.955  -0.730  -0.068  1.00  0.00     0.122 C 
HETATM   34  C14 UNL     1      -7.666   0.588   0.272  1.00  0.00     0.020 C 
HETATM   35  C15 UNL     1      -7.362   1.551  -0.865  1.00  0.00     0.002 C 
HETATM   36  C16 UNL     1      -7.920   0.952  -2.114  1.00  0.00     0.005 C 
HETATM   37  C17 UNL     1      -7.061  -0.071  -2.764  1.00  0.00     0.044 C 
HETATM   38  C18 UNL     1      -5.742  -0.335  -2.133  1.00  0.00     0.058 C 
ENDBRANCH  31  32
ENDBRANCH  30  31
ENDBRANCH  29  30
ENDBRANCH   7  29
TORSDOF 9
