REMARK  13 active torsions:
REMARK  status: ('A' for Active; 'I' for Inactive)
REMARK    1  A    between atoms: O1_2  and  C2_3 
REMARK    2  A    between atoms: C8_9  and  O2_10 
REMARK    3  A    between atoms: O2_10  and  C9_11 
REMARK    4  A    between atoms: C9_11  and  C10_12 
REMARK    5  A    between atoms: C10_12  and  C11_13 
REMARK    6  A    between atoms: C11_13  and  N1_14 
REMARK    7  A    between atoms: C24_27  and  C25_28 
REMARK    8  A    between atoms: C25_28  and  S1_29 
REMARK    9  A    between atoms: S1_29  and  C26_30 
REMARK   10  A    between atoms: C27_32  and  C28_33 
REMARK   11  A    between atoms: C28_33  and  O4_34 
REMARK   12  A    between atoms: C29_36  and  O5_37 
REMARK   13  A    between atoms: C32_42  and  O6_43 
ROOT
HETATM    1  C2  UNL     1      -0.218  -2.365  -0.826  1.00  0.00     0.126 C 
HETATM    2  C3  UNL     1      -1.489  -2.676   0.018  1.00  0.00     0.038 C 
HETATM    3  C4  UNL     1      -2.321  -1.434  -0.127  1.00  0.00     0.007 C 
HETATM    4  C5  UNL     1      -3.516  -1.652   0.788  1.00  0.00    -0.017 C 
HETATM    5  C6  UNL     1      -3.195  -1.741   2.230  1.00  0.00     0.018 C 
HETATM    6  C7  UNL     1      -4.146  -2.958   0.379  1.00  0.00     0.018 C 
HETATM    7  C8  UNL     1      -4.470  -0.524   0.422  1.00  0.00     0.129 C 
HETATM    8  C16 UNL     1      -3.881   0.726   0.893  1.00  0.00     0.033 C 
HETATM    9  C17 UNL     1      -2.379   0.743   1.058  1.00  0.00     0.012 C 
HETATM   10  C18 UNL     1      -1.617  -0.137   0.080  1.00  0.00    -0.035 C 
HETATM   11  C19 UNL     1      -1.631   0.693  -1.201  1.00  0.00     0.016 C 
HETATM   12  C20 UNL     1      -0.193  -0.295   0.586  1.00  0.00     0.001 C 
HETATM   13  C21 UNL     1       0.529   1.008   0.325  1.00  0.00     0.006 C 
HETATM   14  C22 UNL     1       1.967   0.973   0.798  1.00  0.00     0.006 C 
HETATM   15  C23 UNL     1       2.665  -0.319   0.629  1.00  0.00    -0.001 C 
HETATM   16  C24 UNL     1       4.103  -0.039   0.216  1.00  0.00     0.002 C 
HETATM   17  C31 UNL     1       4.219   0.535  -1.146  1.00  0.00     0.037 C 
HETATM   18  C32 UNL     1       3.070   0.250  -2.055  1.00  0.00     0.119 C 
HETATM   19  C33 UNL     1       2.191  -0.890  -1.743  1.00  0.00     0.041 C 
HETATM   20  C34 UNL     1       1.998  -1.269  -0.310  1.00  0.00    -0.031 C 
HETATM   21  C35 UNL     1       2.673  -2.644  -0.132  1.00  0.00     0.016 C 
HETATM   22  C36 UNL     1       0.557  -1.485   0.098  1.00  0.00     0.028 C 
ENDROOT
BRANCH  16  23
HETATM   23  C25 UNL     1       4.777   0.696   1.329  1.00  0.00     0.082 C 
BRANCH  23  24
HETATM   24  S1  UNL     1       6.470   1.144   1.150  1.00  0.00    -0.126 SA
BRANCH  24  25
HETATM   25  C26 UNL     1       7.658  -0.147   0.937  1.00  0.00     0.246 C 
HETATM   26  O3  UNL     1       8.387   0.088  -0.262  1.00  0.00    -0.356 OA
HETATM   27  C27 UNL     1       9.221   1.175   0.028  1.00  0.00     0.177 C 
HETATM   28  C29 UNL     1      10.571   0.678   0.425  1.00  0.00     0.158 C 
HETATM   29  C30 UNL     1      10.522   0.012   1.795  1.00  0.00     0.111 C 
HETATM   30  S2  UNL     1       8.814  -0.313   2.294  1.00  0.00    -0.124 SA
BRANCH  27  31
HETATM   31  C28 UNL     1       9.336   2.096  -1.156  1.00  0.00     0.198 C 
BRANCH  31  32
HETATM   32  O4  UNL     1       8.081   2.583  -1.537  1.00  0.00    -0.398 OA
ATOM     33  H4  UNL     1       8.154   3.165  -2.285  1.00  0.00     0.209 HD
ENDBRANCH  31  32
ENDBRANCH  27  31
BRANCH  28  34
HETATM   34  O5  UNL     1      11.432   1.788   0.514  1.00  0.00    -0.392 OA
ATOM     35  H5  UNL     1      12.291   1.472   0.767  1.00  0.00     0.210 HD
ENDBRANCH  28  34
ENDBRANCH  24  25
ENDBRANCH  23  24
ENDBRANCH  16  23
BRANCH  18  36
HETATM   36  O6  UNL     1       3.585   0.047  -3.353  1.00  0.00    -0.396 OA
ATOM     37  H6  UNL     1       2.854  -0.134  -3.932  1.00  0.00     0.210 HD
ENDBRANCH  18  36
BRANCH   1  38
HETATM   38  O1  UNL     1       0.303  -3.591  -1.101  1.00  0.00    -0.390 OA
HETATM   39  C1  UNL     1       0.148  -3.904  -2.429  1.00  0.00     0.202 C 
ENDBRANCH   1  38
BRANCH   7  40
HETATM   40  O2  UNL     1      -5.776  -0.849   0.736  1.00  0.00    -0.385 OA
BRANCH  40  41
HETATM   41  C9  UNL     1      -6.554  -1.074  -0.360  1.00  0.00     0.170 C 
BRANCH  41  42
HETATM   42  C10 UNL     1      -7.043   0.081  -1.174  1.00  0.00     0.056 C 
BRANCH  42  43
HETATM   43  C11 UNL     1      -8.082   0.907  -0.562  1.00  0.00     0.274 C 
BRANCH  43  44
HETATM   44  N1  UNL     1      -7.992   1.615   0.618  1.00  0.00     0.088 N 
HETATM   45  C12 UNL     1      -7.222   2.779   0.762  1.00  0.00     0.272 C 
HETATM   46  C13 UNL     1      -7.868   3.741  -0.224  1.00  0.00     0.032 C 
HETATM   47  C14 UNL     1      -9.332   3.366  -0.072  1.00  0.00     0.032 C 
HETATM   48  C15 UNL     1      -9.356   2.170   0.861  1.00  0.00     0.272 C 
ENDBRANCH  43  44
ENDBRANCH  42  43
ENDBRANCH  41  42
ENDBRANCH  40  41
ENDBRANCH   7  40
TORSDOF 13
