REMARK  3 active torsions:
REMARK  status: ('A' for Active; 'I' for Inactive)
REMARK    1  A    between atoms: C6_7  and  C7_8 
REMARK    2  A    between atoms: C7_8  and  C8_9 
REMARK    3  A    between atoms: C9_14  and  N4_15 
ROOT
HETATM    1  C8  UNL     1       1.853   0.476   0.933  1.00  0.00     0.115 A 
HETATM    2  N2  UNL     1       2.437   0.919  -0.183  1.00  0.00    -0.274 N 
ATOM      3  H2  UNL     1       1.995   1.547  -0.854  1.00  0.00     0.189 HD
HETATM    4  N3  UNL     1       3.661   0.439  -0.307  1.00  0.00    -0.131 N 
ATOM      5  H3  UNL     1       4.313   0.625  -1.069  1.00  0.00     0.205 HD
HETATM    6  C9  UNL     1       3.883  -0.350   0.774  1.00  0.00     0.691 A 
HETATM    7  N5  UNL     1       2.764  -0.317   1.526  1.00  0.00    -0.178 N 
ATOM      8  H5  UNL     1       2.629  -0.815   2.406  1.00  0.00     0.185 HD
ENDROOT
BRANCH   1   9
HETATM    9  C7  UNL     1       0.475   0.824   1.376  1.00  0.00     0.108 C 
BRANCH   9  10
HETATM   10  C6  UNL     1      -0.534  -0.125   0.857  1.00  0.00     0.010 C 
HETATM   11  C5  UNL     1      -1.517   0.292   0.086  1.00  0.00     0.030 A 
HETATM   12  N1  UNL     1      -2.562  -0.492  -0.492  1.00  0.00    -0.361 N 
HETATM   13  C4  UNL     1      -1.779   1.654  -0.365  1.00  0.00     0.030 A 
HETATM   14  C1  UNL     1      -2.671  -1.923  -0.287  1.00  0.00     0.155 C 
HETATM   15  C2  UNL     1      -3.340   0.253  -1.182  1.00  0.00     0.090 A 
HETATM   16  C3  UNL     1      -2.881   1.637  -1.133  1.00  0.00     0.019 A 
ENDBRANCH   9  10
ENDBRANCH   1   9
BRANCH   6  17
HETATM   17  N4  UNL     1       4.954  -1.013   1.047  1.00  0.00    -0.233 N 
ATOM     18  H42 UNL     1       5.800  -1.038   0.478  1.00  0.00     0.174 HD
ATOM     19  H41 UNL     1       5.121  -1.606   1.860  1.00  0.00     0.174 HD
ENDBRANCH   6  17
TORSDOF 3
