REMARK  4 active torsions:
REMARK  status: ('A' for Active; 'I' for Inactive)
REMARK    1  A    between atoms: C5_5  and  C6_6 
REMARK    2  A    between atoms: C6_6  and  N1_7 
REMARK    3  A    between atoms: N1_7  and  C7_9 
REMARK    4  A    between atoms: N4_14  and  O1_15 
ROOT
HETATM    1  N1  UNL     1       1.937   0.711   0.752  1.00  0.00    -0.196 N 
ATOM      2  H1  UNL     1       1.525   1.529   1.200  1.00  0.00     0.183 HD
ENDROOT
BRANCH   1   3
HETATM    3  C6  UNL     1       1.366  -0.573   0.957  1.00  0.00     0.117 C 
BRANCH   3   4
HETATM    4  C5  UNL     1       0.045  -0.743   0.763  1.00  0.00    -0.020 A 
HETATM    5  C4  UNL     1      -0.549  -1.966   0.950  1.00  0.00     0.013 A 
HETATM    6  C3  UNL     1      -1.907  -2.119   0.745  1.00  0.00     0.012 A 
HETATM    7  C2  UNL     1      -2.670  -1.026   0.348  1.00  0.00    -0.040 A 
HETATM    8  C1  UNL     1      -3.962  -1.222   0.165  1.00  0.00     0.024 C 
HETATM    9  C9  UNL     1      -2.054   0.180   0.169  1.00  0.00    -0.052 A 
HETATM   10  C8  UNL     1      -0.716   0.317   0.374  1.00  0.00     0.020 A 
HETATM   11  C10 UNL     1      -2.879   1.365  -0.260  1.00  0.00     0.049 C 
ENDBRANCH   3   4
ENDBRANCH   1   3
BRANCH   1  12
HETATM   12  C7  UNL     1       3.084   0.858  -0.078  1.00  0.00     0.741 A 
HETATM   13  N2  UNL     1       3.850   0.028  -0.792  1.00  0.00    -0.112 N 
HETATM   14  N3  UNL     1       4.619   1.014  -1.196  1.00  0.00    -0.186 N 
ATOM     15  H2  UNL     1       3.841  -0.978  -0.958  1.00  0.00     0.207 HD
HETATM   16  N4  UNL     1       3.867   1.864  -0.489  1.00  0.00     0.033 N 
ATOM     17  H3  UNL     1       5.441   1.096  -1.795  1.00  0.00     0.212 HD
BRANCH  16  18
HETATM   18  O1  UNL     1       3.890   3.227  -0.272  1.00  0.00    -0.253 OA
ATOM     19  H1  UNL     1       4.445   3.941  -0.564  1.00  0.00     0.247 HD
ENDBRANCH  16  18
ENDBRANCH   1  12
TORSDOF 4
