REMARK  3 active torsions:
REMARK  status: ('A' for Active; 'I' for Inactive)
REMARK    1  A    between atoms: C3_4  and  C4_5 
REMARK    2  A    between atoms: C4_5  and  N2_6 
REMARK    3  A    between atoms: C7_9  and  N3_10 
ROOT
HETATM    1  N2  UNL     1       1.795  -0.070   0.986  1.00  0.00    -0.349 N 
HETATM    2  C5  UNL     1       2.297  -1.157   0.366  1.00  0.00     0.096 A 
HETATM    3  C6  UNL     1       3.461  -1.092  -0.406  1.00  0.00     0.065 A 
HETATM    4  C7  UNL     1       4.122   0.121  -0.543  1.00  0.00     0.100 A 
HETATM    5  N4  UNL     1       3.592   1.177   0.088  1.00  0.00    -0.339 N 
ATOM      6  H4  UNL     1       4.054   2.083   0.007  1.00  0.00     0.168 HD
HETATM    7  C8  UNL     1       2.467   1.083   0.827  1.00  0.00     0.184 A 
ENDROOT
BRANCH   1   8
HETATM    8  C4  UNL     1       0.598  -0.113   1.787  1.00  0.00     0.169 C 
BRANCH   8   9
HETATM    9  C3  UNL     1      -0.638   0.144   1.057  1.00  0.00    -0.024 A 
HETATM   10  C2  UNL     1      -1.389  -0.839   0.459  1.00  0.00     0.100 A 
HETATM   11  N1  UNL     1      -2.520  -0.626  -0.212  1.00  0.00    -0.349 N 
HETATM   12  C1  UNL     1      -3.281  -1.721  -0.832  1.00  0.00     0.156 C 
HETATM   13  C11 UNL     1      -2.950   0.642  -0.306  1.00  0.00     0.117 A 
HETATM   14  C10 UNL     1      -2.260   1.677   0.262  1.00  0.00     0.046 A 
HETATM   15  N5  UNL     1      -4.170   0.916  -1.024  1.00  0.00    -0.083 NA
HETATM   16  C9  UNL     1      -1.088   1.440   0.955  1.00  0.00     0.013 A 
ENDBRANCH   8   9
ENDBRANCH   1   8
BRANCH   4  17
HETATM   17  N3  UNL     1       5.190   0.274  -1.228  1.00  0.00    -0.385 N 
ATOM     18  H32 UNL     1       5.594  -0.530  -1.709  1.00  0.00     0.157 HD
ATOM     19  H31 UNL     1       5.676   1.165  -1.329  1.00  0.00     0.157 HD
ENDBRANCH   4  17
TORSDOF 3
