REMARK  8 active torsions:
REMARK  status: ('A' for Active; 'I' for Inactive)
REMARK    1  A    between atoms: N1_1  and  N2_4 
REMARK       I    between atoms: N2_4  and  C1_6 
REMARK    2  A    between atoms: C1_6  and  C2_8 
REMARK    3  A    between atoms: C5_21  and  N5_22 
REMARK       I    between atoms: N5_22  and  C6_24 
REMARK       I    between atoms: C6_24  and  N6_26 
REMARK    4  A    between atoms: N6_26  and  C7_28 
REMARK    5  A    between atoms: C7_28  and  C8_29 
REMARK    6  A    between atoms: C8_29  and  C9_30 
REMARK    7  A    between atoms: C9_30  and  C10_31 
REMARK    8  A    between atoms: C10_31  and  C11_32 
ROOT
HETATM    1  C2  UNL     1      -3.847  -0.222  -0.308  1.00  0.00     0.265 A 
HETATM    2  N3  UNL     1      -3.781   1.080  -1.027  1.00  0.00    -0.260 N 
ATOM      3  H3  UNL     1      -2.989   1.398  -1.586  1.00  0.00     0.177 HD
HETATM    4  S1  UNL     1      -5.226   1.968  -0.782  1.00  0.00     0.359 S 
HETATM    5  O2  UNL     1      -6.187   1.272   0.133  1.00  0.00    -0.176 OA
HETATM    6  O3  UNL     1      -4.868   3.299  -0.186  1.00  0.00    -0.176 OA
HETATM    7  O4  UNL     1      -5.999   2.262  -2.258  1.00  0.00    -0.257 OA
HETATM    8  C3  UNL     1      -7.279   1.678  -2.233  1.00  0.00     0.219 C 
HETATM    9  C4  UNL     1      -7.192   0.165  -2.189  1.00  0.00     0.214 C 
HETATM   10  O5  UNL     1      -5.944  -0.326  -2.465  1.00  0.00    -0.307 OA
HETATM   11  S2  UNL     1      -5.391  -1.151  -0.635  1.00  0.00     0.059 SA
HETATM   12  N4  UNL     1      -3.641  -2.191  -1.216  1.00  0.00    -0.301 N 
ATOM     13  H4  UNL     1      -3.424  -3.094  -1.637  1.00  0.00     0.176 HD
HETATM   14  C5  UNL     1      -2.994  -1.201  -0.812  1.00  0.00     0.145 A 
ENDROOT
BRANCH  14  15
HETATM   15  N5  UNL     1      -1.512  -1.216  -0.926  1.00  0.00    -0.294 N 
HETATM   16  C6  UNL     1      -0.694  -0.174  -0.542  1.00  0.00     0.321 C 
HETATM   17  O6  UNL     1      -0.999   0.941  -0.059  1.00  0.00    -0.247 OA
HETATM   18  N6  UNL     1       0.756  -0.320  -0.690  1.00  0.00    -0.343 N 
ATOM     19  H6  UNL     1       1.129  -1.187  -1.076  1.00  0.00     0.164 HD
ATOM     20  H5  UNL     1      -1.072  -2.051  -1.313  1.00  0.00     0.172 HD
BRANCH  18  21
HETATM   21  C7  UNL     1       1.664   0.715  -0.310  1.00  0.00     0.124 C 
BRANCH  21  22
HETATM   22  C8  UNL     1       3.108   0.302  -0.572  1.00  0.00     0.020 C 
BRANCH  22  23
HETATM   23  C9  UNL     1       3.490  -0.918   0.179  1.00  0.00     0.004 C 
BRANCH  23  24
HETATM   24  C10 UNL     1       4.853  -1.406  -0.026  1.00  0.00     0.033 C 
BRANCH  24  25
HETATM   25  C11 UNL     1       6.047  -0.690   0.322  1.00  0.00     0.186 C 
HETATM   26  C12 UNL     1       6.364   0.653  -0.267  1.00  0.00     0.034 C 
HETATM   27  C13 UNL     1       7.832   0.737   0.272  1.00  0.00     0.029 C 
HETATM   28  C14 UNL     1       7.723   0.018   1.617  1.00  0.00     0.233 C 
HETATM   29  N7  UNL     1       6.309  -0.389   1.722  1.00  0.00    -0.071 N 
ATOM     30  H72 UNL     1       5.680   0.282   2.163  1.00  0.00     0.277 HD
ATOM     31  H71 UNL     1       6.104  -1.134   2.388  1.00  0.00     0.277 HD
ENDBRANCH  24  25
ENDBRANCH  23  24
ENDBRANCH  22  23
ENDBRANCH  21  22
ENDBRANCH  18  21
ENDBRANCH  14  15
BRANCH   1  32
HETATM   32  C1  UNL     1      -3.692   0.092   1.180  1.00  0.00     0.286 C 
HETATM   33  N2  UNL     1      -3.539  -0.993   2.066  1.00  0.00    -0.273 N 
ATOM     34  H2  UNL     1      -3.539  -1.935   1.674  1.00  0.00     0.189 HD
HETATM   35  O1  UNL     1      -3.702   1.258   1.577  1.00  0.00    -0.267 OA
BRANCH  33  36
HETATM   36  N1  UNL     1      -3.388  -0.858   3.440  1.00  0.00    -0.343 N 
ATOM     37  H12 UNL     1      -3.390   0.091   3.814  1.00  0.00     0.176 HD
ATOM     38  H11 UNL     1      -3.277  -1.643   4.081  1.00  0.00     0.176 HD
ENDBRANCH  33  36
ENDBRANCH   1  32
TORSDOF 8
