REMARK  8 active torsions:
REMARK  status: ('A' for Active; 'I' for Inactive)
REMARK    1  A    between atoms: C1_2  and  C2_4 
REMARK    2  A    between atoms: N1_5  and  N2_7 
REMARK       I    between atoms: N2_7  and  C3_9 
REMARK    3  A    between atoms: C3_9  and  C4_11 
REMARK    4  A    between atoms: C4_11  and  C5_12 
REMARK    5  A    between atoms: C5_12  and  C6_13 
REMARK    6  A    between atoms: C6_13  and  C7_14 
REMARK    7  A    between atoms: N3_17  and  N4_19 
REMARK    8  A    between atoms: N4_19  and  C8_21 
ROOT
HETATM    1  C4  UNL     1       0.348   0.537   0.007  1.00  0.00     0.095 C 
HETATM    2  N3  UNL     1       1.533   0.072   0.008  1.00  0.00    -0.299 N 
ATOM      3  H3  UNL     1       2.277   0.676  -0.343  1.00  0.00     0.186 HD
ENDROOT
BRANCH   1   4
HETATM    4  C3  UNL     1      -0.747  -0.291   0.498  1.00  0.00     0.283 C 
HETATM    5  N2  UNL     1      -2.101   0.219   0.510  1.00  0.00    -0.265 N 
ATOM      6  H2  UNL     1      -2.276   1.165   0.171  1.00  0.00     0.190 HD
HETATM    7  O3  UNL     1      -0.624  -1.447   0.927  1.00  0.00    -0.265 OA
BRANCH   5   8
HETATM    8  N1  UNL     1      -3.165  -0.537   0.967  1.00  0.00    -0.302 N 
HETATM    9  C2  UNL     1      -4.323  -0.037   1.153  1.00  0.00     0.191 C 
ATOM     10  H1  UNL     1      -3.018  -1.527   1.162  1.00  0.00     0.186 HD
BRANCH   9  11
HETATM   11  C1  UNL     1      -5.426  -0.880   1.641  1.00  0.00     0.216 C 
HETATM   12  O1  UNL     1      -6.576  -0.409   1.829  1.00  0.00    -0.643 OA
HETATM   13  O2  UNL     1      -5.212  -2.217   1.905  1.00  0.00    -0.643 OA
ENDBRANCH   9  11
ENDBRANCH   5   8
ENDBRANCH   1   4
BRANCH   1  14
HETATM   14  C5  UNL     1       0.024   1.887  -0.480  1.00  0.00     0.075 C 
BRANCH  14  15
HETATM   15  C6  UNL     1       1.145   2.705  -0.995  1.00  0.00     0.119 C 
BRANCH  15  16
HETATM   16  C7  UNL     1       2.226   3.013  -0.041  1.00  0.00     0.172 C 
HETATM   17  O4  UNL     1       3.309   2.406  -0.083  1.00  0.00    -0.648 OA
HETATM   18  O5  UNL     1       2.100   3.986   0.948  1.00  0.00    -0.648 OA
ENDBRANCH  15  16
ENDBRANCH  14  15
ENDBRANCH   1  14
BRANCH   2  19
HETATM   19  N4  UNL     1       1.886  -1.180   0.445  1.00  0.00    -0.301 N 
ATOM     20  H4  UNL     1       1.702  -1.442   1.413  1.00  0.00     0.187 HD
BRANCH  19  21
HETATM   21  C8  UNL     1       2.515  -2.136  -0.443  1.00  0.00     0.048 A 
HETATM   22  C9  UNL     1       2.291  -3.410  -0.719  1.00  0.00     0.031 A 
HETATM   23  C10 UNL     1       3.384  -3.423  -1.658  1.00  0.00     0.005 A 
HETATM   24  C11 UNL     1       3.613  -2.160  -1.389  1.00  0.00     0.031 A 
ENDBRANCH  19  21
ENDBRANCH   2  19
TORSDOF 8
