REMARK  3 active torsions:
REMARK  status: ('A' for Active; 'I' for Inactive)
REMARK    1  A    between atoms: C6_10  and  C7_11 
REMARK       I    between atoms: C7_11  and  N3_13 
REMARK    2  A    between atoms: C12_18  and  O2_19 
REMARK    3  A    between atoms: C14_23  and  C15_24 
ROOT
HETATM    1  C7  UNL     1       0.666   1.430  -1.621  1.00  0.00     0.272 C 
HETATM    2  O1  UNL     1       0.528   2.310  -2.536  1.00  0.00    -0.266 OA
HETATM    3  N3  UNL     1      -0.516   0.912  -1.078  1.00  0.00    -0.342 N 
HETATM    4  C8  UNL     1      -1.792   1.372  -1.587  1.00  0.00     0.131 C 
HETATM    5  C9  UNL     1      -2.764   0.199  -1.698  1.00  0.00     0.061 C 
HETATM    6  C10 UNL     1      -2.935  -0.310  -0.320  1.00  0.00    -0.021 A 
HETATM    7  C11 UNL     1      -1.842  -0.427   0.484  1.00  0.00     0.019 A 
HETATM    8  C12 UNL     1      -2.312  -0.913   1.688  1.00  0.00     0.150 A 
HETATM    9  N4  UNL     1      -3.667  -1.081   1.597  1.00  0.00    -0.335 N 
HETATM   10  C13 UNL     1      -4.411  -1.572   2.728  1.00  0.00     0.158 C 
HETATM   11  C14 UNL     1      -4.060  -0.723   0.395  1.00  0.00     0.024 A 
HETATM   12  C18 UNL     1      -0.496  -0.056  -0.023  1.00  0.00     0.169 C 
ENDROOT
BRANCH   1  13
HETATM   13  C6  UNL     1       2.005   1.016  -1.200  1.00  0.00     0.124 A 
HETATM   14  N2  UNL     1       2.330   0.105  -0.265  1.00  0.00    -0.288 N 
HETATM   15  N1  UNL     1       3.614  -0.023  -0.144  1.00  0.00    -0.255 N 
ATOM     16  H2  UNL     1       1.649  -0.421   0.282  1.00  0.00     0.188 HD
HETATM   17  C4  UNL     1       4.362  -0.816   0.665  1.00  0.00     0.070 A 
HETATM   18  C21 UNL     1       4.249   0.800  -0.998  1.00  0.00     0.087 A 
HETATM   19  C3  UNL     1       5.735  -0.815   0.648  1.00  0.00     0.148 A 
HETATM   20  C5  UNL     1       3.656  -1.724   1.611  1.00  0.00     0.074 C 
HETATM   21  C2  UNL     1       6.400   0.019  -0.217  1.00  0.00     0.003 A 
HETATM   22  F1  UNL     1       6.458  -1.622   1.471  1.00  0.00    -0.203 F 
HETATM   23  C1  UNL     1       7.898   0.062  -0.277  1.00  0.00     0.053 C 
HETATM   24  C22 UNL     1       5.627   0.826  -1.039  1.00  0.00     0.072 A 
HETATM   25 CL1  UNL     1       6.440   1.880  -2.139  1.00  0.00    -0.081 Cl
HETATM   26  C19 UNL     1       3.213   1.471  -1.678  1.00  0.00     0.002 A 
HETATM   27  C20 UNL     1       3.509   2.474  -2.706  1.00  0.00     0.053 C 
ENDBRANCH   1  13
BRANCH   8  28
HETATM   28  O2  UNL     1      -1.499  -1.168   2.772  1.00  0.00    -0.345 OA
ATOM     29  H2  UNL     1      -1.822  -1.502   3.600  1.00  0.00     0.219 HD
ENDBRANCH   8  28
BRANCH  11  30
HETATM   30  C15 UNL     1      -5.386  -0.707  -0.201  1.00  0.00     0.028 C 
HETATM   31  C16 UNL     1      -6.502  -1.340   0.565  1.00  0.00     0.016 C 
HETATM   32  C17 UNL     1      -5.802   0.738  -0.518  1.00  0.00     0.016 C 
ENDBRANCH  11  30
TORSDOF 3
