REMARK  14 active torsions:
REMARK  status: ('A' for Active; 'I' for Inactive)
REMARK       I    between atoms: C2_2  and  N1_4 
REMARK    1  A    between atoms: N1_4  and  N2_6 
REMARK    2  A    between atoms: N2_6  and  S1_8 
REMARK    3  A    between atoms: S1_8  and  C3_11 
REMARK    4  A    between atoms: C5_13  and  S2_14 
REMARK    5  A    between atoms: S2_14  and  N3_15 
REMARK    6  A    between atoms: C6_20  and  N4_21 
REMARK    7  A    between atoms: N4_21  and  N5_23 
REMARK    8  A    between atoms: N5_23  and  N6_25 
REMARK    9  A    between atoms: C7_28  and  N7_29 
REMARK   10  A    between atoms: C8_32  and  N8_33 
REMARK   11  A    between atoms: N8_33  and  C9_35 
REMARK   12  A    between atoms: C9_35  and  C10_36 
REMARK   13  A    between atoms: C14_40  and  S3_41 
REMARK   14  A    between atoms: C16_45  and  O10_46 
ROOT
HETATM    1  C3  UNL     1      -2.074  -0.105   0.352  1.00  0.00     0.111 A 
HETATM    2  C4  UNL     1      -3.176   0.693   0.226  1.00  0.00     0.055 A 
HETATM    3  C5  UNL     1      -3.023   2.069   0.408  1.00  0.00     0.111 A 
HETATM    4  C6  UNL     1      -1.783   2.607   0.702  1.00  0.00     0.108 A 
HETATM    5  C7  UNL     1      -0.672   1.811   0.815  1.00  0.00     0.160 A 
HETATM    6  C8  UNL     1      -0.803   0.462   0.637  1.00  0.00     0.091 A 
ENDROOT
BRANCH   6   7
HETATM    7  N8  UNL     1       0.277  -0.404   0.708  1.00  0.00    -0.362 N 
ATOM      8  H8  UNL     1       0.426  -0.688   1.676  1.00  0.00     0.165 HD
BRANCH   7   9
HETATM    9  C9  UNL     1       1.213  -1.005  -0.100  1.00  0.00     0.102 C 
BRANCH   9  10
HETATM   10  C10 UNL     1       2.428  -0.459  -0.682  1.00  0.00     0.014 A 
HETATM   11  C11 UNL     1       2.556   0.317  -1.791  1.00  0.00     0.016 A 
HETATM   12  C12 UNL     1       3.762   0.571  -2.446  1.00  0.00     0.003 A 
HETATM   13  C13 UNL     1       4.903  -0.019  -1.933  1.00  0.00     0.026 A 
HETATM   14  C14 UNL     1       4.858  -0.825  -0.832  1.00  0.00     0.092 A 
HETATM   15  C16 UNL     1       3.648  -1.026  -0.234  1.00  0.00     0.098 A 
BRANCH  14  16
HETATM   16  S3  UNL     1       6.278  -1.455  -0.038  1.00  0.00     0.174 S 
HETATM   17  C15 UNL     1       6.855  -0.265   1.157  1.00  0.00     0.167 C 
HETATM   18  O8  UNL     1       5.757  -2.622   0.846  1.00  0.00    -0.223 OA
HETATM   19  O9  UNL     1       7.308  -2.014  -0.894  1.00  0.00    -0.223 OA
ENDBRANCH  14  16
BRANCH  15  20
HETATM   20  O10 UNL     1       3.556  -1.818   0.935  1.00  0.00    -0.358 OA
ATOM     21  H10 UNL     1       4.373  -2.198   1.235  1.00  0.00     0.217 HD
ENDBRANCH  15  20
ENDBRANCH   9  10
ENDBRANCH   7   9
ENDBRANCH   6   7
BRANCH   1  22
HETATM   22  S1  UNL     1      -2.256  -1.844   0.338  1.00  0.00     0.278 S 
HETATM   23  O2  UNL     1      -3.602  -2.124   0.928  1.00  0.00    -0.199 OA
HETATM   24  O3  UNL     1      -1.273  -2.449   1.366  1.00  0.00    -0.199 OA
BRANCH  22  25
HETATM   25  N2  UNL     1      -1.987  -2.510  -1.186  1.00  0.00    -0.220 N 
ATOM     26  H2  UNL     1      -1.227  -2.231  -1.806  1.00  0.00     0.200 HD
BRANCH  25  27
HETATM   27  N1  UNL     1      -2.944  -3.503  -1.501  1.00  0.00    -0.261 N 
HETATM   28  C2  UNL     1      -3.098  -4.661  -0.725  1.00  0.00     0.232 C 
HETATM   29  C1  UNL     1      -4.107  -5.690  -1.078  1.00  0.00     0.119 C 
HETATM   30  O1  UNL     1      -2.404  -4.891   0.327  1.00  0.00    -0.272 OA
ATOM     31  H1  UNL     1      -3.541  -3.373  -2.318  1.00  0.00     0.190 HD
ENDBRANCH  25  27
ENDBRANCH  22  25
ENDBRANCH   1  22
BRANCH   5  32
HETATM   32  N7  UNL     1       0.555   2.426   1.223  1.00  0.00    -0.111 N 
HETATM   33  O6  UNL     1       0.641   2.691   2.485  1.00  0.00    -0.532 OA
HETATM   34  O7  UNL     1       1.626   2.769   0.508  1.00  0.00    -0.532 OA
ENDBRANCH   5  32
BRANCH   4  35
HETATM   35  N4  UNL     1      -1.694   4.054   0.901  1.00  0.00    -0.283 N 
ATOM     36  H4  UNL     1      -1.351   4.689   0.180  1.00  0.00     0.188 HD
BRANCH  35  37
HETATM   37  N5  UNL     1      -2.082   4.462   2.056  1.00  0.00    -0.249 N 
ATOM     38  H5  UNL     1      -2.406   3.758   2.719  1.00  0.00     0.207 HD
BRANCH  37  39
HETATM   39  N6  UNL     1      -2.094   5.780   2.470  1.00  0.00    -0.331 N 
ATOM     40  H62 UNL     1      -1.766   6.470   1.794  1.00  0.00     0.178 HD
ATOM     41  H61 UNL     1      -2.402   6.104   3.387  1.00  0.00     0.178 HD
ENDBRANCH  37  39
ENDBRANCH  35  37
ENDBRANCH   4  35
BRANCH   3  42
HETATM   42  S2  UNL     1      -4.423   3.092   0.221  1.00  0.00     0.259 S 
HETATM   43  O4  UNL     1      -5.393   2.306  -0.679  1.00  0.00    -0.201 OA
HETATM   44  O5  UNL     1      -4.994   3.412   1.533  1.00  0.00    -0.201 OA
BRANCH  42  45
HETATM   45  N3  UNL     1      -3.980   4.542  -0.619  1.00  0.00    -0.324 N 
ATOM     46  H32 UNL     1      -3.037   4.751  -0.948  1.00  0.00     0.169 HD
ATOM     47  H31 UNL     1      -4.799   5.140  -0.728  1.00  0.00     0.169 HD
ENDBRANCH  42  45
ENDBRANCH   3  42
TORSDOF 14
