REMARK  13 active torsions:
REMARK  status: ('A' for Active; 'I' for Inactive)
REMARK    1  A    between atoms: C4_4  and  C5_5 
REMARK    2  A    between atoms: C5_5  and  C6_6 
REMARK    3  A    between atoms: C6_6  and  N1_7 
REMARK    4  A    between atoms: C6_6  and  C24_43 
REMARK       I    between atoms: N1_7  and  C7_9 
REMARK    5  A    between atoms: C7_9  and  C8_11 
REMARK    6  A    between atoms: C9_13  and  O3_14 
REMARK    7  A    between atoms: O3_14  and  C10_15 
REMARK       I    between atoms: N2_18  and  C12_20 
REMARK    8  A    between atoms: C12_20  and  C13_22 
REMARK    9  A    between atoms: C13_22  and  N3_24 
REMARK   10  A    between atoms: C18_29  and  O7_30 
REMARK   11  A    between atoms: C19_32  and  O8_33 
REMARK   12  A    between atoms: C21_36  and  O9_37 
REMARK   13  A    between atoms: C23_40  and  O10_41 
ROOT
HETATM    1  C10 UNL     1      -1.064   0.553  -0.308  1.00  0.00     0.300 C 
HETATM    2  O4  UNL     1      -2.429   0.206  -0.426  1.00  0.00    -0.303 OA
HETATM    3  C11 UNL     1      -3.289   0.622  -1.414  1.00  0.00     0.153 C 
HETATM    4  N2  UNL     1      -4.263  -0.124  -1.785  1.00  0.00    -0.307 N 
ATOM      5  H2  UNL     1      -4.882   0.217  -2.520  1.00  0.00     0.170 HD
HETATM    6  C12 UNL     1      -4.524  -1.405  -1.222  1.00  0.00     0.256 C 
HETATM    7  O5  UNL     1      -3.541  -2.064  -0.798  1.00  0.00    -0.271 OA
HETATM    8  C17 UNL     1      -3.074   1.919  -2.030  1.00  0.00     0.208 C 
HETATM    9  O6  UNL     1      -4.085   2.839  -1.951  1.00  0.00    -0.345 OA
HETATM   10  C18 UNL     1      -3.497   4.084  -2.211  1.00  0.00     0.287 C 
HETATM   11  C19 UNL     1      -1.996   3.923  -1.893  1.00  0.00     0.182 C 
HETATM   12  C20 UNL     1      -2.036   2.645  -1.138  1.00  0.00     0.090 C 
HETATM   13  C21 UNL     1      -0.771   1.843  -1.093  1.00  0.00     0.183 C 
ENDROOT
BRANCH   1  14
HETATM   14  O3  UNL     1      -0.198  -0.465  -0.604  1.00  0.00    -0.328 OA
BRANCH  14  15
HETATM   15  C9  UNL     1       0.534  -0.871   0.489  1.00  0.00     0.266 C 
HETATM   16  O2  UNL     1       1.883  -0.770   0.322  1.00  0.00    -0.344 OA
HETATM   17  C8  UNL     1       2.545  -1.808   0.899  1.00  0.00     0.245 C 
HETATM   18  C23 UNL     1       1.526  -2.612   1.654  1.00  0.00     0.161 C 
HETATM   19  C22 UNL     1       0.251  -2.306   0.894  1.00  0.00     0.095 C 
BRANCH  17  20
HETATM   20  C7  UNL     1       3.660  -1.383   1.777  1.00  0.00     0.250 C 
HETATM   21  N1  UNL     1       4.043  -0.047   1.974  1.00  0.00    -0.344 N 
ATOM     22  H1  UNL     1       3.519   0.674   1.478  1.00  0.00     0.163 HD
HETATM   23  O1  UNL     1       4.301  -2.293   2.384  1.00  0.00    -0.271 OA
BRANCH  21  24
HETATM   24  C6  UNL     1       5.114   0.376   2.820  1.00  0.00     0.189 C 
BRANCH  24  25
HETATM   25  C5  UNL     1       6.250   1.005   2.034  1.00  0.00     0.063 C 
BRANCH  25  26
HETATM   26  C4  UNL     1       6.828   0.076   1.054  1.00  0.00    -0.022 C 
HETATM   27  C2  UNL     1       6.810   0.392  -0.234  1.00  0.00    -0.091 C 
HETATM   28  C1  UNL     1       7.416  -0.596  -1.192  1.00  0.00     0.042 C 
HETATM   29  C3  UNL     1       6.227   1.656  -0.743  1.00  0.00     0.042 C 
ENDBRANCH  25  26
ENDBRANCH  24  25
BRANCH  24  30
HETATM   30  C24 UNL     1       4.618   1.373   3.791  1.00  0.00     0.197 C 
HETATM   31  O11 UNL     1       3.404   1.763   3.812  1.00  0.00    -0.646 OA
HETATM   32  O12 UNL     1       5.452   1.947   4.741  1.00  0.00    -0.646 OA
ENDBRANCH  24  30
ENDBRANCH  21  24
ENDBRANCH  17  20
BRANCH  18  33
HETATM   33  O10 UNL     1       1.830  -3.968   1.574  1.00  0.00    -0.392 OA
ATOM     34  H10 UNL     1       1.185  -4.477   2.052  1.00  0.00     0.210 HD
ENDBRANCH  18  33
ENDBRANCH  14  15
ENDBRANCH   1  14
BRANCH  13  35
HETATM   35  O9  UNL     1      -0.290   1.572  -2.346  1.00  0.00    -0.390 OA
ATOM     36  H9  UNL     1      -0.109   2.369  -2.831  1.00  0.00     0.210 HD
ENDBRANCH  13  35
BRANCH  11  37
HETATM   37  O8  UNL     1      -1.517   5.010  -1.186  1.00  0.00    -0.390 OA
ATOM     38  H8  UNL     1      -0.593   4.911  -0.990  1.00  0.00     0.210 HD
ENDBRANCH  11  37
BRANCH   6  39
HETATM   39  C13 UNL     1      -5.887  -1.945  -1.136  1.00  0.00     0.309 C 
HETATM   40  C14 UNL     1      -6.800  -1.099  -0.283  1.00  0.00     0.053 C 
BRANCH  39  41
HETATM   41  N3  UNL     1      -5.848  -3.280  -0.547  1.00  0.00     0.093 N 
HETATM   42  C15 UNL     1      -5.334  -3.224   0.803  1.00  0.00     0.310 C 
HETATM   43  C16 UNL     1      -7.140  -3.920  -0.626  1.00  0.00     0.310 C 
ENDBRANCH  39  41
ENDBRANCH   6  39
BRANCH  10  44
HETATM   44  O7  UNL     1      -3.988   5.033  -1.342  1.00  0.00    -0.369 OA
ATOM     45  H7  UNL     1      -3.589   5.877  -1.518  1.00  0.00     0.212 HD
ENDBRANCH  10  44
TORSDOF 13
