REMARK  0 active torsions:
REMARK  status: ('A' for Active; 'I' for Inactive)
ROOT
HETATM    1  C1  UNL     1      -0.866   0.682  -0.123  1.00  0.00    -0.003 C 
HETATM    2  C2  UNL     1       0.405   1.038   0.016  1.00  0.00    -0.003 C 
HETATM    3  C3  UNL     1       1.173  -0.222   0.187  1.00  0.00     0.195 C 
HETATM    4  O1  UNL     1       0.242  -1.073   0.732  1.00  0.00    -0.384 OA
HETATM    5  C4  UNL     1      -0.896  -0.825  -0.038  1.00  0.00     0.195 C 
ENDROOT
TORSDOF 0
