REMARK  7 active torsions:
REMARK  status: ('A' for Active; 'I' for Inactive)
REMARK    1  A    between atoms: C2_2  and  O2_4 
REMARK    2  A    between atoms: O2_4  and  N1_5 
REMARK    3  A    between atoms: C3_7  and  C4_8 
REMARK    4  A    between atoms: C3_7  and  C12_20 
REMARK    5  A    between atoms: C4_8  and  C5_9 
REMARK    6  A    between atoms: C8_13  and  C9_14 
REMARK    7  A    between atoms: C11_17  and  O4_18 
ROOT
HETATM    1  C4  UNL     1      -0.025   0.829  -1.026  1.00  0.00     0.104 C 
ENDROOT
BRANCH   1   2
HETATM    2  C3  UNL     1       1.330   0.346  -0.766  1.00  0.00     0.023 C 
HETATM    3  N1  UNL     1       2.023   1.088   0.001  1.00  0.00    -0.265 N 
ATOM      4  H1  UNL     1       1.495   1.907   0.303  1.00  0.00     0.194 HD
BRANCH   3   5
HETATM    5  O2  UNL     1       3.233   1.085   0.508  1.00  0.00    -0.200 OA
BRANCH   5   6
HETATM    6  C2  UNL     1       3.562   2.031   1.477  1.00  0.00     0.277 C 
HETATM    7  C1  UNL     1       4.853   2.172   2.146  1.00  0.00     0.128 C 
HETATM    8  O1  UNL     1       2.656   2.848   1.812  1.00  0.00    -0.264 OA
ENDBRANCH   5   6
ENDBRANCH   3   5
BRANCH   2   9
HETATM    9  C12 UNL     1       1.879  -0.876  -1.330  1.00  0.00    -0.010 C 
HETATM   10  C13 UNL     1       1.974  -0.702  -2.885  1.00  0.00     0.021 C 
HETATM   11  C14 UNL     1       1.015  -2.083  -1.139  1.00  0.00     0.021 C 
HETATM   12  C15 UNL     1       3.313  -1.151  -0.918  1.00  0.00     0.021 C 
ENDBRANCH   2   9
ENDBRANCH   1   2
BRANCH   1  13
HETATM   13  C5  UNL     1      -1.066   0.250  -0.106  1.00  0.00     0.022 A 
HETATM   14  S1  UNL     1      -0.913  -0.669   1.313  1.00  0.00    -0.095 SA
HETATM   15  C6  UNL     1      -2.552  -0.817   1.737  1.00  0.00    -0.004 A 
HETATM   16  C7  UNL     1      -3.101  -1.557   2.933  1.00  0.00     0.057 C 
HETATM   17  C8  UNL     1      -3.202  -0.128   0.739  1.00  0.00     0.056 A 
HETATM   18  C11 UNL     1      -2.426   0.422  -0.213  1.00  0.00     0.094 A 
BRANCH  17  19
HETATM   19  C9  UNL     1      -4.674  -0.014   0.795  1.00  0.00     0.159 C 
HETATM   20  C10 UNL     1      -5.396   0.746  -0.232  1.00  0.00     0.097 C 
HETATM   21  O3  UNL     1      -5.323  -0.551   1.701  1.00  0.00    -0.293 OA
ENDBRANCH  17  19
BRANCH  18  22
HETATM   22  O4  UNL     1      -2.964   1.162  -1.306  1.00  0.00    -0.359 OA
ATOM     23  H4  UNL     1      -3.904   1.281  -1.380  1.00  0.00     0.217 HD
ENDBRANCH  18  22
ENDBRANCH   1  13
TORSDOF 7
