REMARK  1 active torsions:
REMARK  status: ('A' for Active; 'I' for Inactive)
REMARK    1  A    between atoms: N2_9  and  C4_10 
ROOT
HETATM    1  O1  UNL     1       1.800  -2.173   0.963  1.00  0.00    -0.265 OA
HETATM    2  C1  UNL     1       2.272  -1.098   0.498  1.00  0.00     0.288 A 
HETATM    3  C2  UNL     1       3.534  -0.639   0.850  1.00  0.00     0.143 A 
HETATM    4 CL1  UNL     1       4.703  -1.352   1.930  1.00  0.00    -0.075 Cl
HETATM    5  C3  UNL     1       3.707   0.539   0.162  1.00  0.00     0.145 A 
HETATM    6 CL2  UNL     1       5.105   1.580   0.201  1.00  0.00    -0.061 Cl
HETATM    7  N1  UNL     1       2.601   0.740  -0.546  1.00  0.00    -0.282 N 
ATOM      8  H1  UNL     1       2.449   1.543  -1.156  1.00  0.00     0.188 HD
HETATM    9  N2  UNL     1       1.725  -0.227  -0.362  1.00  0.00    -0.239 N 
ENDROOT
BRANCH   9  10
HETATM   10  C4  UNL     1       0.399  -0.404  -0.935  1.00  0.00     0.179 C 
HETATM   11  C5  UNL     1      -0.564  -1.035  -0.132  1.00  0.00    -0.156 C 
HETATM   12  C6  UNL     1      -1.552  -1.594   0.695  1.00  0.00     0.082 C 
HETATM   13  C7  UNL     1      -2.693  -0.524   0.799  1.00  0.00     0.013 C 
HETATM   14  C8  UNL     1      -2.193   0.863   0.383  1.00  0.00     0.021 C 
HETATM   15  C9  UNL     1      -1.632   1.153  -0.894  1.00  0.00     0.085 C 
HETATM   16 CL3  UNL     1      -1.934   2.922  -1.216  1.00  0.00    -0.125 Cl
HETATM   17  C10 UNL     1      -0.163   1.033  -1.236  1.00  0.00     0.059 C 
ENDBRANCH   9  10
TORSDOF 1
