REMARK  7 active torsions:
REMARK  status: ('A' for Active; 'I' for Inactive)
REMARK    1  A    between atoms: O1_2  and  C2_3 
REMARK    2  A    between atoms: C2_3  and  N1_4 
REMARK    3  A    between atoms: C3_5  and  C4_6 
REMARK    4  A    between atoms: C4_6  and  C5_7 
REMARK    5  A    between atoms: C5_7  and  N2_8 
REMARK    6  A    between atoms: N2_8  and  C7_10 
REMARK    7  A    between atoms: C14_20  and  C15_21 
ROOT
HETATM    1  N1  UNL     1       0.223  -2.459  -0.703  1.00  0.00    -0.253 N 
HETATM    2  C3  UNL     1      -0.092  -1.146  -0.837  1.00  0.00     0.114 A 
HETATM    3  N3  UNL     1       0.838  -0.481  -0.138  1.00  0.00    -0.338 N 
ATOM      4  H3  UNL     1       0.875   0.534  -0.044  1.00  0.00     0.167 HD
HETATM    5  C13 UNL     1       1.714  -1.329   0.422  1.00  0.00     0.105 A 
HETATM    6  C14 UNL     1       2.764  -1.056   1.182  1.00  0.00     0.065 C 
HETATM    7  C21 UNL     1       1.315  -2.598   0.057  1.00  0.00     0.281 A 
HETATM    8  O2  UNL     1       1.906  -3.687   0.405  1.00  0.00    -0.265 OA
ENDROOT
BRANCH   2   9
HETATM    9  C4  UNL     1      -1.116  -0.688  -1.526  1.00  0.00     0.042 C 
BRANCH   9  10
HETATM   10  C5  UNL     1      -1.426   0.757  -1.648  1.00  0.00     0.153 C 
BRANCH  10  11
HETATM   11  N2  UNL     1      -2.844   0.943  -1.593  1.00  0.00    -0.382 N 
HETATM   12  C6  UNL     1      -3.636   0.443  -2.713  1.00  0.00     0.150 C 
BRANCH  11  13
HETATM   13  C7  UNL     1      -3.531   1.576  -0.523  1.00  0.00     0.030 A 
HETATM   14  C8  UNL     1      -2.914   2.085   0.599  1.00  0.00     0.030 A 
HETATM   15  C9  UNL     1      -3.639   2.700   1.627  1.00  0.00     0.021 A 
HETATM   16  C10 UNL     1      -5.006   2.811   1.539  1.00  0.00     0.011 A 
HETATM   17 BR1  UNL     1      -6.027   3.645   2.928  1.00  0.00    -0.051 Br
HETATM   18  C11 UNL     1      -5.652   2.315   0.434  1.00  0.00     0.021 A 
HETATM   19  C12 UNL     1      -4.912   1.718  -0.556  1.00  0.00     0.030 A 
ENDBRANCH  11  13
ENDBRANCH  10  11
ENDBRANCH   9  10
ENDBRANCH   2   9
BRANCH   1  20
HETATM   20  C2  UNL     1      -0.517  -3.574  -1.268  1.00  0.00     0.237 C 
BRANCH  20  21
HETATM   21  O1  UNL     1      -0.173  -3.910  -2.537  1.00  0.00    -0.351 OA
HETATM   22  C1  UNL     1       1.142  -4.263  -2.681  1.00  0.00     0.210 C 
ENDBRANCH  20  21
ENDBRANCH   1  20
BRANCH   6  23
HETATM   23  C15 UNL     1       3.156   0.296   1.551  1.00  0.00     0.036 A 
HETATM   24  C16 UNL     1       2.298   1.216   2.112  1.00  0.00     0.029 A 
HETATM   25  C17 UNL     1       2.714   2.505   2.454  1.00  0.00     0.004 A 
HETATM   26  C18 UNL     1       4.023   2.869   2.224  1.00  0.00     0.017 A 
HETATM   27  C19 UNL     1       4.869   1.940   1.663  1.00  0.00     0.090 A 
HETATM   28  N4  UNL     1       4.430   0.691   1.341  1.00  0.00    -0.361 N 
HETATM   29  C20 UNL     1       5.354  -0.276   0.745  1.00  0.00     0.155 C 
ENDBRANCH   6  23
TORSDOF 7
