REMARK  14 active torsions:
REMARK  status: ('A' for Active; 'I' for Inactive)
REMARK    1  A    between atoms: C4_4  and  C5_5 
REMARK    2  A    between atoms: C6_6  and  C7_7 
REMARK    3  A    between atoms: C9_9  and  C10_10 
REMARK    4  A    between atoms: C11_11  and  C12_12 
REMARK    5  A    between atoms: C14_14  and  C15_15 
REMARK    6  A    between atoms: C18_19  and  C19_20 
REMARK    7  A    between atoms: C20_21  and  C21_22 
REMARK    8  A    between atoms: C21_22  and  O3_24 
REMARK    9  A    between atoms: O3_24  and  C22_25 
REMARK   10  A    between atoms: C23_27  and  C25_29 
REMARK   11  A    between atoms: C25_29  and  O5_30 
REMARK   12  A    between atoms: C26_32  and  O6_33 
REMARK   13  A    between atoms: C27_35  and  O7_36 
REMARK   14  A    between atoms: C28_38  and  O8_39 
ROOT
HETATM    1  C15 UNL     1       0.854  -1.867   1.552  1.00  0.00     0.014 C 
HETATM    2  C16 UNL     1      -0.387  -1.567   1.254  1.00  0.00     0.024 C 
HETATM    3  C17 UNL     1      -1.023  -0.631   0.350  1.00  0.00     0.199 C 
HETATM    4  O1  UNL     1      -0.720   0.124  -0.599  1.00  0.00    -0.289 OA
HETATM    5  C18 UNL     1      -2.318  -0.923   1.035  1.00  0.00     0.175 A 
HETATM    6  O9  UNL     1      -2.761  -2.230   0.896  1.00  0.00    -0.351 OA
HETATM    7  C29 UNL     1      -1.685  -2.082   1.726  1.00  0.00     0.207 A 
ENDROOT
BRANCH   5   8
HETATM    8  C19 UNL     1      -2.988   0.074   1.851  1.00  0.00     0.028 C 
HETATM    9  C20 UNL     1      -4.183   0.540   1.734  1.00  0.00     0.082 C 
BRANCH   9  10
HETATM   10  C21 UNL     1      -5.107   0.113   0.698  1.00  0.00     0.285 C 
HETATM   11  O2  UNL     1      -4.824  -0.716  -0.182  1.00  0.00    -0.260 OA
BRANCH  10  12
HETATM   12  O3  UNL     1      -6.404   0.638   0.648  1.00  0.00    -0.284 OA
BRANCH  12  13
HETATM   13  C22 UNL     1      -7.355   0.236  -0.372  1.00  0.00     0.302 C 
HETATM   14  O4  UNL     1      -7.655   1.321  -1.093  1.00  0.00    -0.343 OA
HETATM   15  C23 UNL     1      -8.857   1.377  -1.687  1.00  0.00     0.110 C 
HETATM   16  C24 UNL     1      -9.063   0.534  -2.907  1.00  0.00     0.051 C 
HETATM   17  C26 UNL     1     -10.010   1.078  -0.743  1.00  0.00     0.185 C 
HETATM   18  C27 UNL     1      -9.828  -0.260  -0.078  1.00  0.00     0.183 C 
HETATM   19  C28 UNL     1      -8.423  -0.545   0.303  1.00  0.00     0.205 C 
BRANCH  15  20
HETATM   20  C25 UNL     1      -9.063   2.837  -2.170  1.00  0.00     0.204 C 
BRANCH  20  21
HETATM   21  O5  UNL     1     -10.281   2.989  -2.788  1.00  0.00    -0.398 OA
ATOM     22  H5  UNL     1     -10.407   3.883  -3.084  1.00  0.00     0.209 HD
ENDBRANCH  20  21
ENDBRANCH  15  20
BRANCH  17  23
HETATM   23  O6  UNL     1     -10.042   2.087   0.219  1.00  0.00    -0.390 OA
ATOM     24  H6  UNL     1     -10.763   1.900   0.809  1.00  0.00     0.210 HD
ENDBRANCH  17  23
BRANCH  18  25
HETATM   25  O7  UNL     1     -10.757  -0.411   0.949  1.00  0.00    -0.390 OA
ATOM     26  H7  UNL     1     -10.642  -1.255   1.369  1.00  0.00     0.210 HD
ENDBRANCH  18  25
BRANCH  19  27
HETATM   27  O8  UNL     1      -8.352  -0.349   1.710  1.00  0.00    -0.388 OA
ATOM     28  H8  UNL     1      -9.035  -0.849   2.142  1.00  0.00     0.210 HD
ENDBRANCH  19  27
ENDBRANCH  12  13
ENDBRANCH  10  12
ENDBRANCH   9  10
ENDBRANCH   5   8
BRANCH   1  29
HETATM   29  C14 UNL     1       1.951  -1.188   0.905  1.00  0.00     0.007 C 
HETATM   30  C12 UNL     1       3.230  -1.450   1.178  1.00  0.00    -0.062 C 
HETATM   31  C13 UNL     1       3.576  -2.455   2.198  1.00  0.00     0.048 C 
BRANCH  30  32
HETATM   32  C11 UNL     1       4.260  -0.706   0.461  1.00  0.00     0.007 C 
HETATM   33  C10 UNL     1       5.569  -0.909   0.666  1.00  0.00     0.001 C 
BRANCH  33  34
HETATM   34  C9  UNL     1       6.509  -0.131  -0.084  1.00  0.00     0.007 C 
HETATM   35  C7  UNL     1       7.833  -0.199  -0.012  1.00  0.00    -0.062 C 
HETATM   36  C8  UNL     1       8.466  -1.138   0.931  1.00  0.00     0.048 C 
BRANCH  35  37
HETATM   37  C6  UNL     1       8.579   0.675  -0.861  1.00  0.00     0.007 C 
HETATM   38  C5  UNL     1       9.841   0.834  -1.024  1.00  0.00     0.001 C 
BRANCH  38  39
HETATM   39  C4  UNL     1      10.944   0.167  -0.391  1.00  0.00     0.002 C 
HETATM   40  C2  UNL     1      12.213   0.516  -0.733  1.00  0.00    -0.088 C 
HETATM   41  C1  UNL     1      12.414   1.573  -1.746  1.00  0.00     0.043 C 
HETATM   42  C3  UNL     1      13.393  -0.132  -0.119  1.00  0.00     0.043 C 
ENDBRANCH  38  39
ENDBRANCH  35  37
ENDBRANCH  33  34
ENDBRANCH  30  32
ENDBRANCH   1  29
TORSDOF 14
