REMARK  14 active torsions:
REMARK  status: ('A' for Active; 'I' for Inactive)
REMARK    1  A    between atoms: C2_2  and  C3_3 
REMARK    2  A    between atoms: C4_4  and  O1_5 
REMARK    3  A    between atoms: C6_8  and  C7_9 
REMARK    4  A    between atoms: C7_9  and  C8_10 
REMARK    5  A    between atoms: C13_16  and  C14_17 
REMARK    6  A    between atoms: C14_17  and  O3_18 
REMARK    7  A    between atoms: O3_18  and  C15_19 
REMARK    8  A    between atoms: C16_20  and  C17_21 
REMARK    9  A    between atoms: C17_21  and  N1_22 
REMARK       I    between atoms: N1_22  and  C18_24 
REMARK   10  A    between atoms: C18_24  and  O5_26 
REMARK   11  A    between atoms: O5_26  and  C19_27 
REMARK   12  A    between atoms: C23_32  and  S1_33 
REMARK   13  A    between atoms: C25_35  and  O7_36 
REMARK   14  A    between atoms: C26_38  and  O8_39 
ROOT
HETATM    1  C15 UNL     1       1.274  -1.597  -1.746  1.00  0.00     0.183 C 
HETATM    2  C16 UNL     1       2.671  -1.108  -1.313  1.00  0.00     0.172 C 
HETATM    3  O6  UNL     1       3.087  -1.722  -0.176  1.00  0.00    -0.363 OA
HETATM    4  C23 UNL     1       3.400  -3.064  -0.333  1.00  0.00     0.214 C 
HETATM    5  C25 UNL     1       2.580  -3.728  -1.417  1.00  0.00     0.188 C 
HETATM    6  C26 UNL     1       1.206  -3.094  -1.408  1.00  0.00     0.181 C 
ENDROOT
BRANCH   1   7
HETATM    7  O3  UNL     1       0.258  -1.019  -1.049  1.00  0.00    -0.376 OA
BRANCH   7   8
HETATM    8  C14 UNL     1      -0.753  -0.425  -1.792  1.00  0.00     0.203 C 
BRANCH   8   9
HETATM    9  C13 UNL     1      -1.817   0.177  -0.853  1.00  0.00    -0.050 C 
HETATM   10  C3  UNL     1      -2.451  -0.811   0.015  1.00  0.00    -0.047 C 
HETATM   11  C4  UNL     1      -3.508  -0.380   0.961  1.00  0.00     0.150 C 
HETATM   12  C5  UNL     1      -4.898  -0.378   0.505  1.00  0.00     0.068 C 
HETATM   13  C6  UNL     1      -5.524   0.929   0.150  1.00  0.00     0.124 C 
HETATM   14  O2  UNL     1      -4.776   1.606  -0.715  1.00  0.00    -0.385 OA
HETATM   15  C11 UNL     1      -4.050   1.085  -1.691  1.00  0.00     0.172 C 
HETATM   16  C12 UNL     1      -2.561   1.209  -1.585  1.00  0.00     0.063 C 
BRANCH  10  17
HETATM   17  C2  UNL     1      -2.805  -2.158  -0.579  1.00  0.00     0.033 C 
HETATM   18  C1  UNL     1      -2.927  -3.186   0.554  1.00  0.00     0.010 C 
ENDBRANCH  10  17
BRANCH  11  19
HETATM   19  O1  UNL     1      -3.145   0.788   1.663  1.00  0.00    -0.391 OA
ATOM     20  H1  UNL     1      -3.822   1.064   2.269  1.00  0.00     0.210 HD
ENDBRANCH  11  19
BRANCH  13  21
HETATM   21  C7  UNL     1      -6.033   1.689   1.344  1.00  0.00     0.035 C 
BRANCH  21  22
HETATM   22  C8  UNL     1      -6.664   3.013   0.947  1.00  0.00    -0.020 C 
HETATM   23  C9  UNL     1      -5.711   3.923   0.235  1.00  0.00     0.009 C 
HETATM   24  C10 UNL     1      -7.957   2.843   0.215  1.00  0.00     0.009 C 
ENDBRANCH  21  22
ENDBRANCH  13  21
ENDBRANCH   8   9
ENDBRANCH   7   8
ENDBRANCH   1   7
BRANCH   2  25
HETATM   25  C17 UNL     1       2.573   0.359  -1.214  1.00  0.00     0.159 C 
BRANCH  25  26
HETATM   26  N1  UNL     1       3.731   1.108  -0.897  1.00  0.00    -0.334 N 
HETATM   27  C18 UNL     1       4.525   1.092   0.248  1.00  0.00     0.361 C 
HETATM   28  O4  UNL     1       4.302   0.355   1.239  1.00  0.00    -0.238 OA
ATOM     29  H1  UNL     1       4.032   1.762  -1.620  1.00  0.00     0.164 HD
BRANCH  27  30
HETATM   30  O5  UNL     1       5.646   1.919   0.366  1.00  0.00    -0.294 OA
BRANCH  30  31
HETATM   31  C19 UNL     1       6.468   1.940   1.509  1.00  0.00     0.061 C 
HETATM   32  C20 UNL     1       7.116   0.641   1.841  1.00  0.00     0.046 C 
HETATM   33  C21 UNL     1       7.512   3.043   1.262  1.00  0.00     0.046 C 
HETATM   34  C22 UNL     1       5.620   2.396   2.703  1.00  0.00     0.046 C 
ENDBRANCH  30  31
ENDBRANCH  27  30
ENDBRANCH  25  26
ENDBRANCH   2  25
BRANCH   6  35
HETATM   35  O8  UNL     1       0.731  -3.279  -0.091  1.00  0.00    -0.390 OA
ATOM     36  H8  UNL     1       0.689  -4.205   0.118  1.00  0.00     0.210 HD
ENDBRANCH   6  35
BRANCH   5  37
HETATM   37  O7  UNL     1       3.182  -3.746  -2.650  1.00  0.00    -0.389 OA
ATOM     38  H7  UNL     1       2.667  -4.163  -3.331  1.00  0.00     0.210 HD
ENDBRANCH   5  37
BRANCH   4  39
HETATM   39  S1  UNL     1       5.135  -3.373  -0.691  1.00  0.00    -0.139 SA
HETATM   40  C24 UNL     1       6.232  -2.951   0.661  1.00  0.00     0.092 C 
ENDBRANCH   4  39
TORSDOF 14
