REMARK  2 active torsions:
REMARK  status: ('A' for Active; 'I' for Inactive)
REMARK    1  A    between atoms: O1_2  and  N1_3 
REMARK    2  A    between atoms: N1_3  and  C2_4 
ROOT
HETATM    1  C2  UNL     1      -1.066   0.677   0.074  1.00  0.00     0.330 A 
HETATM    2  C3  UNL     1      -1.513  -0.759  -0.222  1.00  0.00     0.287 A 
HETATM    3  N2  UNL     1      -2.147   0.127   0.825  1.00  0.00    -0.050 N 
ATOM      4  H21 UNL     1      -3.105   0.431   0.999  1.00  0.00     0.279 HD
ATOM      5  H22 UNL     1      -2.322   0.017   1.824  1.00  0.00     0.279 HD
ENDROOT
BRANCH   1   6
HETATM    6  N1  UNL     1       0.271   0.736   0.620  1.00  0.00    -0.066 NA
BRANCH   6   7
HETATM    7  O1  UNL     1       1.092   0.180  -0.327  1.00  0.00    -0.289 OA
HETATM    8  C1  UNL     1       2.349  -0.091   0.161  1.00  0.00     0.231 C 
ENDBRANCH   6   7
ENDBRANCH   1   6
TORSDOF 2
