REMARK  2 active torsions:
REMARK  status: ('A' for Active; 'I' for Inactive)
REMARK    1  A    between atoms: N2_4  and  N3_6 
REMARK    2  A    between atoms: C1_8  and  C2_9 
ROOT
HETATM    1  N3  UNL     1       1.323   0.309   0.593  1.00  0.00    -0.300 N 
ATOM      2  H3  UNL     1       0.968   0.549   1.519  1.00  0.00     0.187 HD
HETATM    3  C1  UNL     1       0.541   0.216  -0.432  1.00  0.00     0.116 C 
ENDROOT
BRANCH   1   4
HETATM    4  N2  UNL     1       2.681   0.064   0.366  1.00  0.00    -0.250 N 
HETATM    5  N1  UNL     1       3.130  -1.101   0.454  1.00  0.00    -0.331 N 
ATOM      6  H12 UNL     1       2.492  -1.860   0.692  1.00  0.00     0.178 HD
ATOM      7  H11 UNL     1       4.120  -1.280   0.288  1.00  0.00     0.178 HD
ATOM      8  H2  UNL     1       3.306   0.835   0.129  1.00  0.00     0.207 HD
ENDBRANCH   1   4
BRANCH   3   9
HETATM    9  C2  UNL     1      -0.901   0.474  -0.205  1.00  0.00     0.251 A 
HETATM   10  C3  UNL     1      -1.765  -0.699  -0.092  1.00  0.00     0.271 A 
HETATM   11  N4  UNL     1      -1.450   0.183   1.097  1.00  0.00    -0.062 N 
ATOM     12  H42 UNL     1      -1.068   0.035   2.031  1.00  0.00     0.278 HD
ATOM     13  H41 UNL     1      -1.998   0.697   1.786  1.00  0.00     0.278 HD
ENDBRANCH   3   9
TORSDOF 2
