REMARK  0 active torsions:
REMARK  status: ('A' for Active; 'I' for Inactive)
ROOT
HETATM    1  N1  UNL     1       2.875  -2.615  -0.725  1.00  0.00    -0.197 NA
HETATM    2  C1  UNL     1       2.069  -1.768  -0.651  1.00  0.00     0.067 C 
HETATM    3  C2  UNL     1       1.058  -0.715  -0.552  1.00  0.00     0.126 C 
HETATM    4  C3  UNL     1       1.670   0.607  -0.143  1.00  0.00     0.139 C 
HETATM    5  C4  UNL     1       1.185   0.805   1.299  1.00  0.00     0.038 C 
HETATM    6  C5  UNL     1      -0.226   0.277   1.153  1.00  0.00    -0.001 C 
HETATM    7  C6  UNL     1      -1.017   0.992   0.120  1.00  0.00     0.014 C 
HETATM    8  C7  UNL     1      -2.008  -0.092  -0.325  1.00  0.00     0.007 C 
HETATM    9  C8  UNL     1      -1.304  -1.405  -0.079  1.00  0.00     0.007 C 
HETATM   10  C9  UNL     1       0.046  -1.081   0.494  1.00  0.00     0.010 C 
HETATM   11  C10 UNL     1      -0.256   1.564  -1.006  1.00  0.00     0.173 C 
HETATM   12  O1  UNL     1       1.098   1.598  -0.890  1.00  0.00    -0.384 OA
ENDROOT
TORSDOF 0
