REMARK  8 active torsions:
REMARK  status: ('A' for Active; 'I' for Inactive)
REMARK       I    between atoms: C1_2  and  N1_3 
REMARK    1  A    between atoms: C1_2  and  C8_16 
REMARK    2  A    between atoms: N1_3  and  N2_5 
REMARK    3  A    between atoms: N2_5  and  C2_7 
REMARK    4  A    between atoms: C5_10  and  N3_11 
REMARK    5  A    between atoms: C8_16  and  O4_17 
REMARK    6  A    between atoms: C8_16  and  C9_19 
REMARK    7  A    between atoms: C9_19  and  C10_20 
REMARK    8  A    between atoms: C10_20  and  O5_21 
ROOT
HETATM    1  O1  UNL     1       0.387   1.032   1.225  1.00  0.00    -0.269 OA
HETATM    2  C1  UNL     1       0.191  -0.171   0.821  1.00  0.00     0.265 C 
HETATM    3  N1  UNL     1      -1.010  -0.840   1.122  1.00  0.00    -0.267 N 
ATOM      4  H1  UNL     1      -1.189  -1.796   0.815  1.00  0.00     0.190 HD
ENDROOT
BRANCH   2   5
HETATM    5  C8  UNL     1       1.270  -0.811   0.034  1.00  0.00     0.215 C 
BRANCH   5   6
HETATM    6  O4  UNL     1       0.866  -1.864  -0.749  1.00  0.00    -0.386 OA
ATOM      7  H4  UNL     1       1.558  -2.275  -1.254  1.00  0.00     0.210 HD
ENDBRANCH   5   6
BRANCH   5   8
HETATM    8  C9  UNL     1       1.986   0.236  -0.773  1.00  0.00     0.097 C 
BRANCH   8   9
HETATM    9  C10 UNL     1       3.088  -0.382  -1.602  1.00  0.00     0.201 C 
HETATM   10  C11 UNL     1       4.048  -1.089  -0.654  1.00  0.00     0.172 C 
HETATM   11  O6  UNL     1       4.194  -2.289  -0.772  1.00  0.00    -0.294 OA
HETATM   12  C12 UNL     1       4.781  -0.352   0.382  1.00  0.00     0.102 C 
HETATM   13  C13 UNL     1       5.103   1.059   0.035  1.00  0.00     0.130 C 
HETATM   14  N4  UNL     1       4.704   1.463  -1.278  1.00  0.00    -0.358 N 
HETATM   15  C14 UNL     1       3.898   0.712  -2.181  1.00  0.00     0.260 C 
ATOM     16  H4  UNL     1       5.027   2.376  -1.598  1.00  0.00     0.162 HD
HETATM   17  O7  UNL     1       3.841   0.925  -3.395  1.00  0.00    -0.270 OA
BRANCH   9  18
HETATM   18  O5  UNL     1       2.579  -1.286  -2.482  1.00  0.00    -0.373 OA
ATOM     19  H5  UNL     1       3.272  -1.675  -3.003  1.00  0.00     0.211 HD
ENDBRANCH   9  18
ENDBRANCH   8   9
ENDBRANCH   5   8
ENDBRANCH   2   5
BRANCH   3  20
HETATM   20  N2  UNL     1      -1.953  -0.105   1.876  1.00  0.00    -0.298 N 
ATOM     21  H2  UNL     1      -1.693   0.367   2.742  1.00  0.00     0.187 HD
BRANCH  20  22
HETATM   22  C2  UNL     1      -3.273  -0.054   1.374  1.00  0.00     0.048 A 
HETATM   23  C3  UNL     1      -3.574   0.776   0.297  1.00  0.00     0.033 A 
HETATM   24  C4  UNL     1      -4.852   0.850  -0.205  1.00  0.00     0.038 A 
HETATM   25  C5  UNL     1      -5.887   0.111   0.332  1.00  0.00     0.103 A 
HETATM   26  C6  UNL     1      -5.581  -0.717   1.407  1.00  0.00     0.038 A 
HETATM   27  C7  UNL     1      -4.296  -0.797   1.919  1.00  0.00     0.033 A 
BRANCH  25  28
HETATM   28  N3  UNL     1      -7.208   0.200  -0.182  1.00  0.00    -0.116 N 
HETATM   29  O2  UNL     1      -7.499   0.925  -1.146  1.00  0.00    -0.532 OA
HETATM   30  O3  UNL     1      -8.211  -0.537   0.387  1.00  0.00    -0.532 OA
ENDBRANCH  25  28
ENDBRANCH  20  22
ENDBRANCH   3  20
TORSDOF 8
