REMARK  10 active torsions:
REMARK  status: ('A' for Active; 'I' for Inactive)
REMARK    1  A    between atoms: N1_1  and  C1_4 
REMARK    2  A    between atoms: C2_7  and  C3_8 
REMARK    3  A    between atoms: C3_8  and  C4_9 
REMARK    4  A    between atoms: C3_8  and  C12_19 
REMARK    5  A    between atoms: C4_9  and  O1_10 
REMARK    6  A    between atoms: O1_10  and  C5_11 
REMARK    7  A    between atoms: C5_11  and  C6_13 
REMARK    8  A    between atoms: C12_19  and  O3_25 
REMARK    9  A    between atoms: N3_20  and  N4_22 
REMARK   10  A    between atoms: O3_25  and  C13_26 
ROOT
HETATM    1  C3  UNL     1      -1.533   0.674   1.157  1.00  0.00     0.137 C 
ENDROOT
BRANCH   1   2
HETATM    2  C2  UNL     1      -1.672  -0.804   1.192  1.00  0.00     0.046 A 
HETATM    3  N2  UNL     1      -1.080  -1.637   0.322  1.00  0.00    -0.195 N 
HETATM    4  C1  UNL     1      -1.230  -2.985   0.386  1.00  0.00     0.678 A 
ATOM      5  H2  UNL     1      -0.495  -1.243  -0.415  1.00  0.00     0.184 HD
HETATM    6  N5  UNL     1      -1.990  -3.536   1.341  1.00  0.00    -0.156 N 
HETATM    7  C15 UNL     1      -2.619  -2.771   2.254  1.00  0.00     0.261 A 
ATOM      8  H5  UNL     1      -2.094  -4.550   1.378  1.00  0.00     0.187 HD
HETATM    9  C14 UNL     1      -2.455  -1.413   2.171  1.00  0.00     0.101 A 
HETATM   10  O6  UNL     1      -3.320  -3.344   3.128  1.00  0.00    -0.268 OA
BRANCH   4  11
HETATM   11  N1  UNL     1      -0.624  -3.718  -0.493  1.00  0.00    -0.234 N 
ATOM     12  H12 UNL     1      -0.045  -3.298  -1.220  1.00  0.00     0.174 HD
ATOM     13  H11 UNL     1      -0.737  -4.731  -0.445  1.00  0.00     0.174 HD
ENDBRANCH   4  11
ENDBRANCH   1   2
BRANCH   1  14
HETATM   14  C4  UNL     1      -0.116   1.114   1.438  1.00  0.00     0.198 C 
BRANCH  14  15
HETATM   15  O1  UNL     1       0.813   0.621   0.527  1.00  0.00    -0.316 OA
BRANCH  15  16
HETATM   16  C5  UNL     1       2.155   0.948   0.667  1.00  0.00     0.293 C 
HETATM   17  O2  UNL     1       2.464   1.691   1.638  1.00  0.00    -0.259 OA
BRANCH  16  18
HETATM   18  C6  UNL     1       3.187   0.478  -0.235  1.00  0.00     0.039 A 
HETATM   19  C7  UNL     1       4.488   0.855  -0.016  1.00  0.00     0.017 A 
HETATM   20  C8  UNL     1       5.500   0.423  -0.862  1.00  0.00     0.001 A 
HETATM   21  C9  UNL     1       5.199  -0.382  -1.920  1.00  0.00     0.000 A 
HETATM   22  C10 UNL     1       3.900  -0.758  -2.139  1.00  0.00     0.001 A 
HETATM   23  C11 UNL     1       2.885  -0.322  -1.287  1.00  0.00     0.017 A 
ENDBRANCH  16  18
ENDBRANCH  15  16
ENDBRANCH  14  15
ENDBRANCH   1  14
BRANCH   1  24
HETATM   24  C12 UNL     1      -1.947   1.235  -0.152  1.00  0.00     0.156 C 
HETATM   25  N3  UNL     1      -1.125   1.970  -0.811  1.00  0.00    -0.289 N 
ATOM     26  H3  UNL     1      -0.222   2.115  -0.360  1.00  0.00     0.188 HD
BRANCH  25  27
HETATM   27  N4  UNL     1      -1.271   2.588  -2.021  1.00  0.00    -0.343 N 
ATOM     28  H42 UNL     1      -2.181   2.431  -2.455  1.00  0.00     0.176 HD
ATOM     29  H41 UNL     1      -0.618   3.172  -2.544  1.00  0.00     0.176 HD
ENDBRANCH  25  27
BRANCH  24  30
HETATM   30  O3  UNL     1      -3.175   1.061  -0.785  1.00  0.00    -0.238 OA
BRANCH  30  31
HETATM   31  C13 UNL     1      -3.993   2.188  -1.015  1.00  0.00     0.339 C 
HETATM   32  O4  UNL     1      -3.652   3.349  -0.680  1.00  0.00    -0.623 OA
HETATM   33  O5  UNL     1      -5.202   1.991  -1.630  1.00  0.00    -0.623 OA
ENDBRANCH  30  31
ENDBRANCH  24  30
ENDBRANCH   1  24
TORSDOF 10
