REMARK  2 active torsions:
REMARK  status: ('A' for Active; 'I' for Inactive)
REMARK       I    between atoms: N1_2  and  C3_4 
REMARK       I    between atoms: C3_4  and  N2_6 
REMARK    1  A    between atoms: N2_6  and  C4_8 
REMARK    2  A    between atoms: C4_8  and  C5_9 
ROOT
HETATM    1  C5  UNL     1      -0.066  -0.173   1.036  1.00  0.00     0.055 C 
HETATM    2  C6  UNL     1      -0.725  -0.094   2.399  1.00  0.00     0.041 C 
HETATM    3  C7  UNL     1      -0.470   0.931   0.134  1.00  0.00     0.043 C 
HETATM    4  C8  UNL     1      -1.910   1.100  -0.149  1.00  0.00    -0.023 C 
HETATM    5  C9  UNL     1      -1.957   2.108  -1.319  1.00  0.00     0.016 C 
HETATM    6  C10 UNL     1      -2.670   1.808   0.980  1.00  0.00     0.016 C 
HETATM    7  C11 UNL     1      -2.636  -0.102  -0.629  1.00  0.00     0.082 C 
HETATM    8  C12 UNL     1      -4.092  -0.111  -0.174  1.00  0.00     0.034 C 
HETATM    9  C13 UNL     1      -2.694  -0.154  -2.163  1.00  0.00     0.034 C 
HETATM   10  S1  UNL     1      -1.936  -1.634  -0.102  1.00  0.00     0.237 S 
HETATM   11  O2  UNL     1      -1.935  -2.662  -1.228  1.00  0.00    -0.205 OA
HETATM   12  O3  UNL     1      -2.780  -2.268   0.997  1.00  0.00    -0.205 OA
HETATM   13  N3  UNL     1      -0.387  -1.414   0.446  1.00  0.00    -0.303 N 
HETATM   14  C14 UNL     1       0.350  -2.555   0.800  1.00  0.00     0.163 C 
ENDROOT
BRANCH   1  15
HETATM   15  C4  UNL     1       1.416  -0.041   1.317  1.00  0.00     0.155 C 
BRANCH  15  16
HETATM   16  N2  UNL     1       2.231  -0.090   0.155  1.00  0.00    -0.341 N 
HETATM   17  C3  UNL     1       3.634   0.021   0.278  1.00  0.00     0.317 C 
HETATM   18  N1  UNL     1       4.495  -0.021  -0.845  1.00  0.00    -0.343 N 
HETATM   19  O1  UNL     1       4.144   0.162   1.413  1.00  0.00    -0.247 OA
HETATM   20  C1  UNL     1       5.924   0.090  -0.755  1.00  0.00     0.154 C 
HETATM   21  C2  UNL     1       3.904  -0.184  -2.161  1.00  0.00     0.154 C 
ATOM     22  H2  UNL     1       1.805  -0.205  -0.765  1.00  0.00     0.164 HD
ENDBRANCH  15  16
ENDBRANCH   1  15
TORSDOF 2
