REMARK  5 active torsions:
REMARK  status: ('A' for Active; 'I' for Inactive)
REMARK    1  A    between atoms: C3_3  and  C4_4 
REMARK       I    between atoms: C4_4  and  N1_6 
REMARK    2  A    between atoms: C5_8  and  C6_9 
REMARK    3  A    between atoms: C11_15  and  O3_17 
REMARK    4  A    between atoms: C18_24  and  O4_25 
REMARK    5  A    between atoms: C19_27  and  O5_28 
ROOT
HETATM    1  C6  UNL     1       1.012  -1.243  -1.128  1.00  0.00     0.080 C 
HETATM    2  C7  UNL     1       0.193  -2.419  -0.816  1.00  0.00     0.181 C 
HETATM    3  O2  UNL     1      -1.157  -2.375  -1.007  1.00  0.00    -0.376 OA
HETATM    4  C8  UNL     1      -1.773  -1.199  -0.821  1.00  0.00     0.099 C 
HETATM    5  C9  UNL     1      -2.918  -0.786  -1.765  1.00  0.00     0.052 C 
HETATM    6  C10 UNL     1      -2.206   0.586  -1.763  1.00  0.00     0.063 C 
HETATM    7  C11 UNL     1      -2.527   1.411  -0.588  1.00  0.00     0.065 C 
HETATM    8  C12 UNL     1      -3.714   2.309  -0.930  1.00  0.00     0.047 C 
HETATM    9  C13 UNL     1      -2.772   0.575   0.617  1.00  0.00     0.027 C 
HETATM   10  C14 UNL     1      -2.126   1.164   1.881  1.00  0.00     0.008 C 
HETATM   11  C15 UNL     1      -1.991  -0.116   2.718  1.00  0.00     0.001 C 
HETATM   12  C16 UNL     1      -1.449  -1.131   1.696  1.00  0.00     0.008 C 
HETATM   13  C17 UNL     1      -2.271  -0.836   0.510  1.00  0.00     0.030 C 
HETATM   14  C18 UNL     1      -1.015  -0.217  -1.684  1.00  0.00     0.122 C 
HETATM   15  C19 UNL     1       0.251   0.095  -1.062  1.00  0.00     0.167 C 
ENDROOT
BRANCH   1  16
HETATM   16  C5  UNL     1       2.209  -1.096  -0.293  1.00  0.00     0.073 C 
HETATM   17  N1  UNL     1       3.019  -0.126  -0.541  1.00  0.00    -0.337 N 
HETATM   18  C4  UNL     1       4.199   0.122   0.187  1.00  0.00     0.244 C 
ATOM     19  H1  UNL     1       2.792   0.502  -1.312  1.00  0.00     0.168 HD
HETATM   20  O1  UNL     1       5.235   0.626  -0.328  1.00  0.00    -0.268 OA
BRANCH  18  21
HETATM   21  C3  UNL     1       4.251  -0.211   1.600  1.00  0.00     0.070 C 
HETATM   22  C2  UNL     1       5.307  -0.018   2.362  1.00  0.00    -0.026 C 
HETATM   23  C1  UNL     1       6.568   0.558   1.888  1.00  0.00     0.036 C 
ENDBRANCH  18  21
ENDBRANCH   1  16
BRANCH  15  24
HETATM   24  O5  UNL     1       0.954   1.014  -1.879  1.00  0.00    -0.392 OA
ATOM     25  H5  UNL     1       0.485   1.839  -1.838  1.00  0.00     0.210 HD
ENDBRANCH  15  24
BRANCH  14  26
HETATM   26  O4  UNL     1      -0.783  -0.850  -2.940  1.00  0.00    -0.384 OA
ATOM     27  H4  UNL     1      -0.306  -0.233  -3.483  1.00  0.00     0.210 HD
ENDBRANCH  14  26
BRANCH   7  28
HETATM   28  O3  UNL     1      -1.459   2.295  -0.308  1.00  0.00    -0.389 OA
ATOM     29  H3  UNL     1      -1.666   2.828   0.451  1.00  0.00     0.210 HD
ENDBRANCH   7  28
TORSDOF 5
