REMARK  5 active torsions:
REMARK  status: ('A' for Active; 'I' for Inactive)
REMARK    1  A    between atoms: C2_2  and  C3_3 
REMARK    2  A    between atoms: C3_3  and  C4_4 
REMARK    3  A    between atoms: C4_4  and  C5_5 
REMARK    4  A    between atoms: C5_5  and  N1_6 
REMARK    5  A    between atoms: C14_19  and  N3_20 
ROOT
HETATM    1  N1  UNL     1       0.000  -0.218  -0.633  1.00  0.00    -0.276 N 
HETATM    2  N2  UNL     1      -0.716   0.893  -0.583  1.00  0.00    -0.295 N 
ATOM      3  H2  UNL     1      -0.375   1.816  -0.852  1.00  0.00     0.187 HD
HETATM    4  C6  UNL     1      -1.966   0.636  -0.125  1.00  0.00     0.070 A 
HETATM    5  C7  UNL     1      -3.078   1.399   0.115  1.00  0.00    -0.009 A 
HETATM    6  C8  UNL     1      -3.024   2.853  -0.149  1.00  0.00     0.052 C 
HETATM    7  C9  UNL     1      -4.227   0.811   0.596  1.00  0.00     0.064 A 
HETATM    8 CL1  UNL     1      -5.672   1.785   0.911  1.00  0.00    -0.082 Cl
HETATM    9  C10 UNL     1      -4.250  -0.555   0.835  1.00  0.00     0.063 A 
HETATM   10 CL2  UNL     1      -5.745  -1.257   1.450  1.00  0.00    -0.082 Cl
HETATM   11  C11 UNL     1      -3.141  -1.347   0.601  1.00  0.00    -0.022 A 
HETATM   12  C12 UNL     1      -3.211  -2.756   0.863  1.00  0.00     0.051 C 
HETATM   13  C13 UNL     1      -2.027  -0.714   0.124  1.00  0.00     0.045 A 
HETATM   14  C14 UNL     1      -0.799  -1.217  -0.198  1.00  0.00     0.129 A 
ENDROOT
BRANCH   1  15
HETATM   15  C5  UNL     1       1.370  -0.300  -1.074  1.00  0.00     0.151 C 
BRANCH  15  16
HETATM   16  C4  UNL     1       2.354  -0.115   0.039  1.00  0.00     0.022 C 
BRANCH  16  17
HETATM   17  C3  UNL     1       3.752  -0.229  -0.584  1.00  0.00     0.001 C 
BRANCH  17  18
HETATM   18  C2  UNL     1       4.806  -0.046   0.515  1.00  0.00    -0.004 C 
HETATM   19  C1  UNL     1       4.683   1.300   1.180  1.00  0.00     0.005 C 
ENDBRANCH  17  18
ENDBRANCH  16  17
ENDBRANCH  15  16
ENDBRANCH   1  15
BRANCH  14  20
HETATM   20  N3  UNL     1      -0.425  -2.431  -0.117  1.00  0.00    -0.384 N 
ATOM     21  H32 UNL     1       0.492  -2.807  -0.358  1.00  0.00     0.157 HD
ATOM     22  H31 UNL     1      -1.028  -3.185   0.211  1.00  0.00     0.157 HD
ENDBRANCH  14  20
TORSDOF 5
