REMARK  2 active torsions:
REMARK  status: ('A' for Active; 'I' for Inactive)
REMARK    1  A    between atoms: O1_2  and  N1_3 
REMARK       I    between atoms: N1_3  and  C2_5 
REMARK       I    between atoms: C2_5  and  N3_9 
REMARK    2  A    between atoms: C7_16  and  N4_17 
ROOT
HETATM    1  N1  UNL     1      -2.659   0.819  -0.814  1.00  0.00    -0.097 N 
ATOM      2  H1  UNL     1      -2.224   1.264  -1.622  1.00  0.00     0.213 HD
HETATM    3  C2  UNL     1      -1.813   0.273   0.180  1.00  0.00     0.697 C 
HETATM    4  N2  UNL     1      -2.025   0.532   1.419  1.00  0.00    -0.233 N 
ATOM      5  H21 UNL     1      -1.415   0.138   2.136  1.00  0.00     0.174 HD
ATOM      6  H22 UNL     1      -2.812   1.134   1.661  1.00  0.00     0.174 HD
HETATM    7  N3  UNL     1      -0.722  -0.562  -0.156  1.00  0.00    -0.175 N 
ATOM      8  H3  UNL     1      -0.922  -1.504  -0.494  1.00  0.00     0.186 HD
HETATM    9  C3  UNL     1       0.509  -0.199  -0.059  1.00  0.00     0.126 A 
HETATM   10  C4  UNL     1       1.517  -1.071  -0.406  1.00  0.00     0.081 A 
HETATM   11  C5  UNL     1       2.823  -0.660  -0.294  1.00  0.00     0.056 A 
HETATM   12  C6  UNL     1       3.922  -1.584  -0.663  1.00  0.00     0.077 C 
HETATM   13  O2  UNL     1       3.142   0.550   0.138  1.00  0.00    -0.284 OA
HETATM   14  C7  UNL     1       2.186   1.389   0.472  1.00  0.00     0.223 A 
HETATM   15  N5  UNL     1       0.885   1.017   0.373  1.00  0.00    -0.308 N 
ATOM     16  H5  UNL     1       0.163   1.687   0.637  1.00  0.00     0.171 HD
ENDROOT
BRANCH  14  17
HETATM   17  N4  UNL     1       2.538   2.568   0.892  1.00  0.00    -0.365 N 
ATOM     18  H42 UNL     1       3.516   2.848   0.966  1.00  0.00     0.159 HD
ATOM     19  H41 UNL     1       1.797   3.219   1.151  1.00  0.00     0.159 HD
ENDBRANCH  14  17
BRANCH   1  20
HETATM   20  O1  UNL     1      -4.010   0.786  -0.758  1.00  0.00    -0.272 OA
HETATM   21  C1  UNL     1      -4.476  -0.401  -0.252  1.00  0.00     0.238 C 
ENDBRANCH   1  20
TORSDOF 2
