REMARK  7 active torsions:
REMARK  status: ('A' for Active; 'I' for Inactive)
REMARK    1  A    between atoms: N1_1  and  N2_4 
REMARK    2  A    between atoms: N2_4  and  N3_5 
REMARK    3  A    between atoms: N3_5  and  C1_7 
REMARK    4  A    between atoms: C1_7  and  N4_8 
REMARK    5  A    between atoms: C4_15  and  N7_16 
REMARK    6  A    between atoms: N9_24  and  N10_25 
REMARK    7  A    between atoms: N10_25  and  N11_26 
ROOT
HETATM    1  N4  UNL     1      -0.842   0.335  -0.389  1.00  0.00    -0.239 N 
HETATM    2  C2  UNL     1       0.471   0.744  -0.001  1.00  0.00     0.143 A 
HETATM    3  N5  UNL     1       0.709   1.971   0.496  1.00  0.00    -0.337 N 
ATOM      4  H5  UNL     1      -0.069   2.623   0.598  1.00  0.00     0.168 HD
HETATM    5  C3  UNL     1       1.938   2.364   0.862  1.00  0.00     0.183 A 
HETATM    6  N6  UNL     1       3.002   1.533   0.746  1.00  0.00    -0.338 N 
ATOM      7  H6  UNL     1       3.932   1.843   1.028  1.00  0.00     0.168 HD
HETATM    8  C4  UNL     1       2.816   0.280   0.249  1.00  0.00     0.119 A 
HETATM    9  C5  UNL     1       1.550  -0.119  -0.127  1.00  0.00     0.122 A 
HETATM   10  C6  UNL     1       1.260  -1.441  -0.668  1.00  0.00     0.276 C 
HETATM   11  O1  UNL     1       2.213  -2.264  -0.801  1.00  0.00    -0.266 OA
HETATM   12  N8  UNL     1      -0.071  -1.761  -1.026  1.00  0.00    -0.249 N 
ATOM     13  H8  UNL     1      -0.234  -2.609  -1.569  1.00  0.00     0.187 HD
HETATM   14  N9  UNL     1      -1.170  -0.981  -0.677  1.00  0.00    -0.017 NA
ENDROOT
BRANCH   1  15
HETATM   15  C1  UNL     1      -1.847   1.375  -0.471  1.00  0.00     0.303 C 
BRANCH  15  16
HETATM   16  N3  UNL     1      -3.132   0.847  -0.871  1.00  0.00    -0.233 N 
ATOM     17  H3  UNL     1      -3.225  -0.084  -1.276  1.00  0.00     0.199 HD
BRANCH  16  18
HETATM   18  N2  UNL     1      -4.121   1.586  -0.696  1.00  0.00    -0.247 NA
BRANCH  18  19
HETATM   19  N1  UNL     1      -5.021   2.450  -0.766  1.00  0.00    -0.261 N 
ATOM     20  H12 UNL     1      -4.635   2.828  -1.631  1.00  0.00     0.193 HD
ATOM     21  H11 UNL     1      -5.830   3.055  -0.623  1.00  0.00     0.193 HD
ENDBRANCH  18  19
ENDBRANCH  16  18
ENDBRANCH  15  16
ENDBRANCH   1  15
BRANCH  14  22
HETATM   22  N10 UNL     1      -1.813  -1.622   0.385  1.00  0.00    -0.014 NA
BRANCH  22  23
HETATM   23  N11 UNL     1      -1.125  -2.765   0.815  1.00  0.00    -0.330 N 
ATOM     24 2H11 UNL     1      -0.253  -3.080   0.390  1.00  0.00     0.173 HD
ATOM     25 1H11 UNL     1      -1.594  -3.233   1.590  1.00  0.00     0.173 HD
ENDBRANCH  22  23
ENDBRANCH  14  22
BRANCH   8  26
HETATM   26  N7  UNL     1       3.803  -0.535   0.124  1.00  0.00    -0.385 N 
ATOM     27  H72 UNL     1       4.739  -0.240   0.402  1.00  0.00     0.157 HD
ATOM     28  H71 UNL     1       3.664  -1.474  -0.249  1.00  0.00     0.157 HD
ENDBRANCH   8  26
TORSDOF 7
