REMARK  7 active torsions:
REMARK  status: ('A' for Active; 'I' for Inactive)
REMARK    1  A    between atoms: O1_2  and  C2_3 
REMARK    2  A    between atoms: C2_3  and  C3_5 
REMARK    3  A    between atoms: C4_6  and  O3_7 
REMARK    4  A    between atoms: C5_9  and  O4_10 
REMARK    5  A    between atoms: C9_18  and  C10_19 
REMARK    6  A    between atoms: C10_19  and  N2_20 
REMARK    7  A    between atoms: N2_20  and  N3_22 
ROOT
HETATM    1  C3  UNL     1      -0.524  -0.622   0.242  1.00  0.00     0.092 C 
HETATM    2  C4  UNL     1      -0.063  -1.826   0.786  1.00  0.00     0.122 C 
HETATM    3  C5  UNL     1       1.229  -2.320   0.638  1.00  0.00     0.169 C 
HETATM    4  C6  UNL     1       2.353  -1.608   0.368  1.00  0.00     0.286 C 
HETATM    5  O5  UNL     1       3.447  -2.174   0.625  1.00  0.00    -0.265 OA
HETATM    6  N1  UNL     1       2.491  -0.379  -0.138  1.00  0.00    -0.283 N 
HETATM    7  C7  UNL     1       3.753  -0.041  -0.731  1.00  0.00     0.163 C 
HETATM    8  C8  UNL     1       1.548   0.604  -0.151  1.00  0.00     0.263 C 
HETATM    9  O6  UNL     1       1.919   1.764  -0.497  1.00  0.00    -0.267 OA
HETATM   10  C9  UNL     1       0.200   0.554   0.160  1.00  0.00     0.068 C 
ENDROOT
BRANCH  10  11
HETATM   11  C10 UNL     1      -0.539   1.744   0.445  1.00  0.00     0.124 C 
BRANCH  11  12
HETATM   12  N2  UNL     1       0.023   2.927   0.391  1.00  0.00    -0.317 N 
ATOM     13  H2  UNL     1       1.010   2.985   0.138  1.00  0.00     0.185 HD
BRANCH  12  14
HETATM   14  N3  UNL     1      -0.663   4.107   0.662  1.00  0.00    -0.345 N 
ATOM     15  H32 UNL     1      -1.649   4.030   0.913  1.00  0.00     0.176 HD
ATOM     16  H31 UNL     1      -0.226   5.028   0.620  1.00  0.00     0.176 HD
ENDBRANCH  12  14
ENDBRANCH  11  12
ENDBRANCH  10  11
BRANCH   1  17
HETATM   17  C2  UNL     1      -1.864  -0.643  -0.292  1.00  0.00     0.296 C 
HETATM   18  O2  UNL     1      -2.533  -1.699  -0.247  1.00  0.00    -0.259 OA
BRANCH  17  19
HETATM   19  O1  UNL     1      -2.524   0.423  -0.881  1.00  0.00    -0.322 OA
HETATM   20  C1  UNL     1      -3.825   0.371  -1.394  1.00  0.00     0.213 C 
ENDBRANCH  17  19
ENDBRANCH   1  17
BRANCH   2  21
HETATM   21  O3  UNL     1      -0.902  -2.598   1.523  1.00  0.00    -0.357 OA
ATOM     22  H3  UNL     1      -0.589  -3.415   1.892  1.00  0.00     0.218 HD
ENDBRANCH   2  21
BRANCH   3  23
HETATM   23  O4  UNL     1       1.407  -3.683   0.779  1.00  0.00    -0.354 OA
ATOM     24  H4  UNL     1       2.289  -4.020   0.678  1.00  0.00     0.218 HD
ENDBRANCH   3  23
TORSDOF 7
