REMARK  3 active torsions:
REMARK  status: ('A' for Active; 'I' for Inactive)
REMARK    1  A    between atoms: N2_4  and  N3_6 
REMARK    2  A    between atoms: N3_6  and  S1_8 
REMARK    3  A    between atoms: S1_8  and  N4_9 
ROOT
HETATM    1  N3  UNL     1       0.680  -0.132  -0.714  1.00  0.00    -0.209 N 
ATOM      2  H3  UNL     1       0.554  -0.512  -1.652  1.00  0.00     0.201 HD
ENDROOT
BRANCH   1   3
HETATM    3  N2  UNL     1      -0.317   0.602  -0.082  1.00  0.00    -0.281 N 
HETATM    4  C2  UNL     1      -1.548   0.243  -0.064  1.00  0.00     0.104 C 
HETATM    5  C1  UNL     1      -1.905  -1.024  -0.757  1.00  0.00     0.086 C 
HETATM    6  N1  UNL     1      -2.512   1.035   0.597  1.00  0.00    -0.087 NA
ATOM      7  H2  UNL     1      -0.057   1.468   0.390  1.00  0.00     0.188 HD
ENDBRANCH   1   3
BRANCH   1   8
HETATM    8  S1  UNL     1       2.137  -0.366   0.170  1.00  0.00     0.330 S 
HETATM    9  O1  UNL     1       1.826  -0.435   1.645  1.00  0.00    -0.181 OA
HETATM   10  O2  UNL     1       2.821  -1.642  -0.196  1.00  0.00    -0.181 OA
BRANCH   8  11
HETATM   11  N4  UNL     1       3.176   0.947  -0.210  1.00  0.00    -0.310 N 
ATOM     12  H42 UNL     1       2.956   1.715  -0.844  1.00  0.00     0.170 HD
ATOM     13  H41 UNL     1       4.040   0.808   0.314  1.00  0.00     0.170 HD
ENDBRANCH   8  11
ENDBRANCH   1   8
TORSDOF 3
