REMARK  6 active torsions:
REMARK  status: ('A' for Active; 'I' for Inactive)
REMARK       I    between atoms: C1_2  and  N1_3 
REMARK    1  A    between atoms: C1_2  and  C12_15 
REMARK    2  A    between atoms: N1_3  and  C2_5 
REMARK    3  A    between atoms: C14_17  and  O2_18 
REMARK    4  A    between atoms: N2_20  and  C15_21 
REMARK    5  A    between atoms: C15_21  and  C16_22 
REMARK    6  A    between atoms: C20_26  and  O3_27 
ROOT
HETATM    1  C12 UNL     1       1.177  -0.213   0.520  1.00  0.00     0.087 A 
HETATM    2  C13 UNL     1       1.613   0.632   1.516  1.00  0.00     0.077 A 
HETATM    3  C14 UNL     1       2.966   0.482   1.682  1.00  0.00     0.145 A 
HETATM    4  N2  UNL     1       3.355  -0.450   0.792  1.00  0.00    -0.307 N 
HETATM    5  C20 UNL     1       2.308  -0.886   0.081  1.00  0.00     0.160 A 
ENDROOT
BRANCH   1   6
HETATM    6  C1  UNL     1      -0.204  -0.369   0.024  1.00  0.00     0.256 C 
HETATM    7  O1  UNL     1      -0.412  -1.181  -0.883  1.00  0.00    -0.267 OA
HETATM    8  N1  UNL     1      -1.222   0.407   0.599  1.00  0.00    -0.347 N 
ATOM      9  H1  UNL     1      -0.984   1.061   1.345  1.00  0.00     0.163 HD
BRANCH   8  10
HETATM   10  C2  UNL     1      -2.590   0.309   0.170  1.00  0.00     0.034 C 
HETATM   11  C3  UNL     1      -3.097  -1.075   0.398  1.00  0.00     0.035 C 
HETATM   12  C4  UNL     1      -4.576  -1.149   0.012  1.00  0.00    -0.012 C 
HETATM   13  C5  UNL     1      -4.632  -0.849  -1.484  1.00  0.00     0.009 C 
HETATM   14  C9  UNL     1      -5.412  -0.172   0.782  1.00  0.00     0.009 C 
HETATM   15  C6  UNL     1      -4.119   0.543  -1.748  1.00  0.00    -0.012 C 
HETATM   16  C7  UNL     1      -5.013   1.501  -0.979  1.00  0.00     0.009 C 
HETATM   17  C11 UNL     1      -2.696   0.743  -1.257  1.00  0.00     0.035 C 
HETATM   18  C8  UNL     1      -4.861   1.210   0.477  1.00  0.00    -0.012 C 
HETATM   19  C10 UNL     1      -3.451   1.284   0.981  1.00  0.00     0.035 C 
ENDBRANCH   8  10
ENDBRANCH   1   6
BRANCH   5  20
HETATM   20  O3  UNL     1       2.238  -1.829  -0.930  1.00  0.00    -0.345 OA
ATOM     21  H3  UNL     1       3.012  -2.290  -1.231  1.00  0.00     0.219 HD
ENDBRANCH   5  20
BRANCH   3  22
HETATM   22  O2  UNL     1       3.805   1.152   2.590  1.00  0.00    -0.346 OA
ATOM     23  H2  UNL     1       4.742   1.048   2.705  1.00  0.00     0.219 HD
ENDBRANCH   3  22
BRANCH   4  24
HETATM   24  C15 UNL     1       4.704  -0.898   0.653  1.00  0.00     0.138 C 
BRANCH  24  25
HETATM   25  C16 UNL     1       5.543  -0.120  -0.296  1.00  0.00     0.004 C 
HETATM   26  C17 UNL     1       5.135  -0.041  -1.727  1.00  0.00     0.006 C 
HETATM   27  C18 UNL     1       6.636  -0.102  -2.067  1.00  0.00     0.001 C 
HETATM   28  C19 UNL     1       6.761  -0.925  -0.774  1.00  0.00     0.006 C 
ENDBRANCH  24  25
ENDBRANCH   4  24
TORSDOF 6
