REMARK  5 active torsions:
REMARK  status: ('A' for Active; 'I' for Inactive)
REMARK    1  A    between atoms: C3_6  and  O2_7 
REMARK    2  A    between atoms: O2_7  and  C4_8 
REMARK    3  A    between atoms: C11_15  and  C12_16 
REMARK    4  A    between atoms: C14_22  and  C15_23 
REMARK    5  A    between atoms: C18_26  and  O3_27 
ROOT
HETATM    1  O1  UNL     1       0.921   3.701  -1.819  1.00  0.00    -0.267 OA
HETATM    2  C1  UNL     1       0.229   2.725  -1.450  1.00  0.00     0.256 A 
HETATM    3  N1  UNL     1      -1.002   2.912  -0.928  1.00  0.00    -0.330 N 
ATOM      4  H1  UNL     1      -1.390   3.850  -0.825  1.00  0.00     0.168 HD
HETATM    5  C2  UNL     1      -1.705   1.825  -0.546  1.00  0.00     0.128 A 
HETATM    6  C3  UNL     1      -1.218   0.548  -0.667  1.00  0.00     0.085 A 
HETATM    7  C10 UNL     1       0.052   0.357  -1.206  1.00  0.00     0.056 A 
HETATM    8  C11 UNL     1       0.772   1.444  -1.595  1.00  0.00     0.048 A 
ENDROOT
BRANCH   8   9
HETATM    9  C12 UNL     1       2.093   1.275  -2.175  1.00  0.00     0.021 A 
HETATM   10  C13 UNL     1       2.537   1.840  -3.360  1.00  0.00     0.121 A 
HETATM   11  N2  UNL     1       3.793   1.430  -3.540  1.00  0.00    -0.311 N 
HETATM   12  N3  UNL     1       4.135   0.656  -2.543  1.00  0.00    -0.304 N 
ATOM     13  H2  UNL     1       4.390   1.680  -4.328  1.00  0.00     0.186 HD
HETATM   14  C14 UNL     1       3.113   0.527  -1.666  1.00  0.00     0.042 A 
ATOM     15  H3  UNL     1       5.047   0.211  -2.441  1.00  0.00     0.186 HD
BRANCH  14  16
HETATM   16  C15 UNL     1       3.229  -0.282  -0.438  1.00  0.00     0.040 C 
HETATM   17  C16 UNL     1       4.649  -0.861  -0.318  1.00  0.00     0.013 C 
HETATM   18  C17 UNL     1       5.124  -0.562   1.067  1.00  0.00     0.032 C 
HETATM   19  C18 UNL     1       3.863  -0.304   1.824  1.00  0.00     0.118 C 
HETATM   20  C19 UNL     1       3.071   0.540   0.830  1.00  0.00     0.042 C 
BRANCH  19  21
HETATM   21  O3  UNL     1       4.049   0.408   2.994  1.00  0.00    -0.396 OA
ATOM     22  H3  UNL     1       3.247   0.572   3.476  1.00  0.00     0.210 HD
ENDBRANCH  19  21
ENDBRANCH  14  16
ENDBRANCH   8   9
BRANCH   6  23
HETATM   23  O2  UNL     1      -1.942  -0.542  -0.275  1.00  0.00    -0.344 OA
BRANCH  23  24
HETATM   24  C4  UNL     1      -3.208  -0.604   0.284  1.00  0.00     0.129 C 
HETATM   25  C5  UNL     1      -3.148  -1.433   1.560  1.00  0.00     0.032 C 
HETATM   26  C6  UNL     1      -4.487  -1.391   2.266  1.00  0.00     0.002 C 
HETATM   27  C7  UNL     1      -5.626  -1.185   1.301  1.00  0.00     0.000 C 
HETATM   28  C8  UNL     1      -5.370  -1.786  -0.048  1.00  0.00     0.002 C 
HETATM   29  C9  UNL     1      -4.075  -1.422  -0.682  1.00  0.00     0.032 C 
ENDBRANCH  23  24
ENDBRANCH   6  23
TORSDOF 5
