REMARK  9 active torsions:
REMARK  status: ('A' for Active; 'I' for Inactive)
REMARK    1  A    between atoms: N2_7  and  C4_8 
REMARK    2  A    between atoms: C4_8  and  C5_9 
REMARK    3  A    between atoms: C8_12  and  N3_13 
REMARK    4  A    between atoms: C11_22  and  C12_23 
REMARK       I    between atoms: C12_23  and  N6_25 
REMARK    5  A    between atoms: N6_25  and  C13_27 
REMARK    6  A    between atoms: C13_27  and  C14_28 
REMARK    7  A    between atoms: C15_29  and  C16_30 
REMARK    8  A    between atoms: C16_30  and  N7_31 
REMARK    9  A    between atoms: N7_31  and  C17_33 
ROOT
HETATM    1  O1  UNL     1      -0.670  -2.984   1.114  1.00  0.00    -0.271 OA
HETATM    2  C1  UNL     1       0.001  -2.062   0.687  1.00  0.00     0.241 C 
HETATM    3  C2  UNL     1       1.160  -1.643   1.551  1.00  0.00     0.257 C 
HETATM    4  N1  UNL     1       2.206  -1.234   0.620  1.00  0.00    -0.227 N 
HETATM    5  C3  UNL     1       3.405  -1.801   0.594  1.00  0.00     0.348 A 
HETATM    6  O2  UNL     1       3.900  -2.716   1.309  1.00  0.00    -0.245 OA
HETATM    7  N2  UNL     1       4.135  -1.220  -0.404  1.00  0.00    -0.243 N 
HETATM    8  C9  UNL     1       3.320  -0.304  -0.947  1.00  0.00     0.348 A 
HETATM    9  O5  UNL     1       3.604   0.467  -1.912  1.00  0.00    -0.245 OA
HETATM   10  N5  UNL     1       2.111  -0.314  -0.305  1.00  0.00    -0.233 N 
HETATM   11  C10 UNL     1       1.024   0.599  -0.693  1.00  0.00     0.197 C 
HETATM   12  C11 UNL     1      -0.310  -0.045  -0.816  1.00  0.00     0.150 A 
HETATM   13  C20 UNL     1      -0.667  -0.950  -1.893  1.00  0.00     0.170 A 
HETATM   14  N10 UNL     1      -0.314  -1.455  -0.541  1.00  0.00    -0.326 N 
ENDROOT
BRANCH  12  15
HETATM   15  C12 UNL     1      -1.474   0.717  -0.232  1.00  0.00     0.250 C 
HETATM   16  O6  UNL     1      -2.509   0.079   0.098  1.00  0.00    -0.271 OA
HETATM   17  N6  UNL     1      -1.480   2.105  -0.019  1.00  0.00    -0.348 N 
ATOM     18  H6  UNL     1      -0.653   2.639  -0.287  1.00  0.00     0.163 HD
BRANCH  17  19
HETATM   19  C13 UNL     1      -2.584   2.808   0.554  1.00  0.00     0.217 C 
BRANCH  19  20
HETATM   20  C14 UNL     1      -3.815   2.690  -0.207  1.00  0.00    -0.085 C 
HETATM   21  C15 UNL     1      -4.846   2.620  -0.824  1.00  0.00    -0.085 C 
BRANCH  21  22
HETATM   22  C16 UNL     1      -6.103   2.569  -1.565  1.00  0.00     0.217 C 
BRANCH  22  23
HETATM   23  N7  UNL     1      -7.190   1.982  -0.839  1.00  0.00    -0.352 N 
ATOM     24  H7  UNL     1      -7.978   2.555  -0.537  1.00  0.00     0.163 HD
BRANCH  23  25
HETATM   25  C17 UNL     1      -7.156   0.574  -0.541  1.00  0.00     0.171 C 
HETATM   26  N8  UNL     1      -7.462  -0.389  -1.336  1.00  0.00    -0.361 N 
HETATM   27  C18 UNL     1      -7.320  -1.685  -0.725  1.00  0.00     0.142 C 
ATOM     28  H8  UNL     1      -7.772  -0.250  -2.298  1.00  0.00     0.162 HD
HETATM   29  C19 UNL     1      -7.287  -1.345   0.769  1.00  0.00     0.142 C 
HETATM   30  N9  UNL     1      -6.765   0.003   0.701  1.00  0.00    -0.361 N 
ATOM     31  H9  UNL     1      -6.211   0.465   1.422  1.00  0.00     0.162 HD
ENDBRANCH  23  25
ENDBRANCH  22  23
ENDBRANCH  21  22
ENDBRANCH  19  20
ENDBRANCH  17  19
ENDBRANCH  12  15
BRANCH   7  32
HETATM   32  C4  UNL     1       5.484  -1.517  -0.806  1.00  0.00     0.195 C 
BRANCH  32  33
HETATM   33  C5  UNL     1       6.485  -0.687  -0.101  1.00  0.00     0.029 A 
HETATM   34  C6  UNL     1       7.142   0.416  -0.568  1.00  0.00     0.030 A 
HETATM   35  C7  UNL     1       7.990   0.902   0.401  1.00  0.00     0.057 A 
HETATM   36  C8  UNL     1       7.843   0.063   1.498  1.00  0.00     0.174 A 
HETATM   37  N4  UNL     1       6.932  -0.871   1.149  1.00  0.00    -0.340 N 
ATOM     38  H4  UNL     1       6.622  -1.625   1.762  1.00  0.00     0.167 HD
BRANCH  36  39
HETATM   39  N3  UNL     1       8.534   0.218   2.723  1.00  0.00    -0.098 N 
HETATM   40  O3  UNL     1       9.325   1.159   2.865  1.00  0.00    -0.531 OA
HETATM   41  O4  UNL     1       8.346  -0.646   3.769  1.00  0.00    -0.531 OA
ENDBRANCH  36  39
ENDBRANCH  32  33
ENDBRANCH   7  32
TORSDOF 9
