REMARK  2 active torsions:
REMARK  status: ('A' for Active; 'I' for Inactive)
REMARK    1  A    between atoms: N1_1  and  N2_4 
REMARK       I    between atoms: N2_4  and  C1_6 
REMARK    2  A    between atoms: C1_6  and  C2_8 
ROOT
HETATM    1  C2  UNL     1       0.976  -0.169   0.198  1.00  0.00     0.177 A 
HETATM    2  N3  UNL     1       0.271   0.959   0.257  1.00  0.00    -0.331 N 
ATOM      3  H3  UNL     1       0.660   1.898   0.348  1.00  0.00     0.168 HD
HETATM    4  C3  UNL     1      -1.033   0.660   0.178  1.00  0.00     0.134 A 
HETATM    5  C4  UNL     1      -1.136  -0.709   0.066  1.00  0.00     0.123 A 
HETATM    6  N4  UNL     1       0.115  -1.192   0.081  1.00  0.00    -0.332 N 
ATOM      7  H4  UNL     1       0.371  -2.177   0.014  1.00  0.00     0.168 HD
HETATM    8  C5  UNL     1      -2.442  -1.376  -0.042  1.00  0.00     0.268 A 
HETATM    9  O2  UNL     1      -2.463  -2.627  -0.141  1.00  0.00    -0.280 OA
HETATM   10  C6  UNL     1      -3.655  -0.585  -0.031  1.00  0.00     0.300 A 
HETATM   11  O3  UNL     1      -4.793  -1.138  -0.123  1.00  0.00    -0.264 OA
HETATM   12  N5  UNL     1      -3.561   0.830   0.085  1.00  0.00    -0.285 N 
ATOM     13  H5  UNL     1      -4.403   1.405   0.095  1.00  0.00     0.172 HD
HETATM   14  C7  UNL     1      -2.280   1.430   0.186  1.00  0.00     0.277 A 
HETATM   15  O4  UNL     1      -2.202   2.678   0.288  1.00  0.00    -0.266 OA
ENDROOT
BRANCH   1  16
HETATM   16  C1  UNL     1       2.430  -0.348   0.245  1.00  0.00     0.303 C 
HETATM   17  N2  UNL     1       3.282   0.768   0.369  1.00  0.00    -0.270 N 
ATOM     18  H2  UNL     1       2.879   1.703   0.426  1.00  0.00     0.189 HD
HETATM   19  O1  UNL     1       2.952  -1.476   0.178  1.00  0.00    -0.263 OA
BRANCH  17  20
HETATM   20  N1  UNL     1       4.649   0.615   0.415  1.00  0.00    -0.342 N 
ATOM     21  H12 UNL     1       5.035  -0.327   0.357  1.00  0.00     0.176 HD
ATOM     22  H11 UNL     1       5.266   1.423   0.505  1.00  0.00     0.176 HD
ENDBRANCH  17  20
ENDBRANCH   1  16
TORSDOF 2
