REMARK  4 active torsions:
REMARK  status: ('A' for Active; 'I' for Inactive)
REMARK    1  A    between atoms: N1_1  and  C1_4 
REMARK    2  A    between atoms: C2_7  and  N3_8 
REMARK    3  A    between atoms: N4_11  and  O1_12 
REMARK    4  A    between atoms: C4_17  and  N6_18 
ROOT
HETATM    1  C1  UNL     1      -2.566   1.144  -0.666  1.00  0.00     0.147 A 
HETATM    2  N2  UNL     1      -3.431   0.181  -0.303  1.00  0.00    -0.173 N 
ATOM      3  H2  UNL     1      -4.431   0.334  -0.434  1.00  0.00     0.186 HD
HETATM    4  C2  UNL     1      -3.007  -0.980   0.230  1.00  0.00     0.705 A 
HETATM    5  N4  UNL     1      -1.705  -1.253   0.434  1.00  0.00    -0.033 N 
HETATM    6  C3  UNL     1      -0.775  -0.363   0.108  1.00  0.00     0.198 A 
HETATM    7  N5  UNL     1       0.556  -0.545   0.275  1.00  0.00    -0.170 N 
ATOM      8  H5  UNL     1       0.902  -1.416   0.678  1.00  0.00     0.186 HD
HETATM    9  C4  UNL     1       1.421   0.410  -0.085  1.00  0.00     0.696 A 
HETATM   10  N7  UNL     1       0.983   1.565  -0.616  1.00  0.00    -0.131 N 
ATOM     11  H7  UNL     1       1.666   2.275  -0.880  1.00  0.00     0.205 HD
HETATM   12  N8  UNL     1      -0.301   1.813  -0.808  1.00  0.00    -0.280 N 
ATOM     13  H8  UNL     1      -0.591   2.703  -1.214  1.00  0.00     0.188 HD
HETATM   14  C7  UNL     1      -1.220   0.906  -0.474  1.00  0.00     0.140 A 
ENDROOT
BRANCH   1  15
HETATM   15  N1  UNL     1      -3.012   2.233  -1.169  1.00  0.00    -0.383 N 
ATOM     16  H12 UNL     1      -4.007   2.409  -1.311  1.00  0.00     0.157 HD
ATOM     17  H11 UNL     1      -2.356   2.964  -1.444  1.00  0.00     0.157 HD
ENDBRANCH   1  15
BRANCH   4  18
HETATM   18  N3  UNL     1      -3.877  -1.872   0.561  1.00  0.00    -0.232 N 
ATOM     19  H32 UNL     1      -4.864  -1.665   0.406  1.00  0.00     0.174 HD
ATOM     20  H31 UNL     1      -3.556  -2.752   0.965  1.00  0.00     0.174 HD
ENDBRANCH   4  18
BRANCH   5  21
HETATM   21  O1  UNL     1      -1.313  -2.466   0.988  1.00  0.00    -0.268 OA
ATOM     22  H1  UNL     1      -0.394  -2.659   1.132  1.00  0.00     0.246 HD
ENDBRANCH   5  21
BRANCH   9  23
HETATM   23  N6  UNL     1       2.813   0.210   0.094  1.00  0.00    -0.213 N 
HETATM   24  C5  UNL     1       4.214   0.640  -0.001  1.00  0.00     0.161 A 
HETATM   25  C6  UNL     1       3.938  -0.641   0.538  1.00  0.00     0.161 A 
ENDBRANCH   9  23
TORSDOF 4
