REMARK  9 active torsions:
REMARK  status: ('A' for Active; 'I' for Inactive)
REMARK    1  A    between atoms: N1_2  and  C3_4 
REMARK    2  A    between atoms: C3_4  and  C4_5 
REMARK    3  A    between atoms: C4_5  and  O1_6 
REMARK    4  A    between atoms: O1_6  and  C5_7 
REMARK    5  A    between atoms: C6_10  and  N3_11 
REMARK    6  A    between atoms: N3_11  and  C7_13 
REMARK    7  A    between atoms: C7_13  and  C8_14 
REMARK    8  A    between atoms: C11_17  and  C12_18 
REMARK    9  A    between atoms: C12_18  and  N4_19 
ROOT
HETATM    1  C5  UNL     1      -1.145   0.698   0.807  1.00  0.00     0.253 A 
HETATM    2  N2  UNL     1      -0.881  -0.183  -0.171  1.00  0.00    -0.152 N 
ATOM      3  H2  UNL     1      -1.486  -0.952  -0.459  1.00  0.00     0.188 HD
HETATM    4  C6  UNL     1       0.314   0.118  -0.707  1.00  0.00     0.696 A 
HETATM    5  N6  UNL     1       0.765   1.184  -0.047  1.00  0.00    -0.129 N 
ATOM      6  H6  UNL     1       1.655   1.648  -0.229  1.00  0.00     0.205 HD
HETATM    7  N7  UNL     1      -0.105   1.554   0.877  1.00  0.00    -0.250 N 
ATOM      8  H7  UNL     1      -0.008   2.339   1.521  1.00  0.00     0.191 HD
ENDROOT
BRANCH   4   9
HETATM    9  N3  UNL     1       0.848  -0.551  -1.673  1.00  0.00    -0.219 N 
ATOM     10  H3  UNL     1       0.322  -1.346  -2.036  1.00  0.00     0.178 HD
BRANCH   9  11
HETATM   11  C7  UNL     1       2.117  -0.274  -2.280  1.00  0.00     0.195 C 
BRANCH  11  12
HETATM   12  C8  UNL     1       3.225  -0.519  -1.317  1.00  0.00     0.028 A 
HETATM   13  C9  UNL     1       3.389  -1.654  -0.546  1.00  0.00     0.028 A 
HETATM   14  C10 UNL     1       4.530  -1.512   0.218  1.00  0.00     0.028 A 
HETATM   15  C11 UNL     1       5.064  -0.282  -0.090  1.00  0.00     0.035 A 
HETATM   16  N5  UNL     1       4.261   0.272  -1.003  1.00  0.00    -0.360 N 
ATOM     17  H5  UNL     1       4.418   1.192  -1.414  1.00  0.00     0.165 HD
BRANCH  15  18
HETATM   18  C12 UNL     1       6.317   0.299   0.506  1.00  0.00     0.286 C 
BRANCH  18  19
HETATM   19  N4  UNL     1       6.580   1.606  -0.049  1.00  0.00    -0.074 N 
ATOM     20  H43 UNL     1       6.619   1.585  -1.068  1.00  0.00     0.274 HD
ATOM     21  H42 UNL     1       5.782   2.232   0.060  1.00  0.00     0.274 HD
ATOM     22  H41 UNL     1       7.430   2.000   0.355  1.00  0.00     0.274 HD
ENDBRANCH  18  19
ENDBRANCH  15  18
ENDBRANCH  11  12
ENDBRANCH   9  11
ENDBRANCH   4   9
BRANCH   1  23
HETATM   23  O1  UNL     1      -2.235   0.769   1.609  1.00  0.00    -0.319 OA
BRANCH  23  24
HETATM   24  C4  UNL     1      -3.374  -0.046   1.636  1.00  0.00     0.209 C 
BRANCH  24  25
HETATM   25  C3  UNL     1      -4.068   0.035   0.323  1.00  0.00     0.298 C 
BRANCH  25  26
HETATM   26  N1  UNL     1      -5.262  -0.766   0.241  1.00  0.00     0.082 N 
HETATM   27  C1  UNL     1      -6.330  -0.305   1.068  1.00  0.00     0.309 C 
HETATM   28  C2  UNL     1      -5.705  -0.997  -1.098  1.00  0.00     0.309 C 
ENDBRANCH  25  26
ENDBRANCH  24  25
ENDBRANCH  23  24
ENDBRANCH   1  23
TORSDOF 9
