REMARK  10 active torsions:
REMARK  status: ('A' for Active; 'I' for Inactive)
REMARK    1  A    between atoms: N1_1  and  C1_5 
REMARK    2  A    between atoms: C1_5  and  C2_6 
REMARK    3  A    between atoms: C2_6  and  O1_7 
REMARK    4  A    between atoms: O1_7  and  C3_8 
REMARK    5  A    between atoms: C3_8  and  C4_10 
REMARK    6  A    between atoms: C5_11  and  C6_12 
REMARK    7  A    between atoms: C10_16  and  C11_17 
REMARK    8  A    between atoms: C11_17  and  C12_18 
REMARK    9  A    between atoms: C12_18  and  N2_19 
REMARK   10  A    between atoms: C12_18  and  C13_23 
ROOT
HETATM    1  C6  UNL     1      -0.120  -0.993   0.001  1.00  0.00    -0.036 A 
HETATM    2  C7  UNL     1      -0.448  -2.317   0.290  1.00  0.00     0.011 A 
HETATM    3  C8  UNL     1      -1.740  -2.743   0.234  1.00  0.00     0.001 A 
HETATM    4  C9  UNL     1      -2.746  -1.837  -0.119  1.00  0.00     0.007 A 
HETATM    5  C10 UNL     1      -2.458  -0.527  -0.409  1.00  0.00    -0.055 A 
HETATM    6  C14 UNL     1      -1.130  -0.142  -0.338  1.00  0.00     0.018 A 
ENDROOT
BRANCH   1   7
HETATM    7  C5  UNL     1       1.281  -0.612   0.082  1.00  0.00     0.017 C 
HETATM    8  C4  UNL     1       1.698   0.602  -0.168  1.00  0.00     0.083 C 
BRANCH   8   9
HETATM    9  C3  UNL     1       3.132   0.922  -0.067  1.00  0.00     0.282 C 
HETATM   10  O2  UNL     1       3.520   2.068  -0.304  1.00  0.00    -0.260 OA
BRANCH   9  11
HETATM   11  O1  UNL     1       4.023  -0.033   0.283  1.00  0.00    -0.317 OA
BRANCH  11  12
HETATM   12  C2  UNL     1       5.378  -0.031   0.439  1.00  0.00     0.206 C 
BRANCH  12  13
HETATM   13  C1  UNL     1       6.191   0.172  -0.796  1.00  0.00     0.256 C 
BRANCH  13  14
HETATM   14  N1  UNL     1       5.981   1.389  -1.476  1.00  0.00    -0.077 N 
ATOM     15  H13 UNL     1       4.990   1.501  -1.690  1.00  0.00     0.274 HD
ATOM     16  H12 UNL     1       6.119   2.172  -0.837  1.00  0.00     0.274 HD
ATOM     17  H11 UNL     1       6.537   1.528  -2.320  1.00  0.00     0.274 HD
ENDBRANCH  13  14
ENDBRANCH  12  13
ENDBRANCH  11  12
ENDBRANCH   9  11
ENDBRANCH   8   9
ENDBRANCH   1   7
BRANCH   5  18
HETATM   18  C11 UNL     1      -3.495   0.434  -0.778  1.00  0.00     0.080 C 
BRANCH  18  19
HETATM   19  C12 UNL     1      -4.103   1.187   0.368  1.00  0.00     0.276 C 
BRANCH  19  20
HETATM   20  N2  UNL     1      -3.106   1.960   1.101  1.00  0.00    -0.067 N 
ATOM     21  H23 UNL     1      -2.335   1.370   1.413  1.00  0.00     0.275 HD
ATOM     22  H22 UNL     1      -2.590   2.583   0.480  1.00  0.00     0.275 HD
ATOM     23  H21 UNL     1      -3.519   2.472   1.880  1.00  0.00     0.275 HD
ENDBRANCH  19  20
BRANCH  19  24
HETATM   24  C13 UNL     1      -4.957   0.397   1.251  1.00  0.00     0.262 C 
HETATM   25  N3  UNL     1      -6.013  -0.412   0.765  1.00  0.00    -0.060 NA
HETATM   26  O3  UNL     1      -4.764   0.423   2.491  1.00  0.00    -0.275 OA
ENDBRANCH  19  24
ENDBRANCH  18  19
ENDBRANCH   5  18
TORSDOF 10
