REMARK  16 active torsions:
REMARK  status: ('A' for Active; 'I' for Inactive)
REMARK    1  A    between atoms: O1_2  and  C2_3 
REMARK    2  A    between atoms: C2_3  and  C3_5 
REMARK    3  A    between atoms: C3_5  and  O3_6 
REMARK    4  A    between atoms: C3_5  and  C4_8 
REMARK    5  A    between atoms: C4_8  and  C5_9 
REMARK    6  A    between atoms: C4_8  and  C17_30 
REMARK    7  A    between atoms: C7_11  and  O4_12 
REMARK    8  A    between atoms: C8_14  and  O5_15 
REMARK    9  A    between atoms: O5_15  and  C9_16 
REMARK   10  A    between atoms: C9_16  and  C10_17 
REMARK   11  A    between atoms: C10_17  and  C13_21 
REMARK   12  A    between atoms: C13_21  and  N2_22 
REMARK   13  A    between atoms: C15_27  and  O6_28 
REMARK   14  A    between atoms: C18_31  and  O7_32 
REMARK   15  A    between atoms: C19_34  and  O8_35 
REMARK   16  A    between atoms: C22_38  and  O9_39 
ROOT
HETATM    1  C10 UNL     1       5.953  -0.254   0.202  1.00  0.00    -0.021 C 
HETATM    2  C11 UNL     1       6.925   0.168  -0.561  1.00  0.00     0.100 C 
HETATM    3  C12 UNL     1       6.715   1.199  -1.527  1.00  0.00     0.088 C 
HETATM    4  N1  UNL     1       6.528   2.038  -2.328  1.00  0.00    -0.192 NA
ENDROOT
BRANCH   1   5
HETATM    5  C9  UNL     1       4.606   0.333   0.076  1.00  0.00     0.212 C 
BRANCH   5   6
HETATM    6  O5  UNL     1       3.720  -0.725  -0.273  1.00  0.00    -0.344 OA
BRANCH   6   7
HETATM    7  C8  UNL     1       2.366  -0.458  -0.460  1.00  0.00     0.104 A 
HETATM    8  C7  UNL     1       1.510  -1.484  -0.797  1.00  0.00     0.100 A 
HETATM    9  C6  UNL     1       0.194  -1.170  -0.969  1.00  0.00     0.054 A 
HETATM   10  C5  UNL     1      -0.331   0.132  -0.821  1.00  0.00     0.014 A 
HETATM   11  C15 UNL     1       0.530   1.141  -0.485  1.00  0.00     0.082 A 
HETATM   12  C14 UNL     1       1.874   0.829  -0.308  1.00  0.00     0.077 A 
BRANCH   8  13
HETATM   13  O4  UNL     1       1.967  -2.781  -0.957  1.00  0.00    -0.358 OA
ATOM     14  H4  UNL     1       2.884  -3.000  -0.837  1.00  0.00     0.217 HD
ENDBRANCH   8  13
BRANCH  10  15
HETATM   15  C4  UNL     1      -1.731   0.316  -1.113  1.00  0.00     0.031 C 
BRANCH  15  16
HETATM   16  C3  UNL     1      -2.330   1.635  -1.207  1.00  0.00     0.153 C 
BRANCH  16  17
HETATM   17  C2  UNL     1      -2.893   2.521  -0.235  1.00  0.00     0.317 C 
HETATM   18  O2  UNL     1      -2.988   2.206   0.967  1.00  0.00    -0.257 OA
BRANCH  17  19
HETATM   19  O1  UNL     1      -3.382   3.812  -0.562  1.00  0.00    -0.321 OA
HETATM   20  C1  UNL     1      -3.922   4.612   0.476  1.00  0.00     0.213 C 
ENDBRANCH  17  19
ENDBRANCH  16  17
BRANCH  16  21
HETATM   21  O3  UNL     1      -2.397   2.165  -2.406  1.00  0.00    -0.355 OA
ATOM     22  H3  UNL     1      -2.023   1.577  -3.051  1.00  0.00     0.218 HD
ENDBRANCH  16  21
ENDBRANCH  15  16
BRANCH  15  23
HETATM   23  C17 UNL     1      -2.597  -0.601  -0.332  1.00  0.00     0.038 A 
HETATM   24  C18 UNL     1      -3.732  -1.138  -0.951  1.00  0.00     0.112 A 
HETATM   25  C19 UNL     1      -4.566  -1.997  -0.287  1.00  0.00     0.104 A 
HETATM   26  C21 UNL     1      -4.309  -2.349   1.000  1.00  0.00     0.077 A 
HETATM   27  C22 UNL     1      -3.215  -1.841   1.620  1.00  0.00     0.091 A 
HETATM   28  C23 UNL     1      -2.348  -0.960   0.956  1.00  0.00     0.081 A 
HETATM   29 CL1  UNL     1      -0.992  -0.434   1.932  1.00  0.00    -0.080 Cl
BRANCH  24  30
HETATM   30  O7  UNL     1      -3.957  -0.756  -2.258  1.00  0.00    -0.357 OA
ATOM     31  H7  UNL     1      -4.727  -1.120  -2.678  1.00  0.00     0.217 HD
ENDBRANCH  24  30
BRANCH  25  32
HETATM   32  O8  UNL     1      -5.667  -2.486  -0.967  1.00  0.00    -0.353 OA
HETATM   33  C20 UNL     1      -6.587  -3.379  -0.364  1.00  0.00     0.210 C 
ENDBRANCH  25  32
BRANCH  27  34
HETATM   34  O9  UNL     1      -2.958  -2.203   2.928  1.00  0.00    -0.359 OA
ATOM     35  H9  UNL     1      -2.192  -1.847   3.362  1.00  0.00     0.217 HD
ENDBRANCH  27  34
ENDBRANCH  15  23
ENDBRANCH  10  15
BRANCH  11  36
HETATM   36  O6  UNL     1       0.112   2.464  -0.315  1.00  0.00    -0.355 OA
HETATM   37  C16 UNL     1       0.956   3.507   0.024  1.00  0.00     0.210 C 
ENDBRANCH  11  36
ENDBRANCH   6   7
ENDBRANCH   5   6
ENDBRANCH   1   5
BRANCH   1  38
HETATM   38  C13 UNL     1       6.191  -1.318   1.193  1.00  0.00     0.266 C 
BRANCH  38  39
HETATM   39  N2  UNL     1       7.536  -1.802   1.215  1.00  0.00    -0.076 N 
ATOM     40  H23 UNL     1       7.821  -2.109   0.285  1.00  0.00     0.274 HD
ATOM     41  H22 UNL     1       8.191  -1.032   1.352  1.00  0.00     0.274 HD
ATOM     42  H21 UNL     1       7.701  -2.539   1.901  1.00  0.00     0.274 HD
ENDBRANCH  38  39
ENDBRANCH   1  38
TORSDOF 16
