REMARK  4 active torsions:
REMARK  status: ('A' for Active; 'I' for Inactive)
REMARK    1  A    between atoms: C5_5  and  N1_6 
REMARK    2  A    between atoms: N1_6  and  C6_8 
REMARK    3  A    between atoms: C6_8  and  C7_12 
REMARK    4  A    between atoms: C7_12  and  N3_13 
ROOT
HETATM    1  C1  UNL     1      -0.048   2.745   0.657  1.00  0.00     0.011 C 
HETATM    2  C2  UNL     1      -0.684   1.436   0.162  1.00  0.00    -0.009 C 
HETATM    3  C3  UNL     1       0.314   0.332   0.195  1.00  0.00    -0.004 C 
HETATM    4  C4  UNL     1       1.616   0.951  -0.371  1.00  0.00     0.030 C 
HETATM    5  C5  UNL     1       2.635  -0.149  -0.519  1.00  0.00     0.083 C 
HETATM    6  C8  UNL     1       2.296  -1.374   0.285  1.00  0.00     0.025 C 
HETATM    7  C9  UNL     1       0.963  -1.970  -0.062  1.00  0.00     0.007 C 
HETATM    8  C10 UNL     1      -0.005  -0.876  -0.586  1.00  0.00    -0.001 C 
HETATM    9  C11 UNL     1      -1.354  -1.368  -0.720  1.00  0.00     0.052 C 
HETATM   10  C12 UNL     1      -1.778  -1.306  -2.209  1.00  0.00     0.131 C 
HETATM   11  N4  UNL     1      -2.423  -0.052  -2.496  1.00  0.00    -0.360 N 
ATOM     12  H4  UNL     1      -2.590   0.175  -3.476  1.00  0.00     0.162 HD
HETATM   13  C13 UNL     1      -2.847   0.896  -1.526  1.00  0.00     0.230 C 
HETATM   14  O1  UNL     1      -3.095   2.078  -1.900  1.00  0.00    -0.273 OA
HETATM   15  C14 UNL     1      -2.983   0.479  -0.141  1.00  0.00     0.084 C 
HETATM   16  C15 UNL     1      -4.387   0.589   0.334  1.00  0.00     0.026 C 
HETATM   17  C16 UNL     1      -4.885  -0.494   1.250  1.00  0.00     0.036 C 
HETATM   18  C17 UNL     1      -3.925  -1.132   2.124  1.00  0.00     0.161 A 
HETATM   19  O2  UNL     1      -3.009  -2.075   2.003  1.00  0.00    -0.366 OA
HETATM   20  C18 UNL     1      -2.512  -0.972   1.516  1.00  0.00     0.125 A 
HETATM   21  C19 UNL     1      -1.924   0.258   2.012  1.00  0.00     0.050 C 
HETATM   22  C20 UNL     1      -1.989   1.186   0.799  1.00  0.00     0.014 C 
HETATM   23  C21 UNL     1      -2.521  -0.922   0.021  1.00  0.00     0.159 C 
HETATM   24  F1  UNL     1      -3.536  -1.738  -0.529  1.00  0.00    -0.238 F 
ENDROOT
BRANCH   5  25
HETATM   25  N1  UNL     1       3.906   0.353  -0.010  1.00  0.00    -0.374 N 
ATOM     26  H1  UNL     1       3.946   1.306   0.352  1.00  0.00     0.161 HD
BRANCH  25  27
HETATM   27  C6  UNL     1       5.093  -0.431   0.002  1.00  0.00     0.096 C 
HETATM   28  N2  UNL     1       5.377  -1.305   0.886  1.00  0.00    -0.388 N 
ATOM     29  H22 UNL     1       4.712  -1.459   1.644  1.00  0.00     0.157 HD
ATOM     30  H21 UNL     1       6.228  -1.867   0.895  1.00  0.00     0.157 HD
BRANCH  27  31
HETATM   31  C7  UNL     1       6.068  -0.205  -1.108  1.00  0.00     0.304 C 
BRANCH  31  32
HETATM   32  N3  UNL     1       6.466   1.203  -1.016  1.00  0.00    -0.073 N 
ATOM     33  H33 UNL     1       5.678   1.850  -1.029  1.00  0.00     0.274 HD
ATOM     34  H32 UNL     1       6.826   1.465  -0.098  1.00  0.00     0.274 HD
ATOM     35  H31 UNL     1       7.131   1.357  -1.774  1.00  0.00     0.274 HD
ENDBRANCH  31  32
ENDBRANCH  27  31
ENDBRANCH  25  27
ENDBRANCH   5  25
TORSDOF 4
