REMARK  4 active torsions:
REMARK  status: ('A' for Active; 'I' for Inactive)
REMARK    1  A    between atoms: N1_2  and  C2_5 
REMARK    2  A    between atoms: C2_5  and  C4_8 
REMARK    3  A    between atoms: C16_21  and  O2_22 
REMARK    4  A    between atoms: C17_24  and  O3_25 
ROOT
HETATM    1  C4  UNL     1       2.750   0.198   0.572  1.00  0.00     0.136 C 
HETATM    2  C5  UNL     1       1.295  -0.154   0.218  1.00  0.00     0.041 C 
HETATM    3  C6  UNL     1       0.421   0.973   0.035  1.00  0.00    -0.002 C 
HETATM    4  C7  UNL     1       0.350   1.521  -1.403  1.00  0.00     0.178 C 
HETATM    5  O1  UNL     1      -0.264   2.741  -1.033  1.00  0.00    -0.385 OA
HETATM    6  C8  UNL     1      -1.399   2.301  -0.300  1.00  0.00     0.127 C 
HETATM    7  C9  UNL     1      -2.471   2.270  -1.293  1.00  0.00     0.033 C 
HETATM    8  C10 UNL     1      -3.564   1.268  -1.082  1.00  0.00     0.008 C 
HETATM    9  C11 UNL     1      -2.851  -0.033  -1.022  1.00  0.00     0.004 C 
HETATM   10  C12 UNL     1      -3.785  -1.175  -0.590  1.00  0.00     0.022 C 
HETATM   11  C13 UNL     1      -4.212  -0.701   0.749  1.00  0.00     0.009 C 
HETATM   12  C14 UNL     1      -3.045   0.051   1.281  1.00  0.00     0.013 C 
HETATM   13  C15 UNL     1      -1.929  -0.072   0.207  1.00  0.00    -0.001 C 
HETATM   14  C16 UNL     1      -1.564  -1.496   0.243  1.00  0.00     0.156 C 
HETATM   15  C17 UNL     1      -2.738  -2.245  -0.420  1.00  0.00     0.152 C 
HETATM   16  C18 UNL     1      -0.999   0.996   0.381  1.00  0.00     0.037 C 
HETATM   17  C19 UNL     1       1.083   2.162   0.784  1.00  0.00     0.115 C 
HETATM   18  C20 UNL     1       2.339   2.513   0.050  1.00  0.00     0.218 C 
HETATM   19  O4  UNL     1       2.626   3.634  -0.383  1.00  0.00    -0.274 OA
HETATM   20  N2  UNL     1       3.217   1.372  -0.110  1.00  0.00    -0.353 N 
ATOM     21  H2  UNL     1       4.080   1.400  -0.653  1.00  0.00     0.163 HD
ENDROOT
BRANCH   1  22
HETATM   22  C2  UNL     1       3.643  -0.990   0.428  1.00  0.00     0.216 C 
HETATM   23  C3  UNL     1       3.610  -1.662  -0.900  1.00  0.00     0.067 C 
HETATM   24 CL1  UNL     1       3.235  -2.238   1.658  1.00  0.00    -0.086 Cl
BRANCH  22  25
HETATM   25  N1  UNL     1       4.993  -0.531   0.790  1.00  0.00    -0.055 N 
HETATM   26  C1  UNL     1       5.916  -1.641   0.913  1.00  0.00     0.269 C 
ATOM     27  H12 UNL     1       4.979   0.038   1.636  1.00  0.00     0.279 HD
ATOM     28  H11 UNL     1       5.337   0.170   0.134  1.00  0.00     0.279 HD
ENDBRANCH  22  25
ENDBRANCH   1  22
BRANCH  14  29
HETATM   29  O2  UNL     1      -1.528  -2.026   1.554  1.00  0.00    -0.392 OA
ATOM     30  H2  UNL     1      -1.292  -2.946   1.577  1.00  0.00     0.210 HD
ENDBRANCH  14  29
BRANCH  15  31
HETATM   31  O3  UNL     1      -3.184  -3.313   0.301  1.00  0.00    -0.393 OA
ATOM     32  H3  UNL     1      -2.524  -3.988   0.408  1.00  0.00     0.210 HD
ENDBRANCH  15  31
TORSDOF 4
