REMARK  8 active torsions:
REMARK  status: ('A' for Active; 'I' for Inactive)
REMARK       I    between atoms: C2_2  and  N1_4 
REMARK    1  A    between atoms: N1_4  and  C3_6 
REMARK    2  A    between atoms: C3_6  and  C5_8 
REMARK       I    between atoms: C5_8  and  N2_10 
REMARK    3  A    between atoms: N2_10  and  C6_12 
REMARK    4  A    between atoms: C6_12  and  C7_13 
REMARK    5  A    between atoms: C6_12  and  C11_17 
REMARK    6  A    between atoms: C7_13  and  C8_14 
REMARK       I    between atoms: C11_17  and  N3_19 
REMARK    7  A    between atoms: N3_19  and  C12_21 
REMARK    8  A    between atoms: C12_21  and  C13_22 
ROOT
HETATM    1  C6  UNL     1      -0.536   0.313   0.587  1.00  0.00     0.177 C 
ENDROOT
BRANCH   1   2
HETATM    2  N2  UNL     1      -1.823   0.073   0.001  1.00  0.00    -0.346 N 
HETATM    3  C5  UNL     1      -2.898  -0.540   0.690  1.00  0.00     0.240 C 
HETATM    4  O2  UNL     1      -2.780  -0.923   1.901  1.00  0.00    -0.271 OA
ATOM      5  H2  UNL     1      -1.972   0.360  -0.966  1.00  0.00     0.163 HD
BRANCH   3   6
HETATM    6  C3  UNL     1      -4.222  -0.775   0.053  1.00  0.00     0.172 C 
HETATM    7  C4  UNL     1      -4.790   0.556  -0.424  1.00  0.00     0.042 C 
BRANCH   6   8
HETATM    8  N1  UNL     1      -5.152  -1.408   0.945  1.00  0.00    -0.349 N 
HETATM    9  C2  UNL     1      -5.709  -2.675   0.625  1.00  0.00     0.214 C 
HETATM   10  C1  UNL     1      -6.673  -3.324   1.558  1.00  0.00     0.117 C 
HETATM   11  O1  UNL     1      -5.409  -3.284  -0.446  1.00  0.00    -0.274 OA
ATOM     12  H1  UNL     1      -5.415  -0.945   1.815  1.00  0.00     0.163 HD
ENDBRANCH   6   8
ENDBRANCH   3   6
ENDBRANCH   1   2
BRANCH   1  13
HETATM   13  C7  UNL     1      -0.177   1.740   0.726  1.00  0.00     0.038 C 
BRANCH  13  14
HETATM   14  C8  UNL     1      -0.114   2.582  -0.479  1.00  0.00    -0.020 C 
HETATM   15  C9  UNL     1       0.853   2.201  -1.541  1.00  0.00     0.009 C 
HETATM   16  C10 UNL     1       0.274   3.995  -0.017  1.00  0.00     0.009 C 
ENDBRANCH  13  14
ENDBRANCH   1  13
BRANCH   1  17
HETATM   17  C11 UNL     1       0.519  -0.508  -0.032  1.00  0.00     0.240 C 
HETATM   18  O3  UNL     1       0.283  -1.311  -0.987  1.00  0.00    -0.271 OA
HETATM   19  N3  UNL     1       1.849  -0.426   0.429  1.00  0.00    -0.358 N 
ATOM     20  H3  UNL     1       2.063   0.211   1.196  1.00  0.00     0.162 HD
BRANCH  19  21
HETATM   21  C12 UNL     1       2.927  -1.212  -0.145  1.00  0.00     0.137 C 
BRANCH  21  22
HETATM   22  C13 UNL     1       4.196  -0.888   0.567  1.00  0.00     0.065 C 
HETATM   23  C14 UNL     1       5.366  -1.687   0.005  1.00  0.00     0.017 C 
HETATM   24  C15 UNL     1       6.621  -0.925   0.383  1.00  0.00     0.011 C 
HETATM   25  C16 UNL     1       6.487   0.446  -0.294  1.00  0.00     0.074 C 
HETATM   26  S1  UNL     1       4.741   0.816   0.148  1.00  0.00    -0.163 SA
ENDBRANCH  21  22
ENDBRANCH  19  21
ENDBRANCH   1  17
TORSDOF 8
