REMARK  9 active torsions:
REMARK  status: ('A' for Active; 'I' for Inactive)
REMARK    1  A    between atoms: C6_6  and  O1_7 
REMARK    2  A    between atoms: O1_7  and  C7_8 
REMARK    3  A    between atoms: C9_14  and  N3_15 
REMARK    4  A    between atoms: N3_15  and  C10_16 
REMARK    5  A    between atoms: N3_15  and  C12_20 
REMARK    6  A    between atoms: C10_16  and  C11_17 
REMARK    7  A    between atoms: C11_17  and  O2_18 
REMARK    8  A    between atoms: C12_20  and  C13_21 
REMARK    9  A    between atoms: C13_21  and  O3_22 
ROOT
HETATM    1  C1  UNL     1       7.919   0.412  -0.320  1.00  0.00     0.012 C 
HETATM    2  C2  UNL     1       6.725   0.451  -0.154  1.00  0.00    -0.113 C 
HETATM    3  C3  UNL     1       5.259   0.473   0.051  1.00  0.00     0.064 C 
HETATM    4  C4  UNL     1       4.646   1.111  -1.152  1.00  0.00     0.019 C 
HETATM    5  C5  UNL     1       3.185   0.815  -1.316  1.00  0.00     0.034 C 
HETATM    6  C6  UNL     1       2.553   0.144  -0.143  1.00  0.00     0.130 C 
HETATM    7  C16 UNL     1       3.339  -1.033   0.386  1.00  0.00     0.034 C 
HETATM    8  C17 UNL     1       4.801  -0.973   0.108  1.00  0.00     0.019 C 
ENDROOT
BRANCH   6   9
HETATM    9  O1  UNL     1       1.256  -0.284  -0.522  1.00  0.00    -0.329 OA
BRANCH   9  10
HETATM   10  C7  UNL     1       0.115   0.162   0.162  1.00  0.00     0.168 A 
HETATM   11  N1  UNL     1       0.245   1.022   1.205  1.00  0.00    -0.332 N 
HETATM   12  C8  UNL     1      -0.823   1.476   1.891  1.00  0.00     0.184 A 
ATOM     13  H1  UNL     1       1.177   1.333   1.477  1.00  0.00     0.168 HD
HETATM   14  N2  UNL     1      -2.018   1.053   1.513  1.00  0.00    -0.337 N 
HETATM   15  C9  UNL     1      -2.266   0.206   0.500  1.00  0.00     0.129 A 
ATOM     16  H2  UNL     1      -2.822   1.400   2.036  1.00  0.00     0.168 HD
HETATM   17  C14 UNL     1      -1.147  -0.255  -0.200  1.00  0.00     0.139 A 
HETATM   18  C15 UNL     1      -1.303  -1.168  -1.305  1.00  0.00     0.107 C 
HETATM   19  N4  UNL     1      -1.428  -1.908  -2.197  1.00  0.00    -0.191 NA
BRANCH  15  20
HETATM   20  N3  UNL     1      -3.575  -0.210   0.145  1.00  0.00    -0.362 N 
BRANCH  20  21
HETATM   21  C10 UNL     1      -4.050   0.114  -1.183  1.00  0.00     0.150 C 
BRANCH  21  22
HETATM   22  C11 UNL     1      -5.170   1.140  -1.006  1.00  0.00     0.183 C 
BRANCH  22  23
HETATM   23  O2  UNL     1      -5.703   1.524  -2.228  1.00  0.00    -0.399 OA
ATOM     24  H2  UNL     1      -6.399   2.161  -2.118  1.00  0.00     0.209 HD
ENDBRANCH  22  23
ENDBRANCH  21  22
ENDBRANCH  20  21
BRANCH  20  25
HETATM   25  C12 UNL     1      -4.474  -0.937   1.014  1.00  0.00     0.150 C 
BRANCH  25  26
HETATM   26  C13 UNL     1      -3.882  -1.230   2.368  1.00  0.00     0.183 C 
BRANCH  26  27
HETATM   27  O3  UNL     1      -4.878  -1.937   3.080  1.00  0.00    -0.399 OA
ATOM     28  H3  UNL     1      -4.505  -2.122   3.934  1.00  0.00     0.209 HD
ENDBRANCH  26  27
ENDBRANCH  25  26
ENDBRANCH  20  25
ENDBRANCH  15  20
ENDBRANCH   9  10
ENDBRANCH   6   9
TORSDOF 9
