REMARK  9 active torsions:
REMARK  status: ('A' for Active; 'I' for Inactive)
REMARK    1  A    between atoms: C2_2  and  O1_5 
REMARK    2  A    between atoms: O1_5  and  C5_6 
REMARK    3  A    between atoms: C5_6  and  C6_8 
REMARK    4  A    between atoms: C6_8  and  S1_9 
REMARK    5  A    between atoms: S1_9  and  C7_10 
REMARK    6  A    between atoms: C7_10  and  C8_11 
REMARK    7  A    between atoms: C7_10  and  C9_13 
REMARK    8  A    between atoms: C9_13  and  C11_21 
REMARK    9  A    between atoms: N1_14  and  N2_16 
REMARK       I    between atoms: N2_16  and  C10_18 
ROOT
HETATM    1  C7  UNL     1      -0.848  -0.743  -0.261  1.00  0.00     0.156 C 
ENDROOT
BRANCH   1   2
HETATM    2  S1  UNL     1      -0.063  -1.868   0.925  1.00  0.00    -0.141 SA
BRANCH   2   3
HETATM    3  C6  UNL     1       1.547  -2.448   0.414  1.00  0.00     0.186 C 
BRANCH   3   4
HETATM    4  C5  UNL     1       2.501  -1.317   0.416  1.00  0.00     0.268 C 
HETATM    5  O2  UNL     1       3.214  -1.034   1.420  1.00  0.00    -0.264 OA
BRANCH   4   6
HETATM    6  O1  UNL     1       2.621  -0.536  -0.722  1.00  0.00    -0.311 OA
BRANCH   6   7
HETATM    7  C2  UNL     1       3.548   0.562  -0.735  1.00  0.00     0.060 C 
HETATM    8  C1  UNL     1       3.202   1.554   0.355  1.00  0.00     0.045 C 
HETATM    9  C3  UNL     1       4.960   0.085  -0.564  1.00  0.00     0.045 C 
HETATM   10  C4  UNL     1       3.346   1.297  -2.060  1.00  0.00     0.045 C 
ENDBRANCH   6   7
ENDBRANCH   4   6
ENDBRANCH   3   4
ENDBRANCH   2   3
ENDBRANCH   1   2
BRANCH   1  11
HETATM   11  C8  UNL     1      -1.177  -1.440  -1.537  1.00  0.00     0.252 C 
HETATM   12  O3  UNL     1      -1.375  -0.862  -2.589  1.00  0.00    -0.305 OA
ENDBRANCH   1  11
BRANCH   1  13
HETATM   13  C9  UNL     1      -2.010  -0.144   0.397  1.00  0.00     0.032 C 
HETATM   14  N1  UNL     1      -2.063   1.114   0.602  1.00  0.00    -0.302 N 
ATOM     15  H1  UNL     1      -2.899   1.472   1.065  1.00  0.00     0.186 HD
BRANCH  14  16
HETATM   16  N2  UNL     1      -1.108   2.024   0.261  1.00  0.00    -0.244 N 
HETATM   17  C10 UNL     1      -1.541   3.340  -0.143  1.00  0.00     0.303 C 
HETATM   18  O4  UNL     1      -2.760   3.625  -0.172  1.00  0.00    -0.628 OA
HETATM   19  O5  UNL     1      -0.569   4.252  -0.489  1.00  0.00    -0.628 OA
ATOM     20  H2  UNL     1      -0.117   1.783   0.290  1.00  0.00     0.193 HD
ENDBRANCH  14  16
BRANCH  13  21
HETATM   21  C11 UNL     1      -3.188  -0.922   0.861  1.00  0.00    -0.010 C 
HETATM   22  C12 UNL     1      -4.212  -0.015   1.509  1.00  0.00     0.021 C 
HETATM   23  C13 UNL     1      -2.843  -1.974   1.880  1.00  0.00     0.021 C 
HETATM   24  C14 UNL     1      -3.863  -1.565  -0.316  1.00  0.00     0.021 C 
ENDBRANCH  13  21
ENDBRANCH   1  13
TORSDOF 9
