REMARK  2 active torsions:
REMARK  status: ('A' for Active; 'I' for Inactive)
REMARK    1  A    between atoms: C2_2  and  C3_3 
REMARK    2  A    between atoms: C3_3  and  C4_4 
ROOT
HETATM    1  C4  UNL     1       2.210   0.881  -0.486  1.00  0.00     0.025 C 
HETATM    2  C5  UNL     1       1.966   0.168  -1.762  1.00  0.00     0.023 C 
HETATM    3  C6  UNL     1       0.629  -0.508  -1.567  1.00  0.00     0.073 C 
HETATM    4  C7  UNL     1      -0.352   0.229  -2.352  1.00  0.00     0.183 C 
HETATM    5  O1  UNL     1      -0.007   1.072  -3.153  1.00  0.00    -0.293 OA
HETATM    6  C8  UNL     1      -1.761  -0.084  -2.141  1.00  0.00     0.230 C 
HETATM    7  F1  UNL     1      -2.499   0.888  -2.804  1.00  0.00    -0.221 F 
HETATM    8 BR1  UNL     1      -2.126  -1.728  -3.129  1.00  0.00    -0.039 Br
HETATM    9  C9  UNL     1      -2.116  -0.209  -0.672  1.00  0.00     0.036 C 
HETATM   10  C10 UNL     1      -2.732  -1.580  -0.504  1.00  0.00     0.022 C 
HETATM   11  C11 UNL     1      -3.310   0.724  -0.509  1.00  0.00     0.017 C 
HETATM   12  C12 UNL     1      -4.272   0.364   0.567  1.00  0.00     0.010 C 
HETATM   13  C13 UNL     1      -3.864   0.619   1.952  1.00  0.00     0.103 C 
HETATM   14  C14 UNL     1      -2.589   0.049   2.362  1.00  0.00     0.218 C 
HETATM   15  O2  UNL     1      -2.527  -0.174   3.621  1.00  0.00    -0.274 OA
HETATM   16  N1  UNL     1      -1.432  -0.289   1.602  1.00  0.00    -0.350 N 
ATOM     17  H1  UNL     1      -0.795  -0.926   2.080  1.00  0.00     0.163 HD
HETATM   18  C15 UNL     1      -0.987   0.104   0.271  1.00  0.00     0.050 C 
HETATM   19  C16 UNL     1      -0.937   1.637   0.384  1.00  0.00     0.040 C 
HETATM   20  C17 UNL     1       0.294  -0.526  -0.064  1.00  0.00     0.011 C 
HETATM   21  C18 UNL     1       0.193  -2.020   0.272  1.00  0.00     0.021 C 
HETATM   22  C19 UNL     1       1.444  -2.337   1.118  1.00  0.00     0.080 C 
HETATM   23  C20 UNL     1       2.322  -1.446   0.314  1.00  0.00     0.136 C 
HETATM   24  O3  UNL     1       3.282  -1.888  -0.209  1.00  0.00    -0.297 OA
HETATM   25  C21 UNL     1       1.597  -0.141   0.463  1.00  0.00     0.034 C 
HETATM   26  C22 UNL     1       1.868   0.334   1.798  1.00  0.00     0.025 C 
ENDROOT
BRANCH   1  27
HETATM   27  C3  UNL     1       3.463   1.497  -0.179  1.00  0.00    -0.022 C 
BRANCH  27  28
HETATM   28  C2  UNL     1       4.739   0.852  -0.074  1.00  0.00    -0.014 C 
HETATM   29  C1  UNL     1       5.771   1.084  -0.895  1.00  0.00     0.011 C 
ENDBRANCH  27  28
ENDBRANCH   1  27
TORSDOF 2
