REMARK  4 active torsions:
REMARK  status: ('A' for Active; 'I' for Inactive)
REMARK    1  A    between atoms: C2_2  and  C4_4 
REMARK    2  A    between atoms: C4_4  and  C5_5 
REMARK    3  A    between atoms: C5_5  and  N1_6 
REMARK    4  A    between atoms: C14_15  and  C15_16 
ROOT
HETATM    1  C15 UNL     1      -0.421  -1.387   1.124  1.00  0.00     0.168 C 
HETATM    2  C16 UNL     1      -0.202  -2.891   0.943  1.00  0.00     0.062 C 
HETATM    3  N2  UNL     1      -0.052  -4.051   0.793  1.00  0.00    -0.197 NA
ENDROOT
BRANCH   1   4
HETATM    4  C14 UNL     1      -1.038  -0.949  -0.066  1.00  0.00     0.115 C 
HETATM    5  C13 UNL     1      -1.591   0.216  -0.770  1.00  0.00    -0.039 C 
HETATM    6  C7  UNL     1      -1.430   1.305   0.228  1.00  0.00     0.066 C 
HETATM    7  C12 UNL     1      -2.736   0.083  -1.638  1.00  0.00    -0.020 C 
HETATM    8  C6  UNL     1       0.059   1.163   0.446  1.00  0.00     0.133 C 
HETATM    9  C8  UNL     1      -2.433   1.044   1.234  1.00  0.00     0.199 C 
HETATM   10  N1  UNL     1       0.781   0.264  -0.377  1.00  0.00    -0.389 N 
HETATM   11  C17 UNL     1       0.196  -1.001  -0.895  1.00  0.00     0.165 C 
HETATM   12  C9  UNL     1      -3.798   1.146   0.504  1.00  0.00     0.043 C 
HETATM   13  N3  UNL     1      -2.702  -0.222   1.748  1.00  0.00    -0.043 N 
HETATM   14  C10 UNL     1      -4.179  -0.309   0.182  1.00  0.00     0.048 C 
HETATM   15  C11 UNL     1      -4.020  -0.532  -1.256  1.00  0.00     0.036 C 
HETATM   16  C18 UNL     1      -3.054  -1.163   0.795  1.00  0.00     0.326 C 
HETATM   17  O1  UNL     1      -2.163  -1.701  -0.112  1.00  0.00    -0.340 OA
ATOM     18  H32 UNL     1      -1.914  -0.555   2.303  1.00  0.00     0.280 HD
ATOM     19  H31 UNL     1      -3.416  -0.167   2.474  1.00  0.00     0.280 HD
BRANCH  10  20
HETATM   20  C5  UNL     1       2.069   0.554  -0.788  1.00  0.00     0.058 C 
BRANCH  20  21
HETATM   21  C4  UNL     1       3.096   0.535   0.297  1.00  0.00     0.048 C 
BRANCH  21  22
HETATM   22  C2  UNL     1       4.497   0.844  -0.174  1.00  0.00    -0.018 C 
HETATM   23  C1  UNL     1       4.835  -0.221  -1.200  1.00  0.00     0.010 C 
HETATM   24  C3  UNL     1       5.486   0.638   0.983  1.00  0.00     0.010 C 
ENDBRANCH  21  22
ENDBRANCH  20  21
ENDBRANCH  10  20
ENDBRANCH   1   4
TORSDOF 4
