REMARK  3 active torsions:
REMARK  status: ('A' for Active; 'I' for Inactive)
REMARK    1  A    between atoms: N3_11  and  C7_12 
REMARK    2  A    between atoms: C7_12  and  C8_13 
REMARK    3  A    between atoms: C13_19  and  O2_20 
ROOT
HETATM    1  C1  UNL     1      -3.645   0.769   0.328  1.00  0.00     0.015 C 
HETATM    2  C2  UNL     1      -2.796  -0.458   0.441  1.00  0.00    -0.045 C 
HETATM    3  C3  UNL     1      -3.423  -1.296   1.568  1.00  0.00     0.015 C 
HETATM    4  C4  UNL     1      -2.787  -1.326  -0.767  1.00  0.00     0.015 C 
HETATM    5  C5  UNL     1      -2.393  -0.625  -2.049  1.00  0.00     0.061 C 
HETATM    6  C6  UNL     1      -0.984  -0.218  -2.052  1.00  0.00     0.054 A 
HETATM    7  N1  UNL     1      -0.133  -0.494  -3.027  1.00  0.00    -0.288 N 
ATOM      8  H1  UNL     1      -0.354  -1.005  -3.882  1.00  0.00     0.188 HD
HETATM    9  N2  UNL     1       1.026  -0.008  -2.717  1.00  0.00    -0.240 N 
ATOM     10  H2  UNL     1       1.856  -0.086  -3.304  1.00  0.00     0.208 HD
HETATM   11  N3  UNL     1       0.999   0.614  -1.520  1.00  0.00    -0.275 N 
HETATM   12  C12 UNL     1      -0.244   0.495  -1.091  1.00  0.00     0.082 A 
HETATM   13  C13 UNL     1      -0.831   1.024   0.157  1.00  0.00     0.172 C 
HETATM   14  C14 UNL     1      -1.382  -0.179   0.905  1.00  0.00     0.047 C 
ENDROOT
BRANCH  11  15
HETATM   15  C7  UNL     1       2.183   1.199  -0.943  1.00  0.00     0.182 C 
BRANCH  15  16
HETATM   16  C8  UNL     1       3.018   0.189  -0.226  1.00  0.00     0.141 C 
HETATM   17  C9  UNL     1       4.254   0.881   0.366  1.00  0.00     0.036 C 
HETATM   18  C10 UNL     1       4.733  -0.159   1.336  1.00  0.00     0.029 C 
HETATM   19  C11 UNL     1       3.497  -0.995   1.551  1.00  0.00     0.168 C 
HETATM   20  O1  UNL     1       2.461  -0.406   0.869  1.00  0.00    -0.384 OA
ENDBRANCH  15  16
ENDBRANCH  11  15
BRANCH  13  21
HETATM   21  O2  UNL     1      -0.030   1.742   0.975  1.00  0.00    -0.389 OA
ATOM     22  H2  UNL     1      -0.408   2.082   1.778  1.00  0.00     0.210 HD
ENDBRANCH  13  21
TORSDOF 3
