REMARK  3 active torsions:
REMARK  status: ('A' for Active; 'I' for Inactive)
REMARK    1  A    between atoms: O1_2  and  N1_3 
REMARK    2  A    between atoms: C12_15  and  O2_16 
REMARK    3  A    between atoms: C15_19  and  O3_20 
ROOT
HETATM    1  N1  UNL     1       2.956  -0.421   0.359  1.00  0.00    -0.275 N 
ATOM      2  H1  UNL     1       3.447  -1.014   1.028  1.00  0.00     0.193 HD
HETATM    3  C2  UNL     1       1.685  -0.527   0.299  1.00  0.00     0.020 C 
HETATM    4  C3  UNL     1       0.885  -1.446   1.130  1.00  0.00     0.068 C 
HETATM    5  C4  UNL     1      -0.541  -1.322   0.662  1.00  0.00    -0.001 C 
HETATM    6  C5  UNL     1      -1.165  -2.663   0.354  1.00  0.00     0.013 C 
HETATM    7  C6  UNL     1      -1.422  -2.663  -1.139  1.00  0.00     0.001 C 
HETATM    8  C7  UNL     1      -0.267  -1.786  -1.620  1.00  0.00     0.007 C 
HETATM    9  C8  UNL     1      -0.430  -0.599  -0.665  1.00  0.00     0.011 C 
HETATM   10  C9  UNL     1       0.796   0.244  -0.603  1.00  0.00     0.007 C 
HETATM   11  C10 UNL     1       1.413   0.442  -1.970  1.00  0.00     0.022 C 
HETATM   12  C11 UNL     1       0.435   1.579   0.021  1.00  0.00     0.080 C 
HETATM   13  C12 UNL     1      -1.001   1.651   0.392  1.00  0.00     0.045 C 
HETATM   14  C14 UNL     1      -1.738   0.792   1.057  1.00  0.00     0.037 C 
HETATM   15  C15 UNL     1      -1.352  -0.516   1.640  1.00  0.00     0.152 C 
ENDROOT
BRANCH   1  16
HETATM   16  O1  UNL     1       3.704   0.423  -0.401  1.00  0.00    -0.285 OA
HETATM   17  C1  UNL     1       4.492   1.471   0.123  1.00  0.00     0.237 C 
ENDBRANCH   1  16
BRANCH  15  18
HETATM   18  O3  UNL     1      -2.453  -1.213   2.096  1.00  0.00    -0.391 OA
ATOM     19  H3  UNL     1      -2.965  -0.704   2.714  1.00  0.00     0.210 HD
ENDBRANCH  15  18
BRANCH  13  20
HETATM   20  O2  UNL     1      -1.646   2.804  -0.034  1.00  0.00    -0.360 OA
HETATM   21  C13 UNL     1      -2.975   3.090   0.341  1.00  0.00     0.209 C 
ENDBRANCH  13  20
TORSDOF 3
