REMARK  13 active torsions:
REMARK  status: ('A' for Active; 'I' for Inactive)
REMARK    1  A    between atoms: C2_2  and  C3_3 
REMARK    2  A    between atoms: C3_3  and  N1_4 
REMARK       I    between atoms: C4_6  and  N2_7 
REMARK       I    between atoms: C4_6  and  N8_44 
REMARK    3  A    between atoms: N2_7  and  C5_9 
REMARK    4  A    between atoms: N3_13  and  C9_14 
REMARK    5  A    between atoms: C9_14  and  C10_15 
REMARK    6  A    between atoms: C10_15  and  C11_16 
REMARK    7  A    between atoms: C10_15  and  N6_30 
REMARK    8  A    between atoms: C11_16  and  C12_17 
REMARK       I    between atoms: C12_17  and  N4_19 
REMARK    9  A    between atoms: N4_19  and  S1_21 
REMARK   10  A    between atoms: S1_21  and  N5_24 
REMARK   11  A    between atoms: N6_30  and  C17_32 
REMARK   12  A    between atoms: C17_32  and  C18_33 
REMARK   13  A    between atoms: C23_41  and  C24_42 
ROOT
HETATM    1  C10 UNL     1       1.410   0.856   0.503  1.00  0.00     0.028 C 
ENDROOT
BRANCH   1   2
HETATM    2  C9  UNL     1      -0.038   0.724   0.509  1.00  0.00     0.085 C 
BRANCH   2   3
HETATM    3  N3  UNL     1      -0.803   0.232  -0.577  1.00  0.00    -0.284 NA
HETATM    4  C8  UNL     1      -0.670  -1.199  -0.853  1.00  0.00     0.095 C 
HETATM    5  C7  UNL     1      -0.957  -2.032   0.348  1.00  0.00     0.017 C 
HETATM    6  C6  UNL     1      -2.302  -1.680   0.915  1.00  0.00     0.028 C 
HETATM    7  C5  UNL     1      -2.717  -0.252   0.801  1.00  0.00     0.117 C 
HETATM    8  C23 UNL     1      -2.255   0.400  -0.427  1.00  0.00     0.085 C 
BRANCH   7   9
HETATM    9  N2  UNL     1      -4.129  -0.216   1.097  1.00  0.00    -0.220 N 
HETATM   10  C4  UNL     1      -5.099  -1.169   0.661  1.00  0.00     0.675 C 
HETATM   11  N1  UNL     1      -5.368  -2.149   1.380  1.00  0.00    -0.202 N 
HETATM   12  N8  UNL     1      -5.738  -0.963  -0.567  1.00  0.00    -0.227 N 
ATOM     13  H1  UNL     1      -4.804  -2.099   2.228  1.00  0.00     0.183 HD
HETATM   14  C26 UNL     1      -5.409  -1.558  -1.833  1.00  0.00     0.168 C 
HETATM   15  C27 UNL     1      -6.872  -0.034  -0.578  1.00  0.00     0.168 C 
ATOM     16  H2  UNL     1      -4.464   0.559   1.669  1.00  0.00     0.178 HD
BRANCH  11  17
HETATM   17  C3  UNL     1      -6.156  -3.275   1.437  1.00  0.00     0.105 C 
BRANCH  17  18
HETATM   18  C2  UNL     1      -6.474  -3.993   0.188  1.00  0.00     0.007 C 
HETATM   19  C1  UNL     1      -7.728  -4.186  -0.230  1.00  0.00     0.012 C 
ENDBRANCH  17  18
ENDBRANCH  11  17
ENDBRANCH   7   9
BRANCH   8  20
HETATM   20  C24 UNL     1      -2.837   1.689  -0.831  1.00  0.00     0.017 C 
HETATM   21  C25 UNL     1      -2.788   2.860   0.035  1.00  0.00     0.007 C 
ENDBRANCH   8  20
ENDBRANCH   2   3
ENDBRANCH   1   2
BRANCH   1  22
HETATM   22  C11 UNL     1       2.214  -0.441   0.299  1.00  0.00     0.161 C 
BRANCH  22  23
HETATM   23  C12 UNL     1       3.693  -0.182   0.333  1.00  0.00     0.237 C 
HETATM   24  O1  UNL     1       4.234   0.921   0.503  1.00  0.00    -0.272 OA
HETATM   25  N4  UNL     1       4.518  -1.323   0.147  1.00  0.00    -0.241 N 
ATOM     26  H4  UNL     1       4.092  -2.239   0.010  1.00  0.00     0.182 HD
BRANCH  25  27
HETATM   27  S1  UNL     1       6.235  -1.169   0.152  1.00  0.00     0.305 S 
HETATM   28  O2  UNL     1       6.601  -0.381  -1.113  1.00  0.00    -0.188 OA
HETATM   29  O3  UNL     1       6.698  -0.388   1.329  1.00  0.00    -0.188 OA
BRANCH  27  30
HETATM   30  N5  UNL     1       7.026  -2.670   0.043  1.00  0.00    -0.189 NA
HETATM   31  C13 UNL     1       6.723  -3.536   1.153  1.00  0.00     0.135 C 
HETATM   32  C14 UNL     1       6.043  -4.790   0.623  1.00  0.00     0.183 C 
HETATM   33  O4  UNL     1       6.977  -5.519  -0.084  1.00  0.00    -0.389 OA
HETATM   34  C15 UNL     1       7.535  -4.731  -1.079  1.00  0.00     0.183 C 
HETATM   35  C16 UNL     1       6.873  -3.366  -1.188  1.00  0.00     0.135 C 
ENDBRANCH  27  30
ENDBRANCH  25  27
ENDBRANCH  22  23
ENDBRANCH   1  22
BRANCH   1  36
HETATM   36  N6  UNL     1       2.126   1.953   0.023  1.00  0.00    -0.371 N 
ATOM     37  H6  UNL     1       2.697   1.788  -0.806  1.00  0.00     0.164 HD
BRANCH  36  38
HETATM   38  C17 UNL     1       2.155   3.236   0.536  1.00  0.00     0.065 C 
BRANCH  38  39
HETATM   39  C18 UNL     1       1.014   4.149   0.303  1.00  0.00     0.027 C 
HETATM   40  C19 UNL     1       0.877   4.327  -1.197  1.00  0.00     0.037 C 
HETATM   41  C20 UNL     1       0.777   5.805  -1.499  1.00  0.00     0.233 C 
HETATM   42  N7  UNL     1       2.001   6.472  -1.143  1.00  0.00    -0.075 N 
HETATM   43  C21 UNL     1       2.343   6.271   0.256  1.00  0.00     0.233 C 
ATOM     44  H72 UNL     1       2.767   6.192  -1.755  1.00  0.00     0.277 HD
ATOM     45  H71 UNL     1       1.963   7.464  -1.376  1.00  0.00     0.277 HD
HETATM   46  C22 UNL     1       1.258   5.513   0.973  1.00  0.00     0.037 C 
ENDBRANCH  38  39
ENDBRANCH  36  38
ENDBRANCH   1  36
TORSDOF 13
