REMARK  11 active torsions:
REMARK  status: ('A' for Active; 'I' for Inactive)
REMARK    1  A    between atoms: O1_2  and  C2_3 
REMARK    2  A    between atoms: C4_5  and  N1_6 
REMARK    3  A    between atoms: N1_6  and  C5_8 
REMARK    4  A    between atoms: C5_8  and  C6_9 
REMARK    5  A    between atoms: C6_9  and  C7_10 
REMARK    6  A    between atoms: C7_10  and  C8_11 
REMARK    7  A    between atoms: C8_11  and  N2_13 
REMARK       I    between atoms: N2_13  and  C10_15 
REMARK    8  A    between atoms: C10_15  and  C11_17 
REMARK    9  A    between atoms: C14_20  and  N3_21 
REMARK   10  A    between atoms: N3_21  and  O3_23 
REMARK   11  A    between atoms: C15_25  and  O4_26 
ROOT
HETATM    1  C2  UNL     1      -4.473   0.034   1.037  1.00  0.00     0.073 A 
HETATM    2  C3  UNL     1      -3.170  -0.220   0.567  1.00  0.00     0.068 A 
HETATM    3  C4  UNL     1      -2.801  -1.484   0.161  1.00  0.00     0.062 A 
HETATM    4  C14 UNL     1      -3.794  -2.449   0.252  1.00  0.00     0.114 A 
HETATM    5  C15 UNL     1      -5.071  -2.252   0.701  1.00  0.00     0.101 A 
HETATM    6  C17 UNL     1      -5.412  -0.975   1.102  1.00  0.00     0.076 A 
ENDROOT
BRANCH   3   7
HETATM    7  N1  UNL     1      -1.529  -1.849  -0.256  1.00  0.00    -0.388 N 
ATOM      8  H1  UNL     1      -1.398  -2.860  -0.242  1.00  0.00     0.159 HD
BRANCH   7   9
HETATM    9  C5  UNL     1      -0.368  -1.171  -0.696  1.00  0.00     0.120 C 
BRANCH   9  10
HETATM   10  C6  UNL     1       0.038   0.107  -0.124  1.00  0.00     0.022 C 
BRANCH  10  11
HETATM   11  C7  UNL     1       1.327   0.655  -0.612  1.00  0.00     0.026 C 
BRANCH  11  12
HETATM   12  C8  UNL     1       2.612  -0.001  -0.373  1.00  0.00     0.080 C 
HETATM   13  C9  UNL     1       2.894  -1.359  -0.893  1.00  0.00     0.032 C 
BRANCH  12  14
HETATM   14  N2  UNL     1       3.655   0.881  -0.963  1.00  0.00    -0.357 N 
HETATM   15  C10 UNL     1       4.541   1.646  -0.201  1.00  0.00     0.221 C 
HETATM   16  O2  UNL     1       4.534   1.654   1.070  1.00  0.00    -0.273 OA
ATOM     17  H2  UNL     1       3.727   0.930  -1.979  1.00  0.00     0.162 HD
BRANCH  15  18
HETATM   18  C11 UNL     1       5.548   2.498  -0.903  1.00  0.00     0.070 C 
HETATM   19  C12 UNL     1       6.383   3.290   0.065  1.00  0.00     0.019 C 
HETATM   20  C13 UNL     1       6.433   1.544  -1.722  1.00  0.00     0.019 C 
ENDBRANCH  15  18
ENDBRANCH  12  14
ENDBRANCH  11  12
ENDBRANCH  10  11
ENDBRANCH   9  10
ENDBRANCH   7   9
ENDBRANCH   3   7
BRANCH   4  21
HETATM   21  N3  UNL     1      -3.464  -3.778  -0.166  1.00  0.00    -0.264 N 
ATOM     22  H3  UNL     1      -3.095  -3.993  -1.092  1.00  0.00     0.194 HD
BRANCH  21  23
HETATM   23  O3  UNL     1      -3.671  -4.664   0.718  1.00  0.00    -0.289 OA
ATOM     24  H3  UNL     1      -3.452  -5.546   0.441  1.00  0.00     0.244 HD
ENDBRANCH  21  23
ENDBRANCH   4  21
BRANCH   1  25
HETATM   25  O1  UNL     1      -4.828   1.308   1.445  1.00  0.00    -0.356 OA
HETATM   26  C1  UNL     1      -3.962   2.390   1.426  1.00  0.00     0.210 C 
ENDBRANCH   1  25
BRANCH   5  27
HETATM   27  O4  UNL     1      -6.001  -3.308   0.752  1.00  0.00    -0.353 OA
HETATM   28  C16 UNL     1      -7.291  -3.031   1.230  1.00  0.00     0.210 C 
ENDBRANCH   5  27
TORSDOF 11
