REMARK  3 active torsions:
REMARK  status: ('A' for Active; 'I' for Inactive)
REMARK       I    between atoms: C1_4  and  N2_5 
REMARK       I    between atoms: C1_4  and  N4_10 
REMARK    1  A    between atoms: N2_5  and  N3_7 
REMARK    2  A    between atoms: N4_10  and  S1_12 
REMARK    3  A    between atoms: S1_12  and  N5_13 
ROOT
HETATM    1  N1  UNL     1       0.364  -0.772  -1.350  1.00  0.00    -0.233 N 
ATOM      2  H11 UNL     1      -0.536  -1.251  -1.377  1.00  0.00     0.174 HD
ATOM      3  H12 UNL     1       1.031  -0.800  -2.121  1.00  0.00     0.174 HD
HETATM    4  C1  UNL     1       0.677  -0.098  -0.295  1.00  0.00     0.700 C 
HETATM    5  N2  UNL     1       1.927   0.567  -0.258  1.00  0.00    -0.138 N 
ATOM      6  H2  UNL     1       1.961   1.532  -0.587  1.00  0.00     0.205 HD
HETATM    7  N4  UNL     1      -0.252  -0.059   0.779  1.00  0.00    -0.099 N 
ATOM      8  H4  UNL     1       0.077   0.185   1.713  1.00  0.00     0.199 HD
ENDROOT
BRANCH   5   9
HETATM    9  N3  UNL     1       3.111  -0.004   0.196  1.00  0.00    -0.331 N 
ATOM     10  H32 UNL     1       3.058  -0.969   0.521  1.00  0.00     0.177 HD
ATOM     11  H31 UNL     1       4.011   0.475   0.223  1.00  0.00     0.177 HD
ENDBRANCH   5   9
BRANCH   7  12
HETATM   12  S1  UNL     1      -1.922  -0.414   0.542  1.00  0.00     0.330 S 
HETATM   13  O1  UNL     1      -2.098  -1.432  -0.550  1.00  0.00    -0.182 OA
HETATM   14  O2  UNL     1      -2.459  -0.985   1.800  1.00  0.00    -0.182 OA
BRANCH  12  15
HETATM   15  N5  UNL     1      -2.762   1.041   0.156  1.00  0.00    -0.311 N 
ATOM     16  H52 UNL     1      -2.325   1.960   0.083  1.00  0.00     0.170 HD
ATOM     17  H51 UNL     1      -3.750   0.831   0.016  1.00  0.00     0.170 HD
ENDBRANCH  12  15
ENDBRANCH   7  12
TORSDOF 3
