REMARK  9 active torsions:
REMARK  status: ('A' for Active; 'I' for Inactive)
REMARK    1  A    between atoms: N1_1  and  C1_4 
REMARK    2  A    between atoms: C3_6  and  N2_7 
REMARK    3  A    between atoms: C4_8  and  C5_9 
REMARK    4  A    between atoms: C5_9  and  N3_10 
REMARK    5  A    between atoms: N3_10  and  C6_11 
REMARK    6  A    between atoms: N4_15  and  C9_16 
REMARK    7  A    between atoms: C11_18  and  C12_19 
REMARK    8  A    between atoms: C15_22  and  C16_23 
REMARK    9  A    between atoms: N5_25  and  C18_26 
ROOT
HETATM    1  C9  UNL     1      -1.668   0.099  -0.153  1.00  0.00     0.140 A 
HETATM    2  C10 UNL     1      -0.313  -0.054   0.154  1.00  0.00     0.081 A 
HETATM    3  C11 UNL     1       0.602   0.957   0.095  1.00  0.00     0.064 A 
HETATM    4  N12 UNL     1       0.118   2.167  -0.288  1.00  0.00    -0.191 N 
ATOM      5  H12 UNL     1       0.755   2.961  -0.351  1.00  0.00     0.184 HD
HETATM    6  C21 UNL     1      -1.189   2.342  -0.587  1.00  0.00     0.677 A 
HETATM    7  N13 UNL     1      -1.673   3.488  -0.953  1.00  0.00    -0.234 N 
ATOM      8 1H13 UNL     1      -2.659   3.620  -1.179  1.00  0.00     0.174 HD
ATOM      9 2H13 UNL     1      -1.009   4.260  -1.004  1.00  0.00     0.174 HD
HETATM   10  N14 UNL     1      -2.079   1.307  -0.519  1.00  0.00    -0.175 N 
ATOM     11  H14 UNL     1      -3.060   1.463  -0.750  1.00  0.00     0.186 HD
ENDROOT
BRANCH   3  12
HETATM   12  C12 UNL     1       2.024   0.830   0.331  1.00  0.00     0.007 A 
HETATM   13  C13 UNL     1       2.525  -0.332   0.898  1.00  0.00     0.017 A 
HETATM   14  C14 UNL     1       3.870  -0.514   1.081  1.00  0.00     0.033 A 
HETATM   15  C15 UNL     1       4.752   0.487   0.688  1.00  0.00     0.061 A 
HETATM   16  N11 UNL     1       4.229   1.576   0.155  1.00  0.00    -0.363 N 
HETATM   17  C20 UNL     1       2.925   1.813  -0.048  1.00  0.00     0.102 A 
ATOM     18  H11 UNL     1       4.880   2.308  -0.130  1.00  0.00     0.165 HD
BRANCH  15  19
HETATM   19  C16 UNL     1       6.175   0.222   0.849  1.00  0.00     0.093 A 
HETATM   20  C17 UNL     1       7.212   1.035   0.416  1.00  0.00     0.153 A 
HETATM   21  N5  UNL     1       8.341   0.417   0.706  1.00  0.00    -0.229 N 
HETATM   22  N9  UNL     1       8.026  -0.741   1.303  1.00  0.00    -0.234 N 
HETATM   23  N10 UNL     1       6.740  -0.873   1.395  1.00  0.00    -0.282 N 
ATOM     24  H9  UNL     1       8.705  -1.424   1.639  1.00  0.00     0.209 HD
ATOM     25  H10 UNL     1       6.244  -1.664   1.807  1.00  0.00     0.188 HD
BRANCH  21  26
HETATM   26  C18 UNL     1       9.683   0.794   0.442  1.00  0.00     0.195 A 
HETATM   27  N6  UNL     1      10.546   0.093  -0.355  1.00  0.00    -0.220 N 
HETATM   28  O2  UNL     1      11.658   0.716  -0.361  1.00  0.00    -0.153 OA
ATOM     29  H6  UNL     1      10.337  -0.772  -0.854  1.00  0.00     0.198 HD
HETATM   30  N7  UNL     1      11.635   1.771   0.352  1.00  0.00    -0.222 N 
HETATM   31  C19 UNL     1      10.398   1.867   0.889  1.00  0.00     0.169 A 
ATOM     32  H7  UNL     1      12.407   2.423   0.492  1.00  0.00     0.198 HD
HETATM   33  N8  UNL     1      10.002   2.816   1.677  1.00  0.00    -0.381 N 
ATOM     34  H82 UNL     1       9.069   2.888   2.082  1.00  0.00     0.157 HD
ATOM     35  H81 UNL     1      10.536   3.618   2.011  1.00  0.00     0.157 HD
ENDBRANCH  21  26
ENDBRANCH  15  19
ENDBRANCH   3  12
BRANCH   1  36
HETATM   36  N4  UNL     1      -2.517  -1.016  -0.145  1.00  0.00    -0.272 N 
HETATM   37  N2  UNL     1      -3.933  -1.167  -0.296  1.00  0.00    -0.262 N 
HETATM   38  C4  UNL     1      -4.057  -2.307  -1.102  1.00  0.00     0.164 C 
HETATM   39  C7  UNL     1      -3.087  -3.282  -0.384  1.00  0.00     0.056 C 
HETATM   40  C8  UNL     1      -1.963  -2.397  -0.007  1.00  0.00     0.153 C 
BRANCH  37  41
HETATM   41  C3  UNL     1      -4.808  -0.237   0.334  1.00  0.00     0.127 A 
HETATM   42  C2  UNL     1      -5.812   0.433  -0.285  1.00  0.00     0.098 A 
HETATM   43  C1  UNL     1      -6.631   1.275   0.411  1.00  0.00     0.103 A 
HETATM   44  N16 UNL     1      -6.499   1.495   1.749  1.00  0.00    -0.339 N 
HETATM   45  C22 UNL     1      -5.510   0.828   2.341  1.00  0.00     0.183 A 
ATOM     46  H16 UNL     1      -7.115   2.126   2.261  1.00  0.00     0.168 HD
HETATM   47  N15 UNL     1      -4.695   0.004   1.692  1.00  0.00    -0.337 N 
ATOM     48  H15 UNL     1      -3.958  -0.469   2.215  1.00  0.00     0.168 HD
BRANCH  43  49
HETATM   49  N1  UNL     1      -7.583   1.910  -0.183  1.00  0.00    -0.385 N 
ATOM     50  H12 UNL     1      -7.682   1.745  -1.185  1.00  0.00     0.157 HD
ATOM     51  H11 UNL     1      -8.195   2.539   0.337  1.00  0.00     0.157 HD
ENDBRANCH  43  49
ENDBRANCH  37  41
BRANCH  38  52
HETATM   52  C5  UNL     1      -5.268  -3.077  -1.345  1.00  0.00     0.185 C 
BRANCH  52  53
HETATM   53  N3  UNL     1      -6.394  -2.574  -1.967  1.00  0.00    -0.393 NA
BRANCH  53  54
HETATM   54  C6  UNL     1      -7.488  -2.085  -2.572  1.00  0.00     0.440 C 
HETATM   55  O1  UNL     1      -7.584  -1.545  -3.749  1.00  0.00    -0.268 OA
ENDBRANCH  53  54
ENDBRANCH  52  53
ENDBRANCH  38  52
ENDBRANCH   1  36
TORSDOF 9
