REMARK  6 active torsions:
REMARK  status: ('A' for Active; 'I' for Inactive)
REMARK    1  A    between atoms: C3_3  and  C4_4 
REMARK    2  A    between atoms: C4_4  and  N8_30 
REMARK    3  A    between atoms: N1_5  and  C5_7 
REMARK    4  A    between atoms: C5_7  and  N2_9 
REMARK    5  A    between atoms: N2_9  and  C6_11 
REMARK    6  A    between atoms: C9_14  and  N3_15 
REMARK       I    between atoms: N4_18  and  C12_19 
REMARK       I    between atoms: C12_19  and  N5_21 
ROOT
HETATM    1  C1  UNL     1       9.229  -2.901   0.934  1.00  0.00     0.112 C 
HETATM    2  C2  UNL     1       7.910  -2.416   0.550  1.00  0.00    -0.103 C 
HETATM    3  C3  UNL     1       6.815  -2.018   0.236  1.00  0.00    -0.031 C 
ENDROOT
BRANCH   3   4
HETATM    4  C4  UNL     1       5.492  -1.563  -0.140  1.00  0.00     0.161 C 
HETATM    5  N1  UNL     1       4.674  -2.416  -0.564  1.00  0.00    -0.312 N 
ATOM      6  H1  UNL     1       4.963  -3.392  -0.632  1.00  0.00     0.170 HD
BRANCH   5   7
HETATM    7  C5  UNL     1       3.347  -2.052  -0.954  1.00  0.00     0.178 C 
HETATM    8  S1  UNL     1       2.970  -2.211  -2.523  1.00  0.00    -0.040 SA
BRANCH   7   9
HETATM    9  N2  UNL     1       2.469  -1.560  -0.006  1.00  0.00    -0.333 N 
ATOM     10  H2  UNL     1       2.810  -1.459   0.950  1.00  0.00     0.168 HD
BRANCH   9  11
HETATM   11  C6  UNL     1       1.135  -1.188  -0.270  1.00  0.00     0.034 A 
HETATM   12  C7  UNL     1       0.583  -0.067   0.371  1.00  0.00     0.032 A 
HETATM   13  C8  UNL     1      -0.719   0.288   0.156  1.00  0.00     0.031 A 
HETATM   14  C9  UNL     1      -1.521  -0.441  -0.691  1.00  0.00     0.030 A 
HETATM   15  C16 UNL     1      -1.011  -1.547  -1.335  1.00  0.00     0.031 A 
HETATM   16  C17 UNL     1       0.305  -1.892  -1.107  1.00  0.00     0.032 A 
BRANCH  14  17
HETATM   17  N3  UNL     1      -2.849  -0.081  -0.937  1.00  0.00    -0.378 N 
HETATM   18  C10 UNL     1      -3.821  -1.031  -1.414  1.00  0.00     0.143 C 
HETATM   19  C11 UNL     1      -5.209  -0.823  -0.929  1.00  0.00     0.147 C 
HETATM   20  N4  UNL     1      -5.429   0.339  -0.115  1.00  0.00    -0.331 N 
HETATM   21  C12 UNL     1      -6.763   0.658   0.261  1.00  0.00     0.324 C 
HETATM   22  C14 UNL     1      -4.370   1.212   0.345  1.00  0.00     0.147 C 
HETATM   23  O1  UNL     1      -7.687  -0.104  -0.141  1.00  0.00    -0.247 OA
HETATM   24  N5  UNL     1      -6.998   1.796   1.056  1.00  0.00    -0.285 N 
HETATM   25  C13 UNL     1      -8.149   2.027   1.543  1.00  0.00     0.204 C 
ATOM     26  H5  UNL     1      -6.233   2.444   1.244  1.00  0.00     0.172 HD
HETATM   27  N6  UNL     1      -9.218   1.141   1.295  1.00  0.00    -0.066 NA
HETATM   28  N7  UNL     1      -8.353   3.175   2.333  1.00  0.00    -0.066 NA
HETATM   29  C15 UNL     1      -3.286   1.280  -0.735  1.00  0.00     0.143 C 
ENDBRANCH  14  17
ENDBRANCH   9  11
ENDBRANCH   7   9
ENDBRANCH   5   7
BRANCH   4  30
HETATM   30  N8  UNL     1       5.169  -0.195  -0.026  1.00  0.00    -0.360 N 
HETATM   31  C18 UNL     1       4.798   0.756  -1.073  1.00  0.00     0.125 C 
HETATM   32  C19 UNL     1       5.695   1.927  -0.705  1.00  0.00     0.021 C 
HETATM   33  C20 UNL     1       5.921   1.828   0.777  1.00  0.00     0.021 C 
HETATM   34  C21 UNL     1       5.139   0.609   1.191  1.00  0.00     0.125 C 
ENDBRANCH   4  30
ENDBRANCH   3   4
TORSDOF 6
