REMARK  3 active torsions:
REMARK  status: ('A' for Active; 'I' for Inactive)
REMARK    1  A    between atoms: C2_2  and  C3_3 
REMARK    2  A    between atoms: C2_2  and  C5_8 
REMARK    3  A    between atoms: C3_3  and  C4_4 
ROOT
HETATM    1  C5  UNL     1       0.273  -0.327   0.096  1.00  0.00    -0.039 A 
HETATM    2  C6  UNL     1       0.953   0.204  -0.983  1.00  0.00     0.012 A 
HETATM    3  C7  UNL     1       2.287   0.539  -0.881  1.00  0.00     0.041 A 
HETATM    4  C8  UNL     1       2.995   0.362   0.289  1.00  0.00     0.113 A 
HETATM    5  C9  UNL     1       4.381   0.720   0.364  1.00  0.00     0.117 C 
HETATM    6  N1  UNL     1       5.505   1.013   0.439  1.00  0.00    -0.190 NA
HETATM    7  N2  UNL     1       2.308  -0.158   1.328  1.00  0.00    -0.357 N 
ATOM      8  H2  UNL     1       2.796  -0.304   2.212  1.00  0.00     0.166 HD
HETATM    9  C10 UNL     1       1.013  -0.490   1.248  1.00  0.00     0.096 A 
ENDROOT
BRANCH   1  10
HETATM   10  C2  UNL     1      -1.129  -0.715   0.090  1.00  0.00     0.024 C 
HETATM   11  C1  UNL     1      -1.346  -1.818  -0.968  1.00  0.00     0.015 C 
BRANCH  10  12
HETATM   12  C3  UNL     1      -2.145   0.339  -0.120  1.00  0.00     0.126 C 
BRANCH  12  13
HETATM   13  C4  UNL     1      -2.014   1.452   0.881  1.00  0.00     0.388 C 
HETATM   14  F1  UNL     1      -2.181   0.862   2.142  1.00  0.00    -0.171 F 
HETATM   15  F2  UNL     1      -2.991   2.419   0.681  1.00  0.00    -0.171 F 
HETATM   16  F3  UNL     1      -0.778   2.020   0.819  1.00  0.00    -0.171 F 
ENDBRANCH  12  13
ENDBRANCH  10  12
ENDBRANCH   1  10
TORSDOF 3
