REMARK  4 active torsions:
REMARK  status: ('A' for Active; 'I' for Inactive)
REMARK    1  A    between atoms: C2_2  and  O1_3 
REMARK    2  A    between atoms: O1_3  and  C3_4 
REMARK    3  A    between atoms: C3_4  and  N1_5 
REMARK    4  A    between atoms: C6_11  and  N3_12 
ROOT
HETATM    1  N1  UNL     1      -0.601   0.542  -0.182  1.00  0.00    -0.277 N 
HETATM    2  C4  UNL     1      -1.694  -0.163  -0.516  1.00  0.00     0.105 A 
HETATM    3  C5  UNL     1      -2.124  -1.422   0.137  1.00  0.00     0.091 C 
HETATM    4  N2  UNL     1      -2.319   0.461  -1.528  1.00  0.00    -0.245 N 
ATOM      5  H2  UNL     1      -3.176   0.159  -1.990  1.00  0.00     0.196 HD
HETATM    6  O2  UNL     1      -1.622   1.526  -1.807  1.00  0.00    -0.200 OA
HETATM    7  C6  UNL     1      -0.567   1.607  -1.006  1.00  0.00     0.246 A 
ENDROOT
BRANCH   1   8
HETATM    8  C3  UNL     1       0.337   0.199   0.862  1.00  0.00     0.310 C 
BRANCH   8   9
HETATM    9  O1  UNL     1       1.370  -0.617   0.331  1.00  0.00    -0.344 OA
BRANCH   9  10
HETATM   10  C2  UNL     1       2.407  -1.099   1.087  1.00  0.00     0.126 C 
HETATM   11  C1  UNL     1       3.411  -0.322   1.512  1.00  0.00     0.037 C 
ENDBRANCH   9  10
ENDBRANCH   8   9
ENDBRANCH   1   8
BRANCH   7  12
HETATM   12  N3  UNL     1       0.353   2.512  -0.973  1.00  0.00    -0.363 N 
ATOM     13  H32 UNL     1       1.164   2.574  -0.357  1.00  0.00     0.159 HD
ATOM     14  H31 UNL     1       0.379   3.318  -1.597  1.00  0.00     0.159 HD
ENDBRANCH   7  12
TORSDOF 4
