REMARK  2 active torsions:
REMARK  status: ('A' for Active; 'I' for Inactive)
REMARK    1  A    between atoms: N1_2  and  C2_4 
REMARK    2  A    between atoms: C2_4  and  C4_12 
REMARK       I    between atoms: N2_5  and  C3_7 
ROOT
HETATM    1  C2  UNL     1       0.043  -0.532   0.337  1.00  0.00     0.149 C 
HETATM    2  N2  UNL     1      -0.181  -0.125   1.536  1.00  0.00    -0.314 N 
ATOM      3  H2  UNL     1      -0.491  -0.822   2.214  1.00  0.00     0.170 HD
HETATM    4  C3  UNL     1      -0.037   1.191   1.993  1.00  0.00     0.187 C 
HETATM    5  N3  UNL     1      -0.735   1.586   2.987  1.00  0.00    -0.373 N 
ATOM      6  H31 UNL     1      -0.630   2.544   3.320  1.00  0.00     0.158 HD
ATOM      7  H32 UNL     1      -1.389   0.948   3.441  1.00  0.00     0.158 HD
HETATM    8  N4  UNL     1       0.866   2.072   1.366  1.00  0.00    -0.064 NA
ENDROOT
BRANCH   1   9
HETATM    9  N1  UNL     1       0.479   0.323  -0.715  1.00  0.00    -0.378 N 
HETATM   10  C1  UNL     1      -0.479   0.955  -1.594  1.00  0.00     0.148 C 
ATOM     11  H1  UNL     1       1.476   0.491  -0.850  1.00  0.00     0.160 HD
ENDBRANCH   1   9
BRANCH   1  12
HETATM   12  C4  UNL     1      -0.164  -1.944   0.057  1.00  0.00     0.189 C 
HETATM   13  C5  UNL     1       0.070  -2.503  -1.305  1.00  0.00     0.100 C 
HETATM   14  O1  UNL     1      -0.543  -2.721   0.944  1.00  0.00    -0.290 OA
ENDBRANCH   1  12
TORSDOF 2
