REMARK  2 active torsions:
REMARK  status: ('A' for Active; 'I' for Inactive)
REMARK    1  A    between atoms: C2_2  and  N1_5 
REMARK    2  A    between atoms: C5_10  and  N5_11 
ROOT
HETATM    1  N1  UNL     1       0.770  -0.303  -0.187  1.00  0.00    -0.100 N 
HETATM    2  N2  UNL     1       1.554  -1.298  -0.616  1.00  0.00     0.010 NA
HETATM    3  N3  UNL     1       2.833  -0.895  -0.568  1.00  0.00     0.007 NA
HETATM    4  N4  UNL     1       2.845   0.349  -0.109  1.00  0.00    -0.117 N 
ATOM      5  H4  UNL     1       3.675   0.923   0.038  1.00  0.00     0.202 HD
HETATM    6  C5  UNL     1       1.576   0.725   0.129  1.00  0.00     0.704 A 
ENDROOT
BRANCH   1   7
HETATM    7  C2  UNL     1      -0.679  -0.289  -0.068  1.00  0.00     0.059 C 
HETATM    8  C1  UNL     1      -1.178  -1.715  -0.335  1.00  0.00     0.040 C 
HETATM    9  C3  UNL     1      -1.300   0.683  -1.044  1.00  0.00     0.040 C 
HETATM   10  C4  UNL     1      -1.130   0.051   1.337  1.00  0.00     0.040 C 
ENDBRANCH   1   7
BRANCH   6  11
HETATM   11  N5  UNL     1       1.212   1.868   0.579  1.00  0.00    -0.232 N 
ATOM     12  H52 UNL     1       0.249   2.153   0.760  1.00  0.00     0.174 HD
ATOM     13  H51 UNL     1       1.824   2.648   0.819  1.00  0.00     0.174 HD
ENDBRANCH   6  11
TORSDOF 2
