REMARK  2 active torsions:
REMARK  status: ('A' for Active; 'I' for Inactive)
REMARK    1  A    between atoms: N1_2  and  C3_5 
REMARK    2  A    between atoms: C4_8  and  N4_9 
ROOT
HETATM    1  C1  UNL     1       1.813  -1.497   0.053  1.00  0.00     0.188 C 
HETATM    2  N1  UNL     1       1.475  -0.073   0.093  1.00  0.00    -0.120 N 
HETATM    3  C2  UNL     1       2.468   0.874   0.239  1.00  0.00     0.198 C 
HETATM    4  N2  UNL     1       3.303   1.671   0.380  1.00  0.00    -0.171 NA
ENDROOT
BRANCH   2   5
HETATM    5  C3  UNL     1       0.084   0.220  -0.025  1.00  0.00     0.722 A 
HETATM    6  N3  UNL     1      -0.924  -0.302   0.731  1.00  0.00    -0.019 N 
HETATM    7  C4  UNL     1      -2.114   0.200   0.335  1.00  0.00     0.705 A 
ATOM      8  H3  UNL     1      -0.797  -0.975   1.487  1.00  0.00     0.203 HD
HETATM    9  N5  UNL     1      -1.835   1.037  -0.674  1.00  0.00    -0.117 N 
HETATM   10  N6  UNL     1      -0.533   1.051  -0.889  1.00  0.00    -0.116 N 
ATOM     11  H5  UNL     1      -2.523   1.580  -1.196  1.00  0.00     0.206 HD
ATOM     12  H6  UNL     1      -0.063   1.608  -1.603  1.00  0.00     0.206 HD
BRANCH   7  13
HETATM   13  N4  UNL     1      -3.291  -0.073   0.832  1.00  0.00    -0.233 N 
ATOM     14  H42 UNL     1      -3.503  -0.710   1.600  1.00  0.00     0.174 HD
ATOM     15  H41 UNL     1      -4.190   0.306   0.533  1.00  0.00     0.174 HD
ENDBRANCH   7  13
ENDBRANCH   2   5
TORSDOF 2
