REMARK  5 active torsions:
REMARK  status: ('A' for Active; 'I' for Inactive)
REMARK    1  A    between atoms: C2_2  and  C3_3 
REMARK    2  A    between atoms: C3_3  and  C5_5 
REMARK    3  A    between atoms: C5_5  and  O1_6 
REMARK    4  A    between atoms: C5_5  and  C6_10 
REMARK    5  A    between atoms: O1_6  and  N1_7 
ROOT
HETATM    1  C5  UNL     1       0.750  -0.339   0.298  1.00  0.00     0.187 C 
ENDROOT
BRANCH   1   2
HETATM    2  C3  UNL     1      -0.505  -0.288  -0.554  1.00  0.00     0.015 C 
HETATM    3  C4  UNL     1      -1.202  -1.612  -0.347  1.00  0.00     0.012 C 
BRANCH   2   4
HETATM    4  C2  UNL     1      -1.363   0.880  -0.124  1.00  0.00     0.002 C 
HETATM    5  C1  UNL     1      -2.649   0.966  -0.872  1.00  0.00     0.005 C 
ENDBRANCH   2   4
ENDBRANCH   1   2
BRANCH   1   6
HETATM    6  O1  UNL     1       0.331  -0.493   1.626  1.00  0.00    -0.279 OA
BRANCH   6   7
HETATM    7  N1  UNL     1       0.787  -1.623   2.180  1.00  0.00    -0.311 N 
ATOM      8  H12 UNL     1       1.374  -2.289   1.677  1.00  0.00     0.184 HD
ATOM      9  H11 UNL     1       0.482  -1.735   3.147  1.00  0.00     0.184 HD
ENDBRANCH   6   7
ENDBRANCH   1   6
BRANCH   1  10
HETATM   10  C6  UNL     1       1.565   0.930   0.160  1.00  0.00     0.243 A 
HETATM   11  C7  UNL     1       3.032   0.821  -0.156  1.00  0.00     0.268 A 
HETATM   12  N2  UNL     1       2.068   1.225  -1.153  1.00  0.00    -0.065 N 
ATOM     13  H22 UNL     1       1.838   0.879  -2.085  1.00  0.00     0.277 HD
ATOM     14  H21 UNL     1       1.993   2.038  -1.765  1.00  0.00     0.277 HD
ENDBRANCH   1  10
TORSDOF 5
