REMARK  6 active torsions:
REMARK  status: ('A' for Active; 'I' for Inactive)
REMARK    1  A    between atoms: C2_2  and  C3_3 
REMARK    2  A    between atoms: C3_3  and  N1_4 
REMARK       I    between atoms: N1_4  and  C4_6 
REMARK       I    between atoms: C4_6  and  N4_14 
REMARK    3  A    between atoms: N2_7  and  C5_9 
REMARK    4  A    between atoms: N4_14  and  C7_16 
REMARK    5  A    between atoms: C7_16  and  C8_17 
REMARK    6  A    between atoms: C8_17  and  N5_18 
ROOT
HETATM    1  N1  UNL     1       2.822  -0.114  -0.594  1.00  0.00    -0.226 N 
ATOM      2  H1  UNL     1       3.588  -0.671  -0.973  1.00  0.00     0.177 HD
HETATM    3  C4  UNL     1       1.492  -0.264  -1.135  1.00  0.00     0.675 C 
HETATM    4  N2  UNL     1       1.095  -1.422  -1.540  1.00  0.00    -0.182 N 
ATOM      5  H2  UNL     1       0.150  -1.493  -1.916  1.00  0.00     0.185 HD
HETATM    6  N4  UNL     1       0.701   0.907  -1.187  1.00  0.00    -0.225 N 
ATOM      7  H4  UNL     1       1.007   1.645  -1.821  1.00  0.00     0.177 HD
ENDROOT
BRANCH   1   8
HETATM    8  C3  UNL     1       3.077   0.820   0.481  1.00  0.00     0.137 C 
BRANCH   8   9
HETATM    9  C2  UNL     1       4.553   0.771   0.828  1.00  0.00     0.016 C 
HETATM   10  C1  UNL     1       4.813   1.736   1.936  1.00  0.00     0.006 C 
ENDBRANCH   8   9
ENDBRANCH   1   8
BRANCH   4  11
HETATM   11  C5  UNL     1       1.867  -2.589  -1.501  1.00  0.00     0.087 C 
HETATM   12  C6  UNL     1       2.140  -3.318  -0.213  1.00  0.00     0.089 C 
HETATM   13  N3  UNL     1       2.382  -3.097  -2.569  1.00  0.00    -0.389 N 
ATOM     14  H32 UNL     1       2.197  -2.603  -3.442  1.00  0.00     0.157 HD
ATOM     15  H31 UNL     1       2.945  -3.947  -2.541  1.00  0.00     0.157 HD
ENDBRANCH   4  11
BRANCH   6  16
HETATM   16  C7  UNL     1      -0.500   1.153  -0.425  1.00  0.00     0.157 C 
BRANCH  16  17
HETATM   17  C8  UNL     1      -1.585   0.250  -0.905  1.00  0.00     0.137 C 
BRANCH  17  18
HETATM   18  N5  UNL     1      -2.831   0.391  -0.247  1.00  0.00    -0.408 N 
HETATM   19  C9  UNL     1      -3.554   1.599  -0.455  1.00  0.00     0.144 C 
HETATM   20  C10 UNL     1      -4.830   1.535   0.392  1.00  0.00     0.251 C 
HETATM   21  N6  UNL     1      -4.526   0.718   1.544  1.00  0.00    -0.072 N 
HETATM   22  C11 UNL     1      -4.359  -0.687   1.213  1.00  0.00     0.251 C 
ATOM     23  H62 UNL     1      -3.709   1.076   2.039  1.00  0.00     0.277 HD
ATOM     24  H61 UNL     1      -5.229   0.840   2.273  1.00  0.00     0.277 HD
HETATM   25  C12 UNL     1      -3.647  -0.776  -0.143  1.00  0.00     0.144 C 
ENDBRANCH  17  18
ENDBRANCH  16  17
ENDBRANCH   6  16
TORSDOF 6
