REMARK  13 active torsions:
REMARK  status: ('A' for Active; 'I' for Inactive)
REMARK    1  A    between atoms: N1_1  and  C1_4 
REMARK    2  A    between atoms: C2_7  and  N3_8 
REMARK    3  A    between atoms: C3_14  and  N6_15 
REMARK    4  A    between atoms: N6_15  and  C4_17 
REMARK    5  A    between atoms: C4_17  and  C5_18 
REMARK    6  A    between atoms: C5_18  and  O1_19 
REMARK    7  A    between atoms: O1_19  and  N7_20 
REMARK    8  A    between atoms: C6_23  and  C7_24 
REMARK    9  A    between atoms: C7_24  and  C8_25 
REMARK   10  A    between atoms: C8_25  and  N8_26 
REMARK   11  A    between atoms: N8_26  and  C9_28 
REMARK   12  A    between atoms: C9_28  and  C10_29 
REMARK   13  A    between atoms: C10_29  and  O2_30 
ROOT
HETATM    1  C1  UNL     1       1.816   3.678  -0.847  1.00  0.00     0.692 A 
HETATM    2  N2  UNL     1       0.844   4.494  -0.358  1.00  0.00    -0.021 N 
ATOM      3  H2  UNL     1       1.012   5.493  -0.235  1.00  0.00     0.203 HD
HETATM    4  C2  UNL     1      -0.347   3.948  -0.040  1.00  0.00     0.713 A 
HETATM    5  N4  UNL     1      -0.561   2.632  -0.204  1.00  0.00    -0.067 N 
HETATM    6  N5  UNL     1      -1.621   1.875   0.042  1.00  0.00    -0.262 N 
ATOM      7  H5  UNL     1      -2.506   2.215   0.418  1.00  0.00     0.190 HD
HETATM    8  C3  UNL     1      -1.360   0.590  -0.276  1.00  0.00     0.127 A 
HETATM    9  C6  UNL     1      -0.080   0.534  -0.739  1.00  0.00     0.035 A 
HETATM   10  C11 UNL     1       0.416   1.835  -0.689  1.00  0.00     0.171 A 
HETATM   11  N9  UNL     1       1.619   2.361  -1.016  1.00  0.00    -0.173 N 
ATOM     12  H9  UNL     1       2.363   1.768  -1.384  1.00  0.00     0.186 HD
ENDROOT
BRANCH   8  13
HETATM   13  N6  UNL     1      -2.258  -0.514  -0.186  1.00  0.00    -0.373 N 
ATOM     14  H6  UNL     1      -1.954  -1.444  -0.474  1.00  0.00     0.161 HD
BRANCH  13  15
HETATM   15  C4  UNL     1      -3.599  -0.314   0.313  1.00  0.00     0.150 C 
BRANCH  15  16
HETATM   16  C5  UNL     1      -4.340  -1.630   0.139  1.00  0.00     0.220 C 
BRANCH  16  17
HETATM   17  O1  UNL     1      -5.622  -1.464   0.617  1.00  0.00    -0.286 OA
BRANCH  17  18
HETATM   18  N7  UNL     1      -6.318  -2.620   0.472  1.00  0.00    -0.311 N 
ATOM     19  H72 UNL     1      -5.936  -3.475   0.068  1.00  0.00     0.184 HD
ATOM     20  H71 UNL     1      -7.267  -2.497   0.826  1.00  0.00     0.184 HD
ENDBRANCH  17  18
ENDBRANCH  16  17
ENDBRANCH  15  16
ENDBRANCH  13  15
ENDBRANCH   8  13
BRANCH   9  21
HETATM   21  C7  UNL     1       0.746  -0.612  -1.158  1.00  0.00     0.065 C 
BRANCH  21  22
HETATM   22  C8  UNL     1       1.456  -1.212   0.071  1.00  0.00     0.118 C 
BRANCH  22  23
HETATM   23  N8  UNL     1       2.205  -2.313  -0.398  1.00  0.00    -0.419 N 
ATOM     24  H8  UNL     1       2.027  -2.723  -1.315  1.00  0.00     0.153 HD
BRANCH  23  25
HETATM   25  C9  UNL     1       3.218  -2.829   0.457  1.00  0.00     0.139 C 
BRANCH  25  26
HETATM   26  C10 UNL     1       4.403  -1.867   0.541  1.00  0.00     0.183 C 
BRANCH  26  27
HETATM   27  O2  UNL     1       5.371  -2.399   1.376  1.00  0.00    -0.399 OA
ATOM     28  H2  UNL     1       6.107  -1.801   1.428  1.00  0.00     0.209 HD
ENDBRANCH  26  27
ENDBRANCH  25  26
ENDBRANCH  23  25
ENDBRANCH  22  23
ENDBRANCH  21  22
ENDBRANCH   9  21
BRANCH   4  29
HETATM   29  N3  UNL     1      -1.260   4.753   0.433  1.00  0.00    -0.232 N 
ATOM     30  H32 UNL     1      -1.098   5.752   0.558  1.00  0.00     0.174 HD
ATOM     31  H31 UNL     1      -2.161   4.340   0.674  1.00  0.00     0.174 HD
ENDBRANCH   4  29
BRANCH   1  32
HETATM   32  N1  UNL     1       2.971   4.145  -1.162  1.00  0.00    -0.234 N 
ATOM     33  H12 UNL     1       3.121   5.146  -1.034  1.00  0.00     0.174 HD
ATOM     34  H11 UNL     1       3.700   3.533  -1.529  1.00  0.00     0.174 HD
ENDBRANCH   1  32
TORSDOF 13
