REMARK  4 active torsions:
REMARK  status: ('A' for Active; 'I' for Inactive)
REMARK    1  A    between atoms: C1_2  and  C2_3 
REMARK       I    between atoms: C1_2  and  N1_11 
REMARK    2  A    between atoms: C2_3  and  O2_4 
REMARK    3  A    between atoms: O2_4  and  C3_5 
REMARK    4  A    between atoms: N1_11  and  C7_13 
ROOT
HETATM    1  O1  UNL     1       1.031   3.024   0.093  1.00  0.00    -0.271 OA
HETATM    2  C1  UNL     1       1.400   1.838   0.210  1.00  0.00     0.242 C 
HETATM    3  N1  UNL     1       0.446   0.807   0.206  1.00  0.00    -0.354 N 
ATOM      4  H1  UNL     1       0.781  -0.151   0.304  1.00  0.00     0.162 HD
ENDROOT
BRANCH   3   5
HETATM    5  C7  UNL     1      -0.976   1.012   0.072  1.00  0.00     0.089 C 
HETATM    6  C8  UNL     1      -1.738   0.427   1.236  1.00  0.00     0.030 C 
HETATM    7  C9  UNL     1      -3.141   0.159   0.783  1.00  0.00    -0.012 C 
HETATM    8  C10 UNL     1      -3.360  -1.257   0.338  1.00  0.00     0.009 C 
HETATM    9  C14 UNL     1      -3.577   1.102  -0.309  1.00  0.00     0.010 C 
HETATM   10  C11 UNL     1      -2.814  -1.533  -1.037  1.00  0.00    -0.013 C 
HETATM   11  C12 UNL     1      -3.412  -0.581  -2.064  1.00  0.00     0.010 C 
HETATM   12  C16 UNL     1      -1.356  -1.112  -1.068  1.00  0.00     0.011 C 
HETATM   13  C13 UNL     1      -2.824   0.747  -1.589  1.00  0.00    -0.008 C 
HETATM   14  C15 UNL     1      -1.414   0.377  -1.230  1.00  0.00     0.013 C 
ENDBRANCH   3   5
BRANCH   2  15
HETATM   15  C2  UNL     1       2.835   1.532   0.352  1.00  0.00     0.279 C 
BRANCH  15  16
HETATM   16  O2  UNL     1       3.022   0.159   0.467  1.00  0.00    -0.335 OA
BRANCH  16  17
HETATM   17  C3  UNL     1       4.258  -0.458   0.615  1.00  0.00     0.111 A 
HETATM   18  C4  UNL     1       5.525   0.046   0.684  1.00  0.00     0.046 A 
HETATM   19  C5  UNL     1       6.532  -0.830   0.831  1.00  0.00     0.030 A 
HETATM   20  C6  UNL     1       6.205  -2.157   0.900  1.00  0.00     0.054 A 
HETATM   21 BR1  UNL     1       7.389  -3.663   1.109  1.00  0.00    -0.043 Br
HETATM   22  S1  UNL     1       4.504  -2.136   0.757  1.00  0.00    -0.058 SA
ENDBRANCH  16  17
ENDBRANCH  15  16
ENDBRANCH   2  15
TORSDOF 4
