REMARK  6 active torsions:
REMARK  status: ('A' for Active; 'I' for Inactive)
REMARK    1  A    between atoms: C2_2  and  C3_3 
REMARK    2  A    between atoms: C3_3  and  O1_4 
REMARK    3  A    between atoms: O1_4  and  C4_5 
REMARK    4  A    between atoms: C7_8  and  O2_9 
REMARK    5  A    between atoms: C14_19  and  C15_20 
REMARK    6  A    between atoms: C15_20  and  C18_23 
ROOT
HETATM    1  C4  UNL     1       2.115  -0.313  -0.299  1.00  0.00     0.084 A 
HETATM    2  C5  UNL     1       3.079  -0.123  -1.252  1.00  0.00     0.040 A 
HETATM    3  C6  UNL     1       2.715   0.253  -2.517  1.00  0.00     0.040 A 
HETATM    4  C7  UNL     1       1.367   0.442  -2.844  1.00  0.00     0.077 A 
HETATM    5  C8  UNL     1       0.371   0.257  -1.910  1.00  0.00     0.026 A 
HETATM    6  C9  UNL     1       0.764  -0.117  -0.655  1.00  0.00     0.062 A 
HETATM    7  C10 UNL     1      -0.461  -0.241   0.123  1.00  0.00     0.198 A 
HETATM    8  O3  UNL     1      -0.462  -0.576   1.325  1.00  0.00    -0.286 OA
HETATM    9  C11 UNL     1      -1.614   0.084  -0.748  1.00  0.00     0.041 A 
HETATM   10  C12 UNL     1      -1.125   0.380  -1.958  1.00  0.00    -0.000 A 
HETATM   11  C13 UNL     1      -2.042   0.698  -2.938  1.00  0.00     0.063 A 
HETATM   12  S1  UNL     1      -3.537   0.568  -2.122  1.00  0.00    -0.103 SA
HETATM   13  C14 UNL     1      -2.976   0.122  -0.579  1.00  0.00     0.014 A 
ENDROOT
BRANCH  13  14
HETATM   14  C15 UNL     1      -3.816  -0.093   0.645  1.00  0.00     0.085 C 
HETATM   15  C16 UNL     1      -3.609  -1.416   1.294  1.00  0.00     0.030 C 
HETATM   16  C17 UNL     1      -5.282  -0.220   0.060  1.00  0.00     0.030 C 
BRANCH  14  17
HETATM   17  C18 UNL     1      -3.930   1.073   1.547  1.00  0.00     0.399 C 
HETATM   18  F1  UNL     1      -4.517   2.110   0.787  1.00  0.00    -0.170 F 
HETATM   19  F2  UNL     1      -4.922   0.773   2.490  1.00  0.00    -0.170 F 
HETATM   20  F3  UNL     1      -2.821   1.550   2.141  1.00  0.00    -0.170 F 
ENDBRANCH  14  17
ENDBRANCH  13  14
BRANCH   1  21
HETATM   21  O1  UNL     1       2.388  -0.687   0.969  1.00  0.00    -0.350 OA
BRANCH  21  22
HETATM   22  C3  UNL     1       3.633  -0.894   1.526  1.00  0.00     0.175 C 
BRANCH  22  23
HETATM   23  C2  UNL     1       4.451   0.362   1.626  1.00  0.00     0.022 C 
HETATM   24  C1  UNL     1       5.828   0.076   2.222  1.00  0.00     0.007 C 
ENDBRANCH  22  23
ENDBRANCH  21  22
ENDBRANCH   1  21
BRANCH   4  25
HETATM   25  O2  UNL     1       1.075   0.819  -4.132  1.00  0.00    -0.360 OA
ATOM     26  H2  UNL     1       0.160   0.947  -4.354  1.00  0.00     0.217 HD
ENDBRANCH   4  25
TORSDOF 6
