REMARK  5 active torsions:
REMARK  status: ('A' for Active; 'I' for Inactive)
REMARK    1  A    between atoms: C2_2  and  C3_3 
REMARK    2  A    between atoms: C3_3  and  C4_4 
REMARK    3  A    between atoms: C4_4  and  C5_5 
REMARK    4  A    between atoms: C8_8  and  O1_9 
REMARK    5  A    between atoms: C18_22  and  O3_23 
ROOT
HETATM    1  C5  UNL     1      -0.151  -0.088   0.067  1.00  0.00    -0.020 C 
HETATM    2  C6  UNL     1      -0.714   0.165   1.431  1.00  0.00     0.014 C 
HETATM    3  C7  UNL     1      -2.194   0.048   1.520  1.00  0.00     0.033 C 
HETATM    4  C8  UNL     1      -2.846  -1.071   0.832  1.00  0.00     0.126 C 
HETATM    5  C9  UNL     1      -2.071  -1.774  -0.226  1.00  0.00    -0.017 C 
HETATM    6  C10 UNL     1      -2.258  -3.282   0.101  1.00  0.00     0.018 C 
HETATM    7  C11 UNL     1      -2.671  -1.687  -1.615  1.00  0.00     0.018 C 
HETATM    8  C12 UNL     1      -0.608  -1.529  -0.248  1.00  0.00     0.009 C 
HETATM    9  C13 UNL     1       0.061  -2.511   0.658  1.00  0.00     0.035 C 
HETATM   10  C14 UNL     1       1.522  -2.389   0.697  1.00  0.00    -0.000 C 
HETATM   11  C15 UNL     1       2.063  -1.277   0.384  1.00  0.00     0.022 C 
HETATM   12  N1  UNL     1       3.444  -0.895   0.340  1.00  0.00    -0.323 N 
HETATM   13  C16 UNL     1       4.614  -1.748   0.311  1.00  0.00     0.159 C 
HETATM   14  C17 UNL     1       3.487   0.545   0.327  1.00  0.00     0.254 C 
HETATM   15  O2  UNL     1       4.413   1.291  -0.003  1.00  0.00    -0.270 OA
HETATM   16  C18 UNL     1       2.083   0.905   0.832  1.00  0.00     0.228 C 
HETATM   17  C20 UNL     1       1.310  -0.067  -0.021  1.00  0.00     0.041 C 
HETATM   18  C21 UNL     1       1.817   0.197  -1.446  1.00  0.00     0.026 C 
ENDROOT
BRANCH   1  19
HETATM   19  C4  UNL     1      -0.760   0.840  -0.929  1.00  0.00     0.011 C 
BRANCH  19  20
HETATM   20  C3  UNL     1      -0.611   2.297  -0.739  1.00  0.00     0.000 C 
BRANCH  20  21
HETATM   21  C2  UNL     1      -1.351   3.028  -1.890  1.00  0.00    -0.005 C 
HETATM   22  C1  UNL     1      -1.232   4.507  -1.747  1.00  0.00     0.005 C 
ENDBRANCH  20  21
ENDBRANCH  19  20
ENDBRANCH   1  19
BRANCH  16  23
HETATM   23  O3  UNL     1       2.195   0.545   2.168  1.00  0.00    -0.380 OA
HETATM   24  C19 UNL     1       2.261   1.591   3.056  1.00  0.00     0.202 C 
ENDBRANCH  16  23
BRANCH   4  25
HETATM   25  O1  UNL     1      -4.092  -0.672   0.275  1.00  0.00    -0.395 OA
ATOM     26  H1  UNL     1      -4.514  -1.397  -0.171  1.00  0.00     0.210 HD
ENDBRANCH   4  25
TORSDOF 5
