REMARK  4 active torsions:
REMARK  status: ('A' for Active; 'I' for Inactive)
REMARK    1  A    between atoms: C2_2  and  C3_3 
REMARK    2  A    between atoms: C2_2  and  N1_6 
REMARK    3  A    between atoms: C3_3  and  C4_4 
REMARK       I    between atoms: N1_6  and  C5_8 
REMARK    4  A    between atoms: C5_8  and  C6_10 
ROOT
HETATM    1  N1  UNL     1       1.366   0.048  -0.239  1.00  0.00    -0.331 N 
ATOM      2  H1  UNL     1       1.132   0.479  -1.134  1.00  0.00     0.168 HD
HETATM    3  C5  UNL     1       0.388   0.103   0.749  1.00  0.00     0.226 C 
HETATM    4  O1  UNL     1       0.517  -0.376   1.893  1.00  0.00    -0.273 OA
ENDROOT
BRANCH   3   5
HETATM    5  C6  UNL     1      -0.902   0.782   0.409  1.00  0.00     0.082 C 
HETATM    6  C7  UNL     1      -1.863   0.759   1.585  1.00  0.00     0.019 C 
HETATM    7  C8  UNL     1      -3.188   0.275   1.047  1.00  0.00    -0.013 C 
HETATM    8  C9  UNL     1      -3.109  -1.212   0.893  1.00  0.00     0.005 C 
HETATM    9  C12 UNL     1      -3.059   0.700  -0.427  1.00  0.00     0.010 C 
HETATM   10  C10 UNL     1      -2.024  -1.371  -0.166  1.00  0.00     0.006 C 
HETATM   11  C11 UNL     1      -1.685   0.029  -0.634  1.00  0.00    -0.001 C 
ENDBRANCH   3   5
BRANCH   1  12
HETATM   12  C2  UNL     1       2.645  -0.538  -0.139  1.00  0.00     0.005 C 
HETATM   13  C1  UNL     1       3.156  -1.142   0.902  1.00  0.00     0.038 C 
BRANCH  12  14
HETATM   14  C3  UNL     1       3.567  -0.485  -1.353  1.00  0.00     0.087 C 
BRANCH  14  15
HETATM   15  C4  UNL     1       3.792   0.972  -1.676  1.00  0.00     0.228 C 
HETATM   16  F1  UNL     1       4.614   1.093  -2.761  1.00  0.00    -0.255 F 
ENDBRANCH  14  15
ENDBRANCH  12  14
ENDBRANCH   1  12
TORSDOF 4
