REMARK  4 active torsions:
REMARK  status: ('A' for Active; 'I' for Inactive)
REMARK    1  A    between atoms: C3_4  and  C4_5 
REMARK    2  A    between atoms: C4_5  and  C5_6 
REMARK    3  A    between atoms: N2_11  and  C7_12 
REMARK    4  A    between atoms: C7_12  and  C8_13 
ROOT
HETATM    1  F1  UNL     1       0.984   3.521  -1.090  1.00  0.00    -0.248 F 
HETATM    2  C1  UNL     1       0.266   2.354  -1.176  1.00  0.00     0.200 C 
HETATM    3  C2  UNL     1       1.157   1.140  -1.407  1.00  0.00     0.075 C 
HETATM    4  C3  UNL     1       0.475   0.039  -0.663  1.00  0.00     0.228 C 
HETATM    5  N2  UNL     1      -0.429   0.613   0.283  1.00  0.00     0.096 N 
HETATM    6  C11 UNL     1      -0.306   2.062   0.180  1.00  0.00     0.309 C 
ENDROOT
BRANCH   4   7
HETATM    7  C4  UNL     1       1.470  -0.909  -0.049  1.00  0.00     0.070 C 
BRANCH   7   8
HETATM    8  C5  UNL     1       2.398  -0.273   0.921  1.00  0.00     0.213 A 
HETATM    9  C6  UNL     1       3.418  -1.060   1.610  1.00  0.00     0.265 A 
HETATM   10  N1  UNL     1       3.805  -0.241   0.499  1.00  0.00    -0.067 N 
ATOM     11  H12 UNL     1       4.295  -0.408  -0.380  1.00  0.00     0.277 HD
ATOM     12  H11 UNL     1       4.495   0.496   0.356  1.00  0.00     0.277 HD
ENDBRANCH   7   8
ENDBRANCH   4   7
BRANCH   5  13
HETATM   13  C7  UNL     1      -1.817   0.319  -0.072  1.00  0.00     0.277 C 
BRANCH  13  14
HETATM   14  C8  UNL     1      -2.149  -1.127   0.070  1.00  0.00     0.014 A 
HETATM   15  C9  UNL     1      -3.604  -1.447  -0.298  1.00  0.00     0.007 A 
HETATM   16  C10 UNL     1      -3.142  -1.563   1.120  1.00  0.00     0.007 A 
ENDBRANCH  13  14
ENDBRANCH   5  13
TORSDOF 4
