REMARK  6 active torsions:
REMARK  status: ('A' for Active; 'I' for Inactive)
REMARK    1  A    between atoms: C2_2  and  N1_3 
REMARK    2  A    between atoms: N1_3  and  C3_5 
REMARK    3  A    between atoms: C5_10  and  N4_11 
REMARK    4  A    between atoms: N4_11  and  N5_13 
REMARK    5  A    between atoms: N6_16  and  N7_17 
REMARK       I    between atoms: N7_17  and  C6_19 
REMARK    6  A    between atoms: C6_19  and  C7_21 
ROOT
HETATM    1  C3  UNL     1       0.606   0.035   0.365  1.00  0.00     0.735 A 
HETATM    2  N2  UNL     1       1.086   1.266   0.524  1.00  0.00    -0.112 N 
HETATM    3  C4  UNL     1       2.447   1.666   0.912  1.00  0.00     0.198 C 
HETATM    4  N3  UNL     1       0.101   2.098   0.266  1.00  0.00    -0.112 N 
ATOM      5  H3  UNL     1       0.175   3.114   0.307  1.00  0.00     0.206 HD
HETATM    6  C5  UNL     1      -1.016   1.427  -0.059  1.00  0.00     0.748 A 
HETATM    7  N6  UNL     1      -0.746   0.137  -0.010  1.00  0.00     0.097 N 
ENDROOT
BRANCH   7   8
HETATM    8  N7  UNL     1      -1.508  -0.988  -0.244  1.00  0.00    -0.224 N 
HETATM    9  C6  UNL     1      -2.847  -1.111  -0.620  1.00  0.00     0.338 C 
HETATM   10  O1  UNL     1      -3.670  -0.212  -0.832  1.00  0.00    -0.259 OA
ATOM     11  H7  UNL     1      -1.014  -1.872  -0.123  1.00  0.00     0.192 HD
BRANCH   9  12
HETATM   12  C7  UNL     1      -3.400  -2.489  -0.802  1.00  0.00     0.271 C 
HETATM   13  O2  UNL     1      -2.673  -3.488  -0.619  1.00  0.00    -0.640 OA
HETATM   14  O3  UNL     1      -4.717  -2.677  -1.173  1.00  0.00    -0.640 OA
ENDBRANCH   9  12
ENDBRANCH   7   8
BRANCH   1  15
HETATM   15  N1  UNL     1       1.214  -1.056   0.512  1.00  0.00    -0.202 N 
ATOM     16  H1  UNL     1       0.596  -1.845   0.324  1.00  0.00     0.183 HD
BRANCH  15  17
HETATM   17  C2  UNL     1       2.475  -1.491   0.854  1.00  0.00     0.074 C 
HETATM   18  C1  UNL     1       3.379  -1.838  -0.323  1.00  0.00     0.055 C 
ENDBRANCH  15  17
ENDBRANCH   1  15
BRANCH   6  19
HETATM   19  N4  UNL     1      -2.155   1.984  -0.366  1.00  0.00    -0.135 N 
ATOM     20  H4  UNL     1      -2.949   1.388  -0.600  1.00  0.00     0.205 HD
BRANCH  19  21
HETATM   21  N5  UNL     1      -2.321   3.365  -0.384  1.00  0.00    -0.331 N 
ATOM     22  H52 UNL     1      -1.517   3.946  -0.147  1.00  0.00     0.177 HD
ATOM     23  H51 UNL     1      -3.212   3.801  -0.624  1.00  0.00     0.177 HD
ENDBRANCH  19  21
ENDBRANCH   6  19
TORSDOF 6
