REMARK  4 active torsions:
REMARK  status: ('A' for Active; 'I' for Inactive)
REMARK    1  A    between atoms: O1_1  and  C1_3 
REMARK    2  A    between atoms: C4_6  and  N1_7 
REMARK    3  A    between atoms: N1_7  and  C5_9 
REMARK    4  A    between atoms: C15_20  and  C16_21 
ROOT
HETATM    1  N1  UNL     1       1.477  -0.077  -0.567  1.00  0.00    -0.385 N 
ATOM      2  H1  UNL     1       1.395  -0.326  -1.553  1.00  0.00     0.160 HD
ENDROOT
BRANCH   1   3
HETATM    3  C4  UNL     1       2.789   0.071  -0.054  1.00  0.00     0.043 A 
HETATM    4  C3  UNL     1       2.989   0.351   1.276  1.00  0.00     0.033 A 
HETATM    5  C2  UNL     1       4.246   0.494   1.805  1.00  0.00     0.039 A 
HETATM    6  C1  UNL     1       5.347   0.355   0.990  1.00  0.00     0.066 A 
HETATM    7  C17 UNL     1       5.127   0.075  -0.335  1.00  0.00     0.055 A 
HETATM    8  C15 UNL     1       3.864  -0.074  -0.894  1.00  0.00     0.076 A 
BRANCH   6   9
HETATM    9  O1  UNL     1       6.638   0.498   1.514  1.00  0.00    -0.361 OA
ATOM     10  H1  UNL     1       7.398   0.402   0.952  1.00  0.00     0.217 HD
ENDBRANCH   6   9
BRANCH   8  11
HETATM   11  C16 UNL     1       3.743  -0.380  -2.344  1.00  0.00     0.419 C 
HETATM   12  F1  UNL     1       5.046  -0.447  -2.862  1.00  0.00    -0.166 F 
HETATM   13  F2  UNL     1       3.200  -1.609  -2.614  1.00  0.00    -0.166 F 
HETATM   14  F3  UNL     1       3.111   0.569  -3.078  1.00  0.00    -0.166 F 
ENDBRANCH   8  11
ENDBRANCH   1   3
BRANCH   1  15
HETATM   15  C5  UNL     1       0.249   0.089   0.162  1.00  0.00     0.084 C 
HETATM   16  C6  UNL     1      -0.033   1.464   0.663  1.00  0.00     0.035 C 
HETATM   17  C7  UNL     1      -0.853   1.349   1.935  1.00  0.00     0.076 C 
HETATM   18  S1  UNL     1      -2.338   0.423   1.559  1.00  0.00    -0.159 SA
HETATM   19  C8  UNL     1      -2.232  -0.358  -0.041  1.00  0.00     0.010 C 
HETATM   20  C9  UNL     1      -3.122   0.424  -1.017  1.00  0.00     0.020 C 
HETATM   21  C13 UNL     1      -2.901  -1.735   0.079  1.00  0.00     0.020 C 
HETATM   22  C14 UNL     1      -0.879  -0.503  -0.600  1.00  0.00     0.045 C 
HETATM   23  C10 UNL     1      -4.345   0.831  -0.249  1.00  0.00     0.002 C 
HETATM   24  C11 UNL     1      -5.032  -0.413   0.236  1.00  0.00     0.000 C 
HETATM   25  C12 UNL     1      -4.362  -1.676  -0.218  1.00  0.00     0.002 C 
ENDBRANCH   1  15
TORSDOF 4
