REMARK  11 active torsions:
REMARK  status: ('A' for Active; 'I' for Inactive)
REMARK    1  A    between atoms: C2_2  and  C3_3 
REMARK    2  A    between atoms: C3_3  and  C4_4 
REMARK    3  A    between atoms: C4_4  and  N1_5 
REMARK    4  A    between atoms: N1_5  and  C5_6 
REMARK    5  A    between atoms: N1_5  and  C7_10 
REMARK    6  A    between atoms: C5_6  and  C6_7 
REMARK    7  A    between atoms: C6_7  and  O1_8 
REMARK    8  A    between atoms: C7_10  and  C8_11 
REMARK    9  A    between atoms: C8_11  and  O2_12 
REMARK   10  A    between atoms: C9_14  and  O3_15 
REMARK   11  A    between atoms: C14_21  and  C15_22 
ROOT
HETATM    1  C8  UNL     1       0.914   0.329   0.089  1.00  0.00     0.107 C 
HETATM    2  C9  UNL     1       0.984  -0.906  -0.694  1.00  0.00     0.155 C 
HETATM    3  C10 UNL     1      -0.435  -1.210  -1.241  1.00  0.00     0.041 C 
HETATM    4  C11 UNL     1      -1.247  -0.141  -0.706  1.00  0.00     0.004 C 
HETATM    5  C12 UNL     1      -2.677  -0.283  -0.443  1.00  0.00    -0.001 C 
HETATM    6  C13 UNL     1      -3.528   0.183  -1.626  1.00  0.00     0.019 C 
HETATM    7  C14 UNL     1      -4.796   0.844  -1.098  1.00  0.00     0.075 C 
HETATM    8  C16 UNL     1      -5.100   0.201   0.243  1.00  0.00     0.014 C 
HETATM    9  C17 UNL     1      -4.754  -1.256   0.271  1.00  0.00     0.010 C 
HETATM   10  C18 UNL     1      -3.244  -1.518   0.106  1.00  0.00    -0.040 C 
HETATM   11  C19 UNL     1      -3.180  -2.721  -0.834  1.00  0.00     0.015 C 
HETATM   12  C20 UNL     1      -2.760  -1.890   1.464  1.00  0.00     0.009 C 
HETATM   13  C21 UNL     1      -1.341  -1.615   1.801  1.00  0.00     0.002 C 
HETATM   14  C22 UNL     1      -0.930  -0.174   1.782  1.00  0.00     0.012 C 
HETATM   15  C23 UNL     1      -0.544   0.437   0.521  1.00  0.00    -0.005 C 
HETATM   16  C24 UNL     1      -0.829   1.931   0.631  1.00  0.00     0.019 C 
ENDROOT
BRANCH   1  17
HETATM   17  C7  UNL     1       1.843   0.616   1.180  1.00  0.00     0.168 C 
BRANCH  17  18
HETATM   18  N1  UNL     1       3.234   0.800   0.954  1.00  0.00    -0.369 N 
BRANCH  18  19
HETATM   19  C4  UNL     1       4.051  -0.271   0.657  1.00  0.00     0.063 C 
BRANCH  19  20
HETATM   20  C3  UNL     1       5.067  -0.144  -0.431  1.00  0.00     0.044 C 
BRANCH  20  21
HETATM   21  C2  UNL     1       5.825  -1.486  -0.540  1.00  0.00     0.001 C 
HETATM   22  C1  UNL     1       4.902  -2.601  -0.870  1.00  0.00     0.005 C 
ENDBRANCH  20  21
ENDBRANCH  19  20
ENDBRANCH  18  19
BRANCH  18  23
HETATM   23  C5  UNL     1       3.794   1.933   1.555  1.00  0.00     0.089 C 
BRANCH  23  24
HETATM   24  C6  UNL     1       4.682   2.850   0.821  1.00  0.00     0.208 C 
BRANCH  24  25
HETATM   25  O1  UNL     1       4.102   3.426  -0.309  1.00  0.00    -0.396 OA
ATOM     26  H1  UNL     1       4.675   4.018  -0.783  1.00  0.00     0.209 HD
ENDBRANCH  24  25
ENDBRANCH  23  24
ENDBRANCH  18  23
ENDBRANCH  17  18
ENDBRANCH   1  17
BRANCH   1  27
HETATM   27  O2  UNL     1       1.035   1.409  -0.849  1.00  0.00    -0.385 OA
ATOM     28  H2  UNL     1       0.431   1.222  -1.558  1.00  0.00     0.210 HD
ENDBRANCH   1  27
BRANCH   2  29
HETATM   29  O3  UNL     1       1.859  -0.781  -1.793  1.00  0.00    -0.392 OA
ATOM     30  H3  UNL     1       1.904  -1.582  -2.301  1.00  0.00     0.210 HD
ENDBRANCH   2  29
BRANCH   7  31
HETATM   31  C15 UNL     1      -4.617   2.299  -0.855  1.00  0.00     0.235 C 
HETATM   32  N2  UNL     1      -4.303   3.222  -1.877  1.00  0.00    -0.062 NA
HETATM   33  O4  UNL     1      -4.739   2.805   0.315  1.00  0.00    -0.277 OA
ENDBRANCH   7  31
TORSDOF 11
