REMARK  16 active torsions:
REMARK  status: ('A' for Active; 'I' for Inactive)
REMARK    1  A    between atoms: N1_1  and  C1_4 
REMARK    2  A    between atoms: C2_7  and  N3_8 
REMARK    3  A    between atoms: N3_8  and  C3_10 
REMARK    4  A    between atoms: C3_10  and  C4_11 
REMARK    5  A    between atoms: C5_15  and  N5_16 
REMARK    6  A    between atoms: N5_16  and  C6_18 
REMARK    7  A    between atoms: C6_18  and  C7_19 
REMARK    8  A    between atoms: C7_19  and  C8_20 
REMARK       I    between atoms: C8_20  and  N6_22 
REMARK    9  A    between atoms: N6_22  and  C9_24 
REMARK   10  A    between atoms: C9_24  and  C10_25 
REMARK   11  A    between atoms: C10_25  and  C11_26 
REMARK   12  A    between atoms: C11_26  and  C12_27 
REMARK   13  A    between atoms: C12_27  and  C13_28 
REMARK   14  A    between atoms: C13_28  and  C14_29 
REMARK   15  A    between atoms: C14_29  and  C15_30 
REMARK   16  A    between atoms: C15_30  and  N7_31 
ROOT
HETATM    1  N5  UNL     1       4.012  -1.313   0.008  1.00  0.00    -0.225 N 
ATOM      2  H5  UNL     1       3.451  -1.970   0.551  1.00  0.00     0.177 HD
ENDROOT
BRANCH   1   3
HETATM    3  C5  UNL     1       5.227  -1.035   0.344  1.00  0.00     0.707 A 
HETATM    4  N4  UNL     1       5.994  -0.172  -0.349  1.00  0.00    -0.022 N 
HETATM    5  C2  UNL     1       7.261   0.117   0.003  1.00  0.00     0.707 A 
ATOM      6  H4  UNL     1       5.599   0.281  -1.173  1.00  0.00     0.203 HD
HETATM    7  N2  UNL     1       7.815  -0.460   1.085  1.00  0.00    -0.022 N 
HETATM    8  C1  UNL     1       7.061  -1.324   1.787  1.00  0.00     0.705 A 
ATOM      9  H2  UNL     1       8.774  -0.249   1.363  1.00  0.00     0.203 HD
HETATM   10  N10 UNL     1       5.792  -1.609   1.429  1.00  0.00    -0.022 N 
ATOM     11  H10 UNL     1       5.250  -2.269   1.987  1.00  0.00     0.203 HD
BRANCH   5  12
HETATM   12  N3  UNL     1       7.910   0.949  -0.719  1.00  0.00    -0.219 N 
ATOM     13  H3  UNL     1       7.414   1.339  -1.521  1.00  0.00     0.178 HD
BRANCH  12  14
HETATM   14  C3  UNL     1       9.248   1.389  -0.525  1.00  0.00     0.207 C 
BRANCH  14  15
HETATM   15  C4  UNL     1       9.407   2.748  -1.098  1.00  0.00     0.251 C 
HETATM   16  O1  UNL     1      10.462   3.363  -1.067  1.00  0.00    -0.305 OA
ENDBRANCH  14  15
ENDBRANCH  12  14
ENDBRANCH   5  12
BRANCH   8  17
HETATM   17  N1  UNL     1       7.569  -1.902   2.844  1.00  0.00    -0.234 N 
ATOM     18  H12 UNL     1       8.529  -1.687   3.115  1.00  0.00     0.174 HD
ATOM     19  H11 UNL     1       6.997  -2.557   3.377  1.00  0.00     0.174 HD
ENDBRANCH   8  17
ENDBRANCH   1   3
BRANCH   1  20
HETATM   20  C6  UNL     1       3.469  -0.656  -1.174  1.00  0.00     0.147 C 
BRANCH  20  21
HETATM   21  C7  UNL     1       2.029  -1.022  -1.403  1.00  0.00     0.123 C 
BRANCH  21  22
HETATM   22  C8  UNL     1       1.154  -0.649  -0.281  1.00  0.00     0.219 C 
HETATM   23  O2  UNL     1       1.630  -0.087   0.725  1.00  0.00    -0.274 OA
HETATM   24  N6  UNL     1      -0.227  -0.923  -0.337  1.00  0.00    -0.361 N 
ATOM     25  H6  UNL     1      -0.612  -1.382  -1.162  1.00  0.00     0.162 HD
BRANCH  24  26
HETATM   26  C9  UNL     1      -1.116  -0.564   0.760  1.00  0.00     0.122 C 
BRANCH  26  27
HETATM   27  C10 UNL     1      -2.551  -0.953   0.475  1.00  0.00     0.020 C 
BRANCH  27  28
HETATM   28  C11 UNL     1      -3.089  -0.271  -0.758  1.00  0.00     0.002 C 
BRANCH  28  29
HETATM   29  C12 UNL     1      -4.504  -0.681  -1.013  1.00  0.00     0.000 C 
BRANCH  29  30
HETATM   30  C13 UNL     1      -5.438  -0.340   0.106  1.00  0.00     0.002 C 
BRANCH  30  31
HETATM   31  C14 UNL     1      -6.866  -0.771  -0.204  1.00  0.00     0.020 C 
BRANCH  31  32
HETATM   32  C15 UNL     1      -7.697  -0.365   1.009  1.00  0.00     0.122 C 
BRANCH  32  33
HETATM   33  N7  UNL     1      -7.629   1.056   1.218  1.00  0.00    -0.367 N 
HETATM   34  C16 UNL     1      -8.272   1.927   0.516  1.00  0.00     0.196 C 
HETATM   35  N8  UNL     1      -8.103   3.289   0.842  1.00  0.00    -0.067 NA
HETATM   36  N9  UNL     1      -9.130   1.585  -0.553  1.00  0.00    -0.067 NA
ATOM     37  H7  UNL     1      -7.033   1.398   1.971  1.00  0.00     0.161 HD
ENDBRANCH  32  33
ENDBRANCH  31  32
ENDBRANCH  30  31
ENDBRANCH  29  30
ENDBRANCH  28  29
ENDBRANCH  27  28
ENDBRANCH  26  27
ENDBRANCH  24  26
ENDBRANCH  21  22
ENDBRANCH  20  21
ENDBRANCH   1  20
TORSDOF 16
