REMARK  9 active torsions:
REMARK  status: ('A' for Active; 'I' for Inactive)
REMARK       I    between atoms: C1_2  and  N1_3 
REMARK       I    between atoms: C1_2  and  N3_12 
REMARK    1  A    between atoms: N1_3  and  C2_5 
REMARK    2  A    between atoms: N3_12  and  C7_14 
REMARK    3  A    between atoms: N4_17  and  C10_18 
REMARK    4  A    between atoms: C10_18  and  C11_19 
REMARK    5  A    between atoms: C11_19  and  O2_20 
REMARK    6  A    between atoms: C11_19  and  C12_22 
REMARK    7  A    between atoms: C12_22  and  O3_23 
REMARK    8  A    between atoms: C12_22  and  C19_30 
REMARK    9  A    between atoms: O3_23  and  C13_24 
ROOT
HETATM    1  C7  UNL     1       2.304  -0.796  -0.288  1.00  0.00     0.126 C 
HETATM    2  C8  UNL     1       1.928  -0.819  -1.760  1.00  0.00     0.051 C 
HETATM    3  C9  UNL     1       0.902   0.290  -1.863  1.00  0.00     0.129 C 
HETATM    4  N4  UNL     1       0.378   0.503  -0.561  1.00  0.00    -0.369 N 
HETATM    5  C25 UNL     1       1.097  -0.214   0.410  1.00  0.00     0.088 C 
ENDROOT
BRANCH   4   6
HETATM    6  C10 UNL     1      -1.012   0.678  -0.427  1.00  0.00     0.097 C 
BRANCH   6   7
HETATM    7  C11 UNL     1      -1.847  -0.510  -0.720  1.00  0.00     0.190 C 
BRANCH   7   8
HETATM    8  O2  UNL     1      -1.611  -1.621   0.067  1.00  0.00    -0.387 OA
ATOM      9  H2  UNL     1      -2.146  -2.383  -0.121  1.00  0.00     0.210 HD
ENDBRANCH   7   8
BRANCH   7  10
HETATM   10  C12 UNL     1      -3.338  -0.240  -0.652  1.00  0.00     0.195 C 
BRANCH  10  11
HETATM   11  O3  UNL     1      -3.781   0.003   0.624  1.00  0.00    -0.338 OA
BRANCH  11  12
HETATM   12  C13 UNL     1      -4.533  -0.649   1.513  1.00  0.00     0.069 A 
HETATM   13  C14 UNL     1      -4.768  -0.059   2.744  1.00  0.00     0.037 A 
HETATM   14  C15 UNL     1      -5.531  -0.657   3.724  1.00  0.00     0.003 A 
HETATM   15  C16 UNL     1      -6.090  -1.898   3.473  1.00  0.00     0.000 A 
HETATM   16  C17 UNL     1      -5.849  -2.483   2.232  1.00  0.00     0.003 A 
HETATM   17  C18 UNL     1      -5.084  -1.880   1.258  1.00  0.00     0.037 A 
ENDBRANCH  11  12
ENDBRANCH  10  11
BRANCH  10  18
HETATM   18  C19 UNL     1      -3.818   0.674  -1.698  1.00  0.00    -0.026 A 
HETATM   19  C20 UNL     1      -4.243   0.208  -2.926  1.00  0.00     0.010 A 
HETATM   20  C21 UNL     1      -4.703   1.022  -3.933  1.00  0.00     0.001 A 
HETATM   21  C22 UNL     1      -4.751   2.404  -3.724  1.00  0.00     0.000 A 
HETATM   22  C23 UNL     1      -4.338   2.901  -2.520  1.00  0.00     0.001 A 
HETATM   23  C24 UNL     1      -3.886   2.063  -1.537  1.00  0.00     0.010 A 
ENDBRANCH  10  18
ENDBRANCH   7  10
ENDBRANCH   6   7
ENDBRANCH   4   6
BRANCH   1  24
HETATM   24  N3  UNL     1       3.452   0.029  -0.092  1.00  0.00    -0.334 N 
HETATM   25  C1  UNL     1       4.694  -0.506   0.445  1.00  0.00     0.321 C 
HETATM   26  O1  UNL     1       4.690  -1.719   0.720  1.00  0.00    -0.247 OA
HETATM   27  N1  UNL     1       5.759   0.401   0.593  1.00  0.00    -0.308 N 
ATOM     28  H1  UNL     1       5.622   1.372   0.313  1.00  0.00     0.170 HD
ATOM     29  H3  UNL     1       3.401   1.018  -0.334  1.00  0.00     0.165 HD
BRANCH  27  30
HETATM   30  C2  UNL     1       7.013   0.012   1.117  1.00  0.00     0.051 A 
HETATM   31  C3  UNL     1       8.077   0.860   0.833  1.00  0.00     0.032 A 
HETATM   32  C4  UNL     1       9.320   0.568   1.321  1.00  0.00     0.019 A 
HETATM   33  C5  UNL     1       9.506  -0.566   2.090  1.00  0.00     0.088 A 
HETATM   34  N2  UNL     1       8.470  -1.373   2.354  1.00  0.00    -0.373 N 
HETATM   35  C6  UNL     1       7.226  -1.090   1.872  1.00  0.00     0.117 A 
ATOM     36  H2  UNL     1       8.613  -2.208   2.922  1.00  0.00     0.164 HD
ENDBRANCH  27  30
ENDBRANCH   1  24
TORSDOF 9
