REMARK  7 active torsions:
REMARK  status: ('A' for Active; 'I' for Inactive)
REMARK    1  A    between atoms: C7_7  and  O1_8 
REMARK    2  A    between atoms: C10_12  and  O2_13 
REMARK    3  A    between atoms: N1_16  and  C12_17 
REMARK    4  A    between atoms: N2_20  and  C15_21 
REMARK    5  A    between atoms: C15_21  and  C16_22 
REMARK    6  A    between atoms: C16_22  and  C17_23 
REMARK    7  A    between atoms: C17_23  and  N3_24 
ROOT
HETATM    1  C1  UNL     1       3.530   2.135   0.639  1.00  0.00     0.043 C 
HETATM    2  C2  UNL     1       3.274   0.794   1.343  1.00  0.00     0.224 C 
HETATM    3  C3  UNL     1       4.626   0.166   1.658  1.00  0.00     0.074 C 
HETATM    4  C4  UNL     1       5.515   0.128   0.479  1.00  0.00    -0.047 A 
HETATM    5  C5  UNL     1       6.782   0.583   0.779  1.00  0.00     0.010 A 
HETATM    6  C6  UNL     1       7.708   0.595  -0.242  1.00  0.00     0.037 A 
HETATM    7  C7  UNL     1       7.391   0.174  -1.504  1.00  0.00     0.066 A 
HETATM    8  C8  UNL     1       6.125  -0.278  -1.792  1.00  0.00     0.046 A 
HETATM    9  C9  UNL     1       5.165  -0.303  -0.784  1.00  0.00    -0.019 A 
HETATM   10  C10 UNL     1       3.857  -0.814  -1.255  1.00  0.00     0.180 C 
HETATM   11  C11 UNL     1       3.018  -1.149  -0.054  1.00  0.00     0.309 C 
HETATM   12  N1  UNL     1       2.406  -0.028   0.572  1.00  0.00     0.102 N 
ENDROOT
BRANCH  12  13
HETATM   13  C12 UNL     1       1.239  -0.482   1.284  1.00  0.00     0.253 C 
HETATM   14  C13 UNL     1       0.348   0.651   1.732  1.00  0.00     0.068 C 
HETATM   15  C14 UNL     1      -0.955  -0.117   1.993  1.00  0.00     0.274 C 
HETATM   16  N2  UNL     1      -1.056  -1.042   0.927  1.00  0.00     0.090 N 
HETATM   17  C23 UNL     1       0.304  -1.289   0.432  1.00  0.00     0.308 C 
BRANCH  16  18
HETATM   18  C15 UNL     1      -1.859  -0.672  -0.185  1.00  0.00     0.274 C 
BRANCH  18  19
HETATM   19  C16 UNL     1      -3.331  -0.586   0.066  1.00  0.00     0.060 C 
BRANCH  19  20
HETATM   20  C17 UNL     1      -4.029  -0.184  -1.216  1.00  0.00     0.274 C 
BRANCH  20  21
HETATM   21  N3  UNL     1      -5.433  -0.062  -1.127  1.00  0.00     0.088 N 
HETATM   22  C18 UNL     1      -6.192  -1.244  -0.917  1.00  0.00     0.272 C 
HETATM   23  C19 UNL     1      -7.652  -1.081  -1.270  1.00  0.00     0.030 C 
HETATM   24  C20 UNL     1      -7.989   0.400  -1.299  1.00  0.00     0.003 C 
HETATM   25  C21 UNL     1      -7.347   1.109  -0.144  1.00  0.00     0.030 C 
HETATM   26  C22 UNL     1      -5.849   1.021  -0.311  1.00  0.00     0.272 C 
ENDBRANCH  20  21
ENDBRANCH  19  20
ENDBRANCH  18  19
ENDBRANCH  16  18
ENDBRANCH  12  13
BRANCH  10  27
HETATM   27  O2  UNL     1       3.233   0.029  -2.153  1.00  0.00    -0.389 OA
ATOM     28  H2  UNL     1       2.394  -0.299  -2.455  1.00  0.00     0.210 HD
ENDBRANCH  10  27
BRANCH   7  29
HETATM   29  O1  UNL     1       8.371   0.210  -2.492  1.00  0.00    -0.361 OA
ATOM     30  H1  UNL     1       8.151  -0.082  -3.369  1.00  0.00     0.217 HD
ENDBRANCH   7  29
TORSDOF 7
