REMARK  6 active torsions:
REMARK  status: ('A' for Active; 'I' for Inactive)
REMARK    1  A    between atoms: C2_2  and  S1_4 
REMARK    2  A    between atoms: S1_4  and  C4_5 
REMARK    3  A    between atoms: C4_5  and  C5_6 
REMARK    4  A    between atoms: C5_6  and  C6_7 
REMARK    5  A    between atoms: C6_7  and  N1_8 
REMARK    6  A    between atoms: N1_8  and  C7_10 
ROOT
HETATM    1  C7  UNL     1       0.652   0.254   0.781  1.00  0.00    -0.005 C 
HETATM    2  C8  UNL     1       0.854  -1.231   0.497  1.00  0.00     0.057 C 
HETATM    3  C9  UNL     1      -0.606  -1.707   0.341  1.00  0.00    -0.008 C 
HETATM    4  C10 UNL     1      -0.492  -3.010  -0.464  1.00  0.00     0.011 C 
HETATM    5  C11 UNL     1      -1.191  -0.606  -0.433  1.00  0.00     0.008 C 
HETATM    6  C12 UNL     1      -2.644  -0.448  -0.515  1.00  0.00    -0.001 C 
HETATM    7  C13 UNL     1      -3.348  -1.419  -1.445  1.00  0.00     0.006 C 
HETATM    8  C14 UNL     1      -4.637  -0.776  -1.849  1.00  0.00     0.005 C 
HETATM    9  C15 UNL     1      -5.367  -0.030  -0.823  1.00  0.00    -0.010 C 
HETATM   10  C16 UNL     1      -5.393   1.483  -1.081  1.00  0.00     0.005 C 
HETATM   11  C17 UNL     1      -5.025   1.662   0.380  1.00  0.00     0.006 C 
HETATM   12  C18 UNL     1      -4.795   0.192   0.500  1.00  0.00    -0.002 C 
HETATM   13  C19 UNL     1      -3.406  -0.314   0.768  1.00  0.00    -0.036 C 
HETATM   14  C20 UNL     1      -3.573  -1.644   1.505  1.00  0.00     0.016 C 
HETATM   15  C21 UNL     1      -2.592   0.572   1.673  1.00  0.00     0.011 C 
HETATM   16  C22 UNL     1      -1.532   1.373   1.063  1.00  0.00     0.016 C 
HETATM   17  C23 UNL     1      -0.585   0.680   0.110  1.00  0.00    -0.001 C 
HETATM   18  C24 UNL     1      -0.333   1.560  -1.086  1.00  0.00     0.022 C 
ENDROOT
BRANCH   1  19
HETATM   19  N1  UNL     1       1.821   1.004   0.781  1.00  0.00    -0.375 N 
ATOM     20  H1  UNL     1       2.079   1.526   1.618  1.00  0.00     0.164 HD
BRANCH  19  21
HETATM   21  C6  UNL     1       2.653   1.059  -0.344  1.00  0.00     0.061 C 
BRANCH  21  22
HETATM   22  C5  UNL     1       3.883   1.923  -0.082  1.00  0.00     0.054 C 
BRANCH  22  23
HETATM   23  C4  UNL     1       4.718   1.415   1.047  1.00  0.00     0.079 C 
BRANCH  23  24
HETATM   24  S1  UNL     1       5.298  -0.285   0.673  1.00  0.00    -0.165 SA
BRANCH  24  25
HETATM   25  C2  UNL     1       6.442  -0.201  -0.738  1.00  0.00     0.039 C 
HETATM   26  C1  UNL     1       7.705   0.560  -0.336  1.00  0.00     0.021 C 
HETATM   27  C3  UNL     1       6.881  -1.570  -1.172  1.00  0.00     0.021 C 
ENDBRANCH  24  25
ENDBRANCH  23  24
ENDBRANCH  22  23
ENDBRANCH  21  22
ENDBRANCH  19  21
ENDBRANCH   1  19
TORSDOF 6
