REMARK  10 active torsions:
REMARK  status: ('A' for Active; 'I' for Inactive)
REMARK    1  A    between atoms: C3_3  and  C4_4 
REMARK    2  A    between atoms: C3_3  and  C11_18 
REMARK    3  A    between atoms: C4_4  and  O1_5 
REMARK    4  A    between atoms: O1_5  and  N1_6 
REMARK    5  A    between atoms: C5_8  and  C7_10 
REMARK    6  A    between atoms: C10_13  and  N2_14 
REMARK    7  A    between atoms: C11_18  and  O5_20 
REMARK    8  A    between atoms: O5_20  and  C13_21 
REMARK    9  A    between atoms: C13_21  and  O7_23 
REMARK   10  A    between atoms: O7_23  and  C14_24 
ROOT
HETATM    1  C1  UNL     1      -1.221   3.792  -2.350  1.00  0.00     0.012 C 
HETATM    2  C2  UNL     1      -0.915   2.727  -1.870  1.00  0.00    -0.108 C 
HETATM    3  C3  UNL     1      -0.562   1.422  -1.296  1.00  0.00     0.119 C 
ENDROOT
BRANCH   3   4
HETATM    4  C4  UNL     1       0.844   1.573  -0.751  1.00  0.00     0.220 C 
BRANCH   4   5
HETATM    5  O1  UNL     1       1.308   0.378  -0.166  1.00  0.00    -0.279 OA
BRANCH   5   6
HETATM    6  N1  UNL     1       2.566   0.374   0.366  1.00  0.00    -0.269 N 
HETATM    7  C5  UNL     1       3.513  -0.273  -0.170  1.00  0.00     0.062 C 
HETATM    8  C6  UNL     1       3.311  -1.058  -1.398  1.00  0.00     0.073 C 
ATOM      9  H1  UNL     1       2.747   0.906   1.217  1.00  0.00     0.194 HD
BRANCH   7  10
HETATM   10  C7  UNL     1       4.850  -0.231   0.463  1.00  0.00     0.102 A 
HETATM   11  C8  UNL     1       5.180   0.459   1.610  1.00  0.00     0.044 A 
HETATM   12  C9  UNL     1       6.514   0.223   1.836  1.00  0.00     0.066 A 
HETATM   13  C10 UNL     1       6.954  -0.614   0.808  1.00  0.00     0.215 A 
HETATM   14  O4  UNL     1       5.922  -0.835   0.044  1.00  0.00    -0.287 OA
BRANCH  13  15
HETATM   15  N2  UNL     1       8.284  -1.121   0.640  1.00  0.00    -0.090 N 
HETATM   16  O2  UNL     1       8.498  -1.857  -0.339  1.00  0.00    -0.530 OA
HETATM   17  O3  UNL     1       9.263  -0.789   1.541  1.00  0.00    -0.530 OA
ENDBRANCH  13  15
ENDBRANCH   7  10
ENDBRANCH   5   6
ENDBRANCH   4   5
ENDBRANCH   3   4
BRANCH   3  18
HETATM   18  C11 UNL     1      -1.490   1.093  -0.208  1.00  0.00     0.148 C 
HETATM   19  C12 UNL     1      -1.353   2.208   0.850  1.00  0.00     0.041 C 
BRANCH  18  20
HETATM   20  O5  UNL     1      -2.813   0.928  -0.423  1.00  0.00    -0.292 OA
BRANCH  20  21
HETATM   21  C13 UNL     1      -3.529  -0.171  -0.054  1.00  0.00     0.408 C 
HETATM   22  O6  UNL     1      -2.824  -1.027   0.515  1.00  0.00    -0.229 OA
BRANCH  21  23
HETATM   23  O7  UNL     1      -4.859  -0.419  -0.229  1.00  0.00    -0.272 OA
BRANCH  23  24
HETATM   24  C14 UNL     1      -5.403  -1.640   0.237  1.00  0.00     0.153 C 
HETATM   25  C15 UNL     1      -6.891  -1.612  -0.107  1.00  0.00     0.063 C 
HETATM   26  C16 UNL     1      -5.243  -1.818   1.723  1.00  0.00     0.063 C 
HETATM   27  C17 UNL     1      -4.843  -2.790  -0.476  1.00  0.00     0.097 C 
HETATM   28  N3  UNL     1      -4.398  -3.711  -1.026  1.00  0.00    -0.194 NA
ENDBRANCH  23  24
ENDBRANCH  21  23
ENDBRANCH  20  21
ENDBRANCH  18  20
ENDBRANCH   3  18
TORSDOF 10
