REMARK  14 active torsions:
REMARK  status: ('A' for Active; 'I' for Inactive)
REMARK    1  A    between atoms: C2_2  and  C3_3 
REMARK    2  A    between atoms: C3_3  and  O1_4 
REMARK    3  A    between atoms: C3_3  and  C8_10 
REMARK    4  A    between atoms: O1_4  and  C4_5 
REMARK    5  A    between atoms: C4_5  and  C5_7 
REMARK    6  A    between atoms: C8_10  and  O3_11 
REMARK    7  A    between atoms: O3_11  and  C9_12 
REMARK    8  A    between atoms: C11_16  and  C12_17 
REMARK    9  A    between atoms: C12_17  and  C13_18 
REMARK   10  A    between atoms: C13_18  and  C14_19 
REMARK   11  A    between atoms: C19_26  and  O8_27 
REMARK   12  A    between atoms: C22_31  and  C24_33 
REMARK   13  A    between atoms: C24_33  and  C25_34 
REMARK   14  A    between atoms: C25_34  and  C26_35 
ROOT
HETATM    1  C14 UNL     1       1.243   1.102  -0.424  1.00  0.00     0.078 C 
HETATM    2  C15 UNL     1       0.870   1.423   0.961  1.00  0.00     0.048 C 
HETATM    3  O6  UNL     1       1.688   2.303  -1.124  1.00  0.00    -0.333 OA
HETATM    4  C16 UNL     1       2.858   2.993  -1.184  1.00  0.00     0.140 A 
HETATM    5  C17 UNL     1       3.975   2.709  -0.381  1.00  0.00     0.024 A 
HETATM    6  C18 UNL     1       4.963   3.593  -0.708  1.00  0.00     0.159 A 
HETATM    7  O7  UNL     1       4.494   4.377  -1.652  1.00  0.00    -0.297 OA
HETATM    8  C19 UNL     1       3.249   4.047  -1.957  1.00  0.00     0.218 A 
HETATM    9  C20 UNL     1       4.042   1.648   0.637  1.00  0.00     0.013 C 
HETATM   10  C21 UNL     1       3.344   0.539   0.573  1.00  0.00    -0.009 C 
HETATM   11  C22 UNL     1       2.353   0.047  -0.471  1.00  0.00     0.023 C 
HETATM   12  C23 UNL     1       3.017   0.120  -1.785  1.00  0.00     0.027 C 
ENDROOT
BRANCH   1  13
HETATM   13  C13 UNL     1       0.047   0.671  -1.255  1.00  0.00     0.042 C 
BRANCH  13  14
HETATM   14  C12 UNL     1      -1.028   1.647  -1.474  1.00  0.00     0.041 C 
BRANCH  14  15
HETATM   15  C11 UNL     1      -1.787   2.092  -0.294  1.00  0.00     0.191 A 
HETATM   16  C8  UNL     1      -2.589   1.338   0.579  1.00  0.00     0.226 A 
HETATM   17  O5  UNL     1      -3.251   2.130  -0.525  1.00  0.00    -0.339 OA
BRANCH  16  18
HETATM   18  C3  UNL     1      -3.004  -0.110   0.314  1.00  0.00     0.197 C 
BRANCH  18  19
HETATM   19  C2  UNL     1      -2.449  -1.073   1.326  1.00  0.00     0.033 C 
HETATM   20  C1  UNL     1      -3.003  -2.450   0.929  1.00  0.00     0.007 C 
ENDBRANCH  18  19
BRANCH  18  21
HETATM   21  O1  UNL     1      -4.434  -0.203   0.440  1.00  0.00    -0.310 OA
BRANCH  21  22
HETATM   22  C4  UNL     1      -5.241  -0.638  -0.577  1.00  0.00     0.262 C 
HETATM   23  O2  UNL     1      -4.680  -0.966  -1.664  1.00  0.00    -0.265 OA
BRANCH  22  24
HETATM   24  C5  UNL     1      -6.700  -0.709  -0.378  1.00  0.00     0.077 C 
HETATM   25  C6  UNL     1      -7.118  -1.619   0.739  1.00  0.00     0.020 C 
HETATM   26  C7  UNL     1      -7.427  -1.103  -1.648  1.00  0.00     0.020 C 
ENDBRANCH  22  24
ENDBRANCH  21  22
ENDBRANCH  18  21
ENDBRANCH  16  18
BRANCH  16  27
HETATM   27  O3  UNL     1      -2.957   1.726   1.852  1.00  0.00    -0.278 OA
BRANCH  27  28
HETATM   28  C9  UNL     1      -2.813   2.893   2.518  1.00  0.00     0.257 C 
HETATM   29  C10 UNL     1      -3.319   3.024   3.923  1.00  0.00     0.126 C 
HETATM   30  O4  UNL     1      -2.265   3.873   1.984  1.00  0.00    -0.266 OA
ENDBRANCH  27  28
ENDBRANCH  16  27
ENDBRANCH  14  15
ENDBRANCH  13  14
ENDBRANCH   1  13
BRANCH  11  31
HETATM   31  C24 UNL     1       1.902  -1.264  -0.004  1.00  0.00    -0.012 C 
BRANCH  31  32
HETATM   32  C25 UNL     1       2.698  -2.475  -0.020  1.00  0.00     0.006 C 
BRANCH  32  33
HETATM   33  C26 UNL     1       4.028  -2.593   0.634  1.00  0.00     0.177 C 
HETATM   34  C27 UNL     1       4.474  -4.048   0.451  1.00  0.00     0.006 C 
HETATM   35  C28 UNL     1       5.733  -4.399   0.458  1.00  0.00    -0.018 C 
HETATM   36  C29 UNL     1       6.825  -3.427   0.643  1.00  0.00     0.138 C 
HETATM   37  C30 UNL     1       6.375  -2.037   0.317  1.00  0.00     0.263 C 
HETATM   38  O9  UNL     1       7.252  -1.137   0.353  1.00  0.00    -0.265 OA
HETATM   39  O10 UNL     1       5.046  -1.803  -0.003  1.00  0.00    -0.308 OA
ENDBRANCH  32  33
ENDBRANCH  31  32
ENDBRANCH  11  31
BRANCH   8  40
HETATM   40  O8  UNL     1       2.401   4.629  -2.902  1.00  0.00    -0.339 OA
ATOM     41  H8  UNL     1       2.673   5.363  -3.440  1.00  0.00     0.220 HD
ENDBRANCH   8  40
TORSDOF 14
