REMARK  13 active torsions:
REMARK  status: ('A' for Active; 'I' for Inactive)
REMARK    1  A    between atoms: O1_2  and  C2_3 
REMARK    2  A    between atoms: C5_6  and  C6_7 
REMARK    3  A    between atoms: C6_7  and  C7_8 
REMARK    4  A    between atoms: N1_9  and  C8_11 
REMARK    5  A    between atoms: C8_11  and  C9_12 
REMARK    6  A    between atoms: C8_11  and  C15_20 
REMARK    7  A    between atoms: C9_12  and  C10_13 
REMARK    8  A    between atoms: C10_13  and  N2_14 
REMARK    9  A    between atoms: N3_24  and  C19_25 
REMARK   10  A    between atoms: C19_25  and  O3_26 
REMARK   11  A    between atoms: N4_28  and  O4_30 
REMARK   12  A    between atoms: C20_32  and  C21_33 
REMARK   13  A    between atoms: C25_38  and  O5_39 
ROOT
HETATM    1  C8  UNL     1      -1.193  -0.215  -0.253  1.00  0.00     0.088 C 
ENDROOT
BRANCH   1   2
HETATM    2  N1  UNL     1      -0.080  -0.734   0.347  1.00  0.00    -0.397 N 
HETATM    3  C7  UNL     1       1.229  -0.459   0.516  1.00  0.00     0.060 C 
ATOM      4  H1  UNL     1      -0.315  -1.608   0.817  1.00  0.00     0.159 HD
BRANCH   3   5
HETATM    5  C6  UNL     1       1.881   0.585   1.301  1.00  0.00     0.082 C 
BRANCH   5   6
HETATM    6  C5  UNL     1       3.371   0.438   1.254  1.00  0.00    -0.051 A 
HETATM    7  C4  UNL     1       3.967  -0.370   2.198  1.00  0.00     0.010 A 
HETATM    8  C3  UNL     1       5.357  -0.531   2.240  1.00  0.00     0.040 A 
HETATM    9  C2  UNL     1       6.126   0.156   1.293  1.00  0.00     0.101 A 
HETATM   10  C25 UNL     1       5.514   0.960   0.354  1.00  0.00     0.102 A 
HETATM   11  C24 UNL     1       4.125   1.112   0.323  1.00  0.00     0.047 A 
BRANCH   9  12
HETATM   12  O1  UNL     1       7.482   0.045   1.280  1.00  0.00    -0.353 OA
HETATM   13  C1  UNL     1       8.322  -0.697   2.094  1.00  0.00     0.210 C 
ENDBRANCH   9  12
BRANCH  10  14
HETATM   14  O5  UNL     1       6.328   1.613  -0.557  1.00  0.00    -0.353 OA
HETATM   15  C26 UNL     1       5.703   2.438  -1.522  1.00  0.00     0.210 C 
ENDBRANCH  10  14
ENDBRANCH   5   6
ENDBRANCH   3   5
ENDBRANCH   1   2
BRANCH   1  16
HETATM   16  C9  UNL     1      -1.873   0.945   0.347  1.00  0.00     0.055 C 
BRANCH  16  17
HETATM   17  C10 UNL     1      -1.171   2.233   0.527  1.00  0.00     0.274 C 
BRANCH  17  18
HETATM   18  N2  UNL     1      -2.088   3.275   1.007  1.00  0.00     0.092 N 
HETATM   19  C11 UNL     1      -1.300   4.497   1.148  1.00  0.00     0.298 C 
HETATM   20  C12 UNL     1      -2.313   5.623   1.307  1.00  0.00     0.198 C 
HETATM   21  O2  UNL     1      -2.981   5.397   2.515  1.00  0.00    -0.388 OA
HETATM   22  C13 UNL     1      -3.636   4.185   2.548  1.00  0.00     0.198 C 
HETATM   23  C14 UNL     1      -2.688   3.005   2.265  1.00  0.00     0.298 C 
ENDBRANCH  17  18
ENDBRANCH  16  17
ENDBRANCH   1  16
BRANCH   1  24
HETATM   24  C15 UNL     1      -2.248  -1.309  -0.561  1.00  0.00     0.033 C 
HETATM   25  C16 UNL     1      -3.420  -0.637  -1.226  1.00  0.00     0.010 C 
HETATM   26  C17 UNL     1      -3.036   0.026  -2.512  1.00  0.00     0.020 C 
HETATM   27  C18 UNL     1      -2.191  -0.882  -3.378  1.00  0.00     0.127 C 
HETATM   28  N3  UNL     1      -2.251  -2.227  -2.779  1.00  0.00    -0.339 N 
HETATM   29  C20 UNL     1      -1.732  -2.402  -1.463  1.00  0.00     0.116 C 
BRANCH  28  30
HETATM   30  C19 UNL     1      -2.818  -3.197  -3.642  1.00  0.00     0.239 C 
HETATM   31  N4  UNL     1      -3.928  -3.782  -3.491  1.00  0.00    -0.233 N 
ATOM     32  H4  UNL     1      -4.502  -3.563  -2.677  1.00  0.00     0.198 HD
BRANCH  30  33
HETATM   33  O3  UNL     1      -2.042  -3.521  -4.772  1.00  0.00    -0.331 OA
ATOM     34  H3  UNL     1      -2.422  -4.171  -5.351  1.00  0.00     0.221 HD
ENDBRANCH  30  33
BRANCH  31  35
HETATM   35  O4  UNL     1      -4.377  -4.710  -4.405  1.00  0.00    -0.287 OA
ATOM     36  H4  UNL     1      -5.211  -5.150  -4.291  1.00  0.00     0.244 HD
ENDBRANCH  31  35
ENDBRANCH  28  30
BRANCH  29  37
HETATM   37  C21 UNL     1      -1.758  -3.782  -0.938  1.00  0.00     0.051 C 
HETATM   38  C22 UNL     1      -0.851  -3.893   0.286  1.00  0.00     0.034 C 
HETATM   39  C23 UNL     1      -3.104  -4.279  -0.456  1.00  0.00     0.034 C 
HETATM   40 CL1  UNL     1      -1.063  -4.881  -2.152  1.00  0.00    -0.118 Cl
ENDBRANCH  29  37
ENDBRANCH   1  24
TORSDOF 13
