REMARK  3 active torsions:
REMARK  status: ('A' for Active; 'I' for Inactive)
REMARK       I    between atoms: C1_4  and  N3_6 
REMARK    1  A    between atoms: N3_6  and  O1_8 
REMARK    2  A    between atoms: O1_8  and  C2_9 
REMARK    3  A    between atoms: C2_9  and  C3_11 
ROOT
HETATM    1  O1  UNL     1      -0.337  -0.915   0.458  1.00  0.00    -0.192 OA
ENDROOT
BRANCH   1   2
HETATM    2  N3  UNL     1      -1.608  -1.285   0.046  1.00  0.00    -0.229 N 
HETATM    3  C1  UNL     1      -2.779  -0.765   0.633  1.00  0.00     0.206 C 
HETATM    4  N1  UNL     1      -3.357  -1.418   1.570  1.00  0.00    -0.372 N 
HETATM    5  N2  UNL     1      -3.309   0.470   0.187  1.00  0.00    -0.062 NA
ATOM      6  H12 UNL     1      -4.205  -1.042   1.995  1.00  0.00     0.158 HD
ATOM      7  H11 UNL     1      -2.975  -2.308   1.891  1.00  0.00     0.158 HD
ATOM      8  H3  UNL     1      -1.699  -1.961  -0.713  1.00  0.00     0.197 HD
ENDBRANCH   1   2
BRANCH   1   9
HETATM    9  C2  UNL     1       0.468  -0.202  -0.387  1.00  0.00     0.317 C 
HETATM   10  O2  UNL     1       0.048   0.112  -1.530  1.00  0.00    -0.257 OA
BRANCH   9  11
HETATM   11  C3  UNL     1       1.820   0.221  -0.016  1.00  0.00     0.065 A 
HETATM   12  C4  UNL     1       2.717   0.938  -0.778  1.00  0.00     0.044 A 
HETATM   13  C5  UNL     1       3.852   1.100  -0.021  1.00  0.00     0.142 A 
HETATM   14  O3  UNL     1       3.655   0.521   1.123  1.00  0.00    -0.334 OA
HETATM   15  C6  UNL     1       2.461  -0.021   1.183  1.00  0.00     0.159 A 
ENDBRANCH   9  11
ENDBRANCH   1   9
TORSDOF 3
