REMARK  11 active torsions:
REMARK  status: ('A' for Active; 'I' for Inactive)
REMARK    1  A    between atoms: C2_2  and  O1_4 
REMARK    2  A    between atoms: C2_2  and  C4_6 
REMARK    3  A    between atoms: C4_6  and  C5_7 
REMARK    4  A    between atoms: C5_7  and  C6_8 
REMARK    5  A    between atoms: C6_8  and  O2_9 
REMARK    6  A    between atoms: C15_20  and  O4_21 
REMARK    7  A    between atoms: O4_21  and  C16_22 
REMARK    8  A    between atoms: C16_22  and  C17_23 
REMARK    9  A    between atoms: C17_23  and  C18_24 
REMARK   10  A    between atoms: C18_24  and  O5_25 
REMARK   11  A    between atoms: O5_25  and  C19_26 
ROOT
HETATM    1  C5  UNL     1      -4.782  -0.443  -0.020  1.00  0.00    -0.009 C 
HETATM    2  C7  UNL     1      -3.948  -1.611   0.469  1.00  0.00     0.013 C 
HETATM    3  C8  UNL     1      -2.914  -1.009   1.389  1.00  0.00     0.007 C 
HETATM    4  C9  UNL     1      -2.683   0.376   0.827  1.00  0.00    -0.001 C 
HETATM    5  C10 UNL     1      -1.238   0.471   0.497  1.00  0.00     0.002 C 
HETATM    6  C11 UNL     1      -0.695   1.845   0.491  1.00  0.00     0.084 C 
HETATM    7  C12 UNL     1       0.367   2.103  -0.497  1.00  0.00     0.132 C 
HETATM    8  O3  UNL     1       0.867   3.230  -0.449  1.00  0.00    -0.298 OA
HETATM    9  C13 UNL     1       0.882   1.186  -1.509  1.00  0.00     0.066 C 
HETATM   10  C14 UNL     1       2.311   1.358  -1.849  1.00  0.00     0.044 C 
HETATM   11  C15 UNL     1       3.292   0.852  -0.779  1.00  0.00     0.122 C 
HETATM   12  C25 UNL     1       2.935  -0.561  -0.380  1.00  0.00     0.033 C 
HETATM   13  C26 UNL     1       1.495  -0.787  -0.098  1.00  0.00     0.013 C 
HETATM   14  C27 UNL     1       0.571  -0.210  -1.116  1.00  0.00    -0.029 C 
HETATM   15  C28 UNL     1       0.685  -1.056  -2.395  1.00  0.00     0.016 C 
HETATM   16  C29 UNL     1      -0.870  -0.389  -0.666  1.00  0.00    -0.001 C 
HETATM   17  C30 UNL     1      -1.836  -0.352  -1.816  1.00  0.00     0.006 C 
HETATM   18  C31 UNL     1      -3.007   0.557  -1.595  1.00  0.00     0.011 C 
HETATM   19  C32 UNL     1      -3.665   0.542  -0.298  1.00  0.00    -0.030 C 
HETATM   20  C33 UNL     1      -4.334   1.938  -0.158  1.00  0.00     0.016 C 
ENDROOT
BRANCH  11  21
HETATM   21  O4  UNL     1       3.209   1.668   0.283  1.00  0.00    -0.386 OA
BRANCH  21  22
HETATM   22  C16 UNL     1       4.212   2.404   0.687  1.00  0.00     0.170 C 
BRANCH  22  23
HETATM   23  C17 UNL     1       5.446   1.825   1.254  1.00  0.00     0.053 C 
BRANCH  23  24
HETATM   24  C18 UNL     1       6.288   0.936   0.439  1.00  0.00     0.178 C 
BRANCH  24  25
HETATM   25  O5  UNL     1       7.440   0.607   1.250  1.00  0.00    -0.351 OA
BRANCH  25  26
HETATM   26  C19 UNL     1       8.425  -0.231   0.744  1.00  0.00     0.071 A 
HETATM   27  C20 UNL     1       8.356  -0.774  -0.523  1.00  0.00     0.060 A 
HETATM   28  C21 UNL     1       9.357  -1.600  -0.979  1.00  0.00     0.038 A 
HETATM   29 CL1  UNL     1       9.227  -2.268  -2.599  1.00  0.00    -0.084 Cl
HETATM   30  C22 UNL     1      10.453  -1.913  -0.204  1.00  0.00     0.048 A 
HETATM   31  C23 UNL     1      10.533  -1.372   1.070  1.00  0.00     0.038 A 
HETATM   32 CL2  UNL     1      11.920  -1.773   2.036  1.00  0.00    -0.084 Cl
HETATM   33  C24 UNL     1       9.516  -0.537   1.526  1.00  0.00     0.060 A 
ENDBRANCH  25  26
ENDBRANCH  24  25
ENDBRANCH  23  24
ENDBRANCH  22  23
ENDBRANCH  21  22
ENDBRANCH  11  21
BRANCH   1  34
HETATM   34  C4  UNL     1      -5.688   0.089   1.039  1.00  0.00     0.049 C 
BRANCH  34  35
HETATM   35  C2  UNL     1      -6.760  -0.655   1.654  1.00  0.00     0.051 C 
HETATM   36  C1  UNL     1      -7.331   0.384   2.691  1.00  0.00     0.045 C 
HETATM   37  C3  UNL     1      -7.973  -1.033   0.893  1.00  0.00     0.045 C 
BRANCH  35  38
HETATM   38  O1  UNL     1      -6.353  -1.678   2.538  1.00  0.00    -0.391 OA
ATOM     39  H1  UNL     1      -6.009  -2.305   1.913  1.00  0.00     0.210 HD
ENDBRANCH  35  38
ENDBRANCH  34  35
ENDBRANCH   1  34
BRANCH   1  40
HETATM   40  C6  UNL     1      -5.620  -0.810  -1.205  1.00  0.00     0.174 C 
BRANCH  40  41
HETATM   41  O2  UNL     1      -4.918  -1.334  -2.287  1.00  0.00    -0.400 OA
ATOM     42  H2  UNL     1      -5.450  -1.567  -3.039  1.00  0.00     0.209 HD
ENDBRANCH  40  41
ENDBRANCH   1  40
TORSDOF 11
