REMARK  15 active torsions:
REMARK  status: ('A' for Active; 'I' for Inactive)
REMARK    1  A    between atoms: N1_1  and  N2_4 
REMARK    2  A    between atoms: N2_4  and  C1_5 
REMARK    3  A    between atoms: C1_5  and  N3_6 
REMARK    4  A    between atoms: C1_5  and  C2_10 
REMARK    5  A    between atoms: N4_12  and  C4_13 
REMARK    6  A    between atoms: C6_15  and  C7_16 
REMARK    7  A    between atoms: C6_15  and  C8_19 
REMARK    8  A    between atoms: C7_16  and  O1_17 
REMARK    9  A    between atoms: C8_19  and  N5_20 
REMARK   10  A    between atoms: N5_20  and  C9_22 
REMARK   11  A    between atoms: C13_33  and  C14_34 
REMARK   12  A    between atoms: C15_38  and  C16_39 
REMARK   13  A    between atoms: C16_39  and  N10_40 
REMARK   14  A    between atoms: C16_39  and  C17_44 
REMARK   15  A    between atoms: C18_49  and  O6_50 
ROOT
HETATM    1  C9  UNL     1      -1.886  -1.407  -0.519  1.00  0.00     0.131 C 
HETATM    2  N6  UNL     1      -2.733  -1.932   0.287  1.00  0.00    -0.337 N 
ATOM      3  H6  UNL     1      -2.282  -2.596   0.917  1.00  0.00     0.167 HD
HETATM    4  C10 UNL     1      -4.120  -1.844   0.543  1.00  0.00     0.108 A 
HETATM    5  C11 UNL     1      -5.073  -0.859   0.324  1.00  0.00     0.140 A 
HETATM    6  N7  UNL     1      -6.339  -1.054   0.667  1.00  0.00    -0.292 N 
ATOM      7  H7  UNL     1      -7.039  -0.330   0.506  1.00  0.00     0.172 HD
HETATM    8  C12 UNL     1      -6.686  -2.241   1.239  1.00  0.00     0.326 A 
HETATM    9  O2  UNL     1      -7.888  -2.439   1.570  1.00  0.00    -0.247 OA
HETATM   10  N8  UNL     1      -5.784  -3.213   1.463  1.00  0.00    -0.304 N 
ATOM     11  H8  UNL     1      -6.083  -4.088   1.893  1.00  0.00     0.171 HD
HETATM   12  C13 UNL     1      -4.490  -3.045   1.126  1.00  0.00     0.105 A 
HETATM   13  N9  UNL     1      -4.953   0.450  -0.250  1.00  0.00    -0.328 N 
ATOM     14  H9  UNL     1      -5.711   1.077   0.019  1.00  0.00     0.169 HD
HETATM   15  C15 UNL     1      -4.101   0.996  -1.025  1.00  0.00     0.122 C 
HETATM   16  N11 UNL     1      -2.916   0.534  -1.641  1.00  0.00    -0.345 N 
ATOM     17  H11 UNL     1      -2.716   1.161  -2.420  1.00  0.00     0.163 HD
HETATM   18  C18 UNL     1      -1.889  -0.448  -1.618  1.00  0.00     0.288 C 
ENDROOT
BRANCH   1  19
HETATM   19  N5  UNL     1      -0.566  -1.936  -0.263  1.00  0.00    -0.353 N 
ATOM     20  H5  UNL     1      -0.159  -2.521  -0.993  1.00  0.00     0.166 HD
BRANCH  19  21
HETATM   21  C8  UNL     1       0.218  -1.729   0.889  1.00  0.00     0.102 C 
BRANCH  21  22
HETATM   22  C6  UNL     1       0.761  -0.327   1.077  1.00  0.00     0.120 C 
HETATM   23  C5  UNL     1       2.019  -0.435   1.944  1.00  0.00     0.100 C 
HETATM   24  C4  UNL     1       2.488   0.574   0.963  1.00  0.00     0.233 C 
HETATM   25  O7  UNL     1       1.561   0.117   0.045  1.00  0.00    -0.347 OA
BRANCH  24  26
HETATM   26  N4  UNL     1       3.873   0.391   0.522  1.00  0.00    -0.324 N 
HETATM   27  C3  UNL     1       4.717   1.363   0.237  1.00  0.00     0.123 A 
HETATM   28  C2  UNL     1       5.948   0.828  -0.165  1.00  0.00     0.074 A 
HETATM   29  N12 UNL     1       5.769  -0.510  -0.096  1.00  0.00    -0.352 N 
HETATM   30  C19 UNL     1       4.500  -0.777   0.324  1.00  0.00     0.185 A 
ATOM     31  H12 UNL     1       6.474  -1.211  -0.323  1.00  0.00     0.166 HD
BRANCH  28  32
HETATM   32  C1  UNL     1       7.186   1.526  -0.582  1.00  0.00     0.345 C 
BRANCH  32  33
HETATM   33  N2  UNL     1       7.760   0.941  -1.778  1.00  0.00    -0.108 NA
BRANCH  33  34
HETATM   34  N1  UNL     1       8.110  -0.393  -1.543  1.00  0.00    -0.346 N 
ATOM     35  H12 UNL     1       7.974  -0.871  -0.652  1.00  0.00     0.172 HD
ATOM     36  H11 UNL     1       8.514  -0.805  -2.384  1.00  0.00     0.172 HD
ENDBRANCH  33  34
ENDBRANCH  32  33
BRANCH  32  37
HETATM   37  N3  UNL     1       6.871   2.918  -0.939  1.00  0.00    -0.054 N 
ATOM     38  H33 UNL     1       7.668   3.437  -1.308  1.00  0.00     0.276 HD
ATOM     39  H32 UNL     1       6.278   3.006  -1.764  1.00  0.00     0.276 HD
ATOM     40  H31 UNL     1       6.467   3.330  -0.098  1.00  0.00     0.276 HD
ENDBRANCH  32  37
ENDBRANCH  28  32
ENDBRANCH  24  26
BRANCH  22  41
HETATM   41  C7  UNL     1      -0.221   0.687   1.622  1.00  0.00     0.208 C 
BRANCH  41  42
HETATM   42  O1  UNL     1      -0.993   0.145   2.646  1.00  0.00    -0.398 OA
ATOM     43  H1  UNL     1      -1.610   0.782   2.988  1.00  0.00     0.209 HD
ENDBRANCH  41  42
ENDBRANCH  22  41
ENDBRANCH  21  22
ENDBRANCH  19  21
ENDBRANCH   1  19
BRANCH  18  44
HETATM   44  O6  UNL     1      -1.781  -1.141  -2.836  1.00  0.00    -0.369 OA
ATOM     45  H6  UNL     1      -1.783  -0.516  -3.552  1.00  0.00     0.212 HD
ENDBRANCH  18  44
BRANCH  12  46
HETATM   46  C14 UNL     1      -3.510  -4.089   1.365  1.00  0.00     0.290 C 
HETATM   47  O3  UNL     1      -3.855  -5.174   1.891  1.00  0.00    -0.300 OA
ENDBRANCH  12  46
BRANCH  15  48
HETATM   48  C16 UNL     1      -4.462   2.400  -1.313  1.00  0.00     0.349 C 
BRANCH  48  49
HETATM   49  N10 UNL     1      -5.757   2.719  -0.736  1.00  0.00    -0.058 N 
ATOM     50 3H10 UNL     1      -6.481   2.070  -1.045  1.00  0.00     0.275 HD
ATOM     51 2H10 UNL     1      -5.788   2.516   0.263  1.00  0.00     0.275 HD
ATOM     52 1H10 UNL     1      -6.006   3.688  -0.935  1.00  0.00     0.275 HD
ENDBRANCH  48  49
BRANCH  48  53
HETATM   53  C17 UNL     1      -3.398   3.274  -0.748  1.00  0.00     0.212 C 
HETATM   54  O4  UNL     1      -3.773   4.151   0.096  1.00  0.00    -0.646 OA
HETATM   55  O5  UNL     1      -2.087   3.135  -1.119  1.00  0.00    -0.646 OA
ENDBRANCH  48  53
ENDBRANCH  15  48
TORSDOF 15
