REMARK  17 active torsions:
REMARK  status: ('A' for Active; 'I' for Inactive)
REMARK    1  A    between atoms: C1_4  and  C2_5 
REMARK    2  A    between atoms: C3_7  and  O2_8 
REMARK    3  A    between atoms: O2_8  and  C4_9 
REMARK    4  A    between atoms: C5_11  and  O4_12 
REMARK    5  A    between atoms: O4_12  and  C6_13 
REMARK    6  A    between atoms: C7_14  and  O5_15 
REMARK    7  A    between atoms: C8_17  and  N2_18 
REMARK    8  A    between atoms: C10_23  and  N3_24 
REMARK    9  A    between atoms: C11_28  and  O6_29 
REMARK   10  A    between atoms: O6_29  and  C12_30 
REMARK   11  A    between atoms: C12_30  and  C13_31 
REMARK   12  A    between atoms: C14_33  and  C15_34 
REMARK   13  A    between atoms: C15_34  and  O8_35 
REMARK   14  A    between atoms: C17_41  and  O9_42 
REMARK   15  A    between atoms: C18_44  and  O10_45 
REMARK   16  A    between atoms: C19_47  and  N5_48 
REMARK   17  A    between atoms: C21_53  and  O11_54 
ROOT
HETATM    1  C6  UNL     1      -1.558  -0.694   1.296  1.00  0.00     0.186 C 
HETATM    2  C7  UNL     1      -1.802  -1.418   2.598  1.00  0.00     0.180 C 
HETATM    3  C8  UNL     1      -1.144  -2.793   2.574  1.00  0.00     0.216 C 
HETATM    4  C9  UNL     1      -1.822  -3.588   1.466  1.00  0.00     0.071 C 
HETATM    5  C10 UNL     1      -1.581  -2.830   0.179  1.00  0.00     0.217 C 
HETATM    6  C11 UNL     1      -2.314  -1.494   0.214  1.00  0.00     0.183 C 
ENDROOT
BRANCH   1   7
HETATM    7  O4  UNL     1      -0.187  -0.684   1.059  1.00  0.00    -0.348 OA
BRANCH   7   8
HETATM    8  C5  UNL     1       0.317   0.582   0.876  1.00  0.00     0.297 C 
HETATM    9  O3  UNL     1       1.052   0.646  -0.305  1.00  0.00    -0.326 OA
HETATM   10  C4  UNL     1       2.164   0.232   0.416  1.00  0.00     0.299 C 
HETATM   11  C18 UNL     1       1.578   0.936   1.626  1.00  0.00     0.228 C 
BRANCH  10  12
HETATM   12  O2  UNL     1       3.308   0.850  -0.078  1.00  0.00    -0.327 OA
BRANCH  12  13
HETATM   13  C3  UNL     1       4.383  -0.060  -0.227  1.00  0.00     0.294 C 
HETATM   14  O1  UNL     1       5.328   0.320   0.659  1.00  0.00    -0.346 OA
HETATM   15  C2  UNL     1       6.473   0.903   0.215  1.00  0.00     0.191 C 
HETATM   16  C21 UNL     1       6.085   1.868  -0.902  1.00  0.00     0.154 C 
HETATM   17  C20 UNL     1       5.734   0.972  -2.073  1.00  0.00     0.072 C 
HETATM   18  C19 UNL     1       4.732  -0.080  -1.678  1.00  0.00     0.240 C 
BRANCH  15  19
HETATM   19  C1  UNL     1       7.071   1.667   1.356  1.00  0.00     0.087 C 
HETATM   20  N1  UNL     1       8.317   1.634   1.640  1.00  0.00    -0.409 N 
ATOM     21  H12 UNL     1       8.918   1.056   1.052  1.00  0.00     0.155 HD
ATOM     22  H11 UNL     1       8.724   2.154   2.417  1.00  0.00     0.155 HD
ENDBRANCH  15  19
BRANCH  16  23
HETATM   23  O11 UNL     1       7.113   2.699  -1.278  1.00  0.00    -0.393 OA
ATOM     24  H11 UNL     1       6.871   3.300  -1.973  1.00  0.00     0.210 HD
ENDBRANCH  16  23
BRANCH  18  25
HETATM   25  N5  UNL     1       3.558   0.075  -2.508  1.00  0.00    -0.070 N 
ATOM     26  H53 UNL     1       2.849  -0.623  -2.285  1.00  0.00     0.274 HD
ATOM     27  H52 UNL     1       3.035   0.915  -2.262  1.00  0.00     0.274 HD
ATOM     28  H51 UNL     1       3.797   0.061  -3.500  1.00  0.00     0.274 HD
ENDBRANCH  18  25
ENDBRANCH  12  13
ENDBRANCH  10  12
BRANCH  11  29
HETATM   29  O10 UNL     1       1.773   0.312   2.830  1.00  0.00    -0.386 OA
ATOM     30  H10 UNL     1       1.406   0.753   3.587  1.00  0.00     0.210 HD
ENDBRANCH  11  29
ENDBRANCH   7   8
ENDBRANCH   1   7
BRANCH   2  31
HETATM   31  O5  UNL     1      -1.333  -0.752   3.705  1.00  0.00    -0.391 OA
ATOM     32  H5  UNL     1      -1.487  -1.208   4.524  1.00  0.00     0.210 HD
ENDBRANCH   2  31
BRANCH   6  33
HETATM   33  O6  UNL     1      -3.587  -1.588   0.639  1.00  0.00    -0.378 OA
BRANCH  33  34
HETATM   34  C12 UNL     1      -4.627  -1.103  -0.050  1.00  0.00     0.204 C 
BRANCH  34  35
HETATM   35  C13 UNL     1      -4.702   0.382  -0.291  1.00  0.00     0.202 C 
HETATM   36  O7  UNL     1      -3.645   0.811  -1.013  1.00  0.00    -0.370 OA
HETATM   37  C14 UNL     1      -3.769   1.988  -1.679  1.00  0.00     0.171 C 
HETATM   38  C16 UNL     1      -5.020   2.756  -1.387  1.00  0.00     0.269 C 
HETATM   39  N4  UNL     1      -6.213   1.941  -1.470  1.00  0.00    -0.044 N 
HETATM   40  C17 UNL     1      -6.046   0.629  -0.950  1.00  0.00     0.350 C 
ATOM     41  H42 UNL     1      -7.000   2.409  -1.021  1.00  0.00     0.280 HD
ATOM     42  H41 UNL     1      -6.559   1.907  -2.429  1.00  0.00     0.280 HD
BRANCH  37  43
HETATM   43  C15 UNL     1      -2.592   2.926  -1.491  1.00  0.00     0.197 C 
BRANCH  43  44
HETATM   44  O8  UNL     1      -1.396   2.339  -1.948  1.00  0.00    -0.398 OA
ATOM     45  H8  UNL     1      -0.659   2.927  -1.830  1.00  0.00     0.209 HD
ENDBRANCH  43  44
ENDBRANCH  37  43
BRANCH  40  46
HETATM   46  O9  UNL     1      -6.294  -0.303  -1.941  1.00  0.00    -0.368 OA
ATOM     47  H9  UNL     1      -7.136  -0.148  -2.354  1.00  0.00     0.212 HD
ENDBRANCH  40  46
ENDBRANCH  34  35
ENDBRANCH  33  34
ENDBRANCH   6  33
BRANCH   3  48
HETATM   48  N2  UNL     1      -1.311  -3.388   3.863  1.00  0.00    -0.072 N 
ATOM     49  H23 UNL     1      -0.962  -2.797   4.618  1.00  0.00     0.274 HD
ATOM     50  H22 UNL     1      -2.287  -3.423   4.157  1.00  0.00     0.274 HD
ATOM     51  H21 UNL     1      -0.871  -4.308   3.847  1.00  0.00     0.274 HD
ENDBRANCH   3  48
BRANCH   5  52
HETATM   52  N3  UNL     1      -1.868  -3.596  -0.988  1.00  0.00    -0.072 N 
ATOM     53  H33 UNL     1      -1.349  -4.474  -0.982  1.00  0.00     0.274 HD
ATOM     54  H32 UNL     1      -2.819  -3.963  -0.956  1.00  0.00     0.274 HD
ATOM     55  H31 UNL     1      -1.706  -3.085  -1.856  1.00  0.00     0.274 HD
ENDBRANCH   5  52
TORSDOF 17
