REMARK  2 active torsions:
REMARK  status: ('A' for Active; 'I' for Inactive)
REMARK    1  A    between atoms: C2_3  and  N2_4 
REMARK    2  A    between atoms: C7_9  and  O1_10 
ROOT
HETATM    1  N1  UNL     1       3.639   0.746  -1.112  1.00  0.00    -0.195 NA
HETATM    2  C1  UNL     1       2.894   0.745  -0.227  1.00  0.00     0.089 C 
HETATM    3  C2  UNL     1       1.976   0.761   0.893  1.00  0.00     0.396 C 
ENDROOT
BRANCH   3   4
HETATM    4  N2  UNL     1       0.731   0.108   0.648  1.00  0.00     0.111 N 
HETATM    5  C3  UNL     1       0.799  -1.305   0.490  1.00  0.00     0.306 C 
HETATM    6  C4  UNL     1      -0.327  -1.604  -0.512  1.00  0.00     0.152 C 
HETATM    7  C5  UNL     1      -0.140  -0.419  -1.451  1.00  0.00     0.072 C 
HETATM    8  O2  UNL     1      -1.491  -1.628   0.149  1.00  0.00    -0.381 OA
HETATM    9  C6  UNL     1      -0.069   0.681  -0.377  1.00  0.00     0.257 C 
HETATM   10  C7  UNL     1      -1.532   0.800   0.071  1.00  0.00     0.175 C 
HETATM   11  C8  UNL     1      -2.148  -0.497   0.434  1.00  0.00     0.202 C 
BRANCH  10  12
HETATM   12  O1  UNL     1      -1.647   1.749   1.104  1.00  0.00    -0.391 OA
ATOM     13  H1  UNL     1      -2.553   1.823   1.381  1.00  0.00     0.210 HD
ENDBRANCH  10  12
ENDBRANCH   3   4
TORSDOF 2
