REMARK  3 active torsions:
REMARK  status: ('A' for Active; 'I' for Inactive)
REMARK    1  A    between atoms: C2_2  and  C9_18 
REMARK    2  A    between atoms: N1_3  and  N2_5 
REMARK       I    between atoms: N2_5  and  C3_7 
REMARK    3  A    between atoms: C3_7  and  C4_9 
ROOT
HETATM    1  C4  UNL     1       1.587  -0.162   0.008  1.00  0.00     0.184 A 
HETATM    2  O2  UNL     1       2.604   0.547   0.509  1.00  0.00    -0.289 OA
HETATM    3  C5  UNL     1       3.681   0.434  -0.181  1.00  0.00     0.121 A 
HETATM    4  C6  UNL     1       5.020   1.090   0.086  1.00  0.00     0.098 C 
HETATM    5  N3  UNL     1       3.426  -0.385  -1.211  1.00  0.00    -0.329 N 
ATOM      6  H3  UNL     1       4.082  -0.671  -1.937  1.00  0.00     0.168 HD
HETATM    7  C7  UNL     1       2.111  -0.765  -1.100  1.00  0.00     0.155 A 
HETATM    8  C8  UNL     1       1.446  -1.644  -2.015  1.00  0.00     0.121 C 
HETATM    9  N4  UNL     1       0.937  -2.353  -2.766  1.00  0.00    -0.190 NA
ENDROOT
BRANCH   1  10
HETATM   10  C3  UNL     1       0.250  -0.226   0.577  1.00  0.00     0.296 C 
HETATM   11  N2  UNL     1      -0.859  -0.924   0.140  1.00  0.00    -0.264 N 
ATOM     12  H2  UNL     1      -0.802  -1.500  -0.700  1.00  0.00     0.190 HD
HETATM   13  O1  UNL     1       0.091   0.480   1.650  1.00  0.00    -0.264 OA
BRANCH  11  14
HETATM   14  N1  UNL     1      -2.060  -0.840   0.850  1.00  0.00    -0.301 N 
HETATM   15  C2  UNL     1      -3.080  -0.145   0.567  1.00  0.00     0.063 C 
HETATM   16  C1  UNL     1      -4.275  -0.203   1.477  1.00  0.00     0.071 C 
ATOM     17  H1  UNL     1      -2.122  -1.406   1.697  1.00  0.00     0.186 HD
BRANCH  15  18
HETATM   18  C9  UNL     1      -3.100   0.710  -0.633  1.00  0.00     0.400 C 
HETATM   19  F1  UNL     1      -3.267   2.020  -0.221  1.00  0.00    -0.208 F 
HETATM   20  F2  UNL     1      -2.007   0.555  -1.435  1.00  0.00    -0.208 F 
ENDBRANCH  15  18
ENDBRANCH  11  14
ENDBRANCH   1  10
TORSDOF 3
