REMARK  15 active torsions:
REMARK  status: ('A' for Active; 'I' for Inactive)
REMARK    1  A    between atoms: C2_2  and  C4_4 
REMARK    2  A    between atoms: C7_7  and  C8_8 
REMARK    3  A    between atoms: C8_8  and  O2_10 
REMARK    4  A    between atoms: O2_10  and  O3_11 
REMARK    5  A    between atoms: O3_11  and  C9_12 
REMARK    6  A    between atoms: C9_12  and  C16_19 
REMARK    7  A    between atoms: C10_13  and  C11_14 
REMARK    8  A    between atoms: C11_14  and  C12_15 
REMARK    9  A    between atoms: C16_19  and  C18_21 
REMARK   10  A    between atoms: C18_21  and  C19_22 
REMARK   11  A    between atoms: C19_22  and  C20_23 
REMARK   12  A    between atoms: C20_23  and  N2_28 
REMARK   13  A    between atoms: N1_24  and  O4_26 
REMARK   14  A    between atoms: C28_37  and  O5_38 
REMARK   15  A    between atoms: C29_40  and  O6_41 
ROOT
HETATM    1  C4  UNL     1      -2.795  -2.731   0.846  1.00  0.00     0.023 C 
HETATM    2  C5  UNL     1      -1.762  -2.737   1.953  1.00  0.00     0.011 C 
HETATM    3  C6  UNL     1      -1.144  -1.343   1.890  1.00  0.00     0.026 C 
HETATM    4  C7  UNL     1      -1.220  -0.930   0.432  1.00  0.00     0.082 C 
HETATM    5  C23 UNL     1      -1.854   0.429   0.258  1.00  0.00    -0.059 C 
HETATM    6  C24 UNL     1      -1.127   1.488  -0.079  1.00  0.00    -0.022 C 
HETATM    7  C25 UNL     1      -1.673   2.856  -0.271  1.00  0.00     0.033 C 
HETATM    8  C26 UNL     1      -3.155   2.837  -0.517  1.00  0.00     0.000 C 
HETATM    9  C27 UNL     1      -3.765   4.212  -0.382  1.00  0.00     0.040 C 
HETATM   10  C28 UNL     1      -5.211   4.167  -0.841  1.00  0.00     0.147 C 
HETATM   11  C29 UNL     1      -5.679   2.764  -1.070  1.00  0.00     0.147 C 
HETATM   12  C30 UNL     1      -5.330   1.901   0.137  1.00  0.00     0.044 C 
HETATM   13  C31 UNL     1      -3.848   1.927   0.449  1.00  0.00    -0.030 C 
HETATM   14  C32 UNL     1      -3.632   2.518   1.851  1.00  0.00     0.016 C 
HETATM   15  C33 UNL     1      -3.318   0.527   0.476  1.00  0.00     0.024 C 
HETATM   16  C34 UNL     1      -3.975  -0.395  -0.528  1.00  0.00     0.010 C 
HETATM   17  C35 UNL     1      -2.985  -1.311  -1.217  1.00  0.00     0.012 C 
HETATM   18  C36 UNL     1      -2.061  -2.005  -0.270  1.00  0.00    -0.016 C 
HETATM   19  C37 UNL     1      -1.168  -2.943  -1.021  1.00  0.00     0.018 C 
ENDROOT
BRANCH   4  20
HETATM   20  C8  UNL     1       0.151  -0.806  -0.090  1.00  0.00     0.303 C 
HETATM   21  O1  UNL     1       0.487  -0.947  -1.281  1.00  0.00    -0.261 OA
BRANCH  20  22
HETATM   22  O2  UNL     1       1.189  -0.498   0.816  1.00  0.00    -0.152 OA
BRANCH  22  23
HETATM   23  O3  UNL     1       2.453  -0.382   0.335  1.00  0.00    -0.194 OA
BRANCH  23  24
HETATM   24  C9  UNL     1       3.534  -0.459   1.197  1.00  0.00     0.085 C 
HETATM   25  C10 UNL     1       3.984  -1.641   1.559  1.00  0.00     0.013 C 
BRANCH  25  26
HETATM   26  C11 UNL     1       3.406  -2.919   1.101  1.00  0.00     0.057 C 
BRANCH  26  27
HETATM   27  C12 UNL     1       4.455  -3.704   0.384  1.00  0.00    -0.021 C 
HETATM   28  C13 UNL     1       4.241  -4.039  -0.874  1.00  0.00    -0.091 C 
HETATM   29  C14 UNL     1       5.312  -4.826  -1.569  1.00  0.00     0.042 C 
HETATM   30  C15 UNL     1       3.002  -3.674  -1.611  1.00  0.00     0.042 C 
ENDBRANCH  26  27
ENDBRANCH  25  26
BRANCH  24  31
HETATM   31  C16 UNL     1       4.189   0.764   1.717  1.00  0.00     0.042 C 
HETATM   32  C17 UNL     1       5.249   0.416   2.730  1.00  0.00     0.017 C 
BRANCH  31  33
HETATM   33  C18 UNL     1       4.732   1.608   0.588  1.00  0.00     0.018 C 
BRANCH  33  34
HETATM   34  C19 UNL     1       5.406   2.859   1.100  1.00  0.00     0.080 C 
BRANCH  34  35
HETATM   35  C20 UNL     1       5.908   3.643  -0.042  1.00  0.00     0.113 C 
HETATM   36  N1  UNL     1       7.145   3.890  -0.188  1.00  0.00    -0.256 N 
ATOM     37  H1  UNL     1       7.415   4.440  -1.004  1.00  0.00     0.195 HD
BRANCH  36  38
HETATM   38  O4  UNL     1       8.147   3.486   0.648  1.00  0.00    -0.288 OA
ATOM     39  H4  UNL     1       9.072   3.671   0.539  1.00  0.00     0.244 HD
ENDBRANCH  36  38
BRANCH  35  40
HETATM   40  N2  UNL     1       4.959   4.139  -1.010  1.00  0.00    -0.280 N 
HETATM   41  C21 UNL     1       5.009   4.500  -2.290  1.00  0.00     0.115 A 
HETATM   42  C22 UNL     1       3.736   4.883  -2.604  1.00  0.00     0.086 A 
HETATM   43  S1  UNL     1       3.335   4.513  -1.014  1.00  0.00    -0.017 SA
ENDBRANCH  35  40
ENDBRANCH  34  35
ENDBRANCH  33  34
ENDBRANCH  31  33
ENDBRANCH  24  31
ENDBRANCH  23  24
ENDBRANCH  22  23
ENDBRANCH  20  22
ENDBRANCH   4  20
BRANCH   1  44
HETATM   44  C2  UNL     1      -3.321  -4.053   0.494  1.00  0.00    -0.088 C 
HETATM   45  C1  UNL     1      -2.910  -5.126   1.133  1.00  0.00     0.014 C 
HETATM   46  C3  UNL     1      -4.352  -4.257  -0.565  1.00  0.00     0.043 C 
ENDBRANCH   1  44
BRANCH  11  47
HETATM   47  O6  UNL     1      -7.075   2.762  -1.153  1.00  0.00    -0.393 OA
ATOM     48  H6  UNL     1      -7.372   1.871  -1.298  1.00  0.00     0.210 HD
ENDBRANCH  11  47
BRANCH  10  49
HETATM   49  O5  UNL     1      -5.324   4.858  -2.068  1.00  0.00    -0.393 OA
ATOM     50  H5  UNL     1      -6.229   4.830  -2.355  1.00  0.00     0.210 HD
ENDBRANCH  10  49
TORSDOF 15
