REMARK  4 active torsions:
REMARK  status: ('A' for Active; 'I' for Inactive)
REMARK    1  A    between atoms: O1_2  and  C2_3 
REMARK       I    between atoms: C2_3  and  N1_5 
REMARK    2  A    between atoms: N1_5  and  N2_7 
REMARK    3  A    between atoms: C3_9  and  C4_10 
REMARK    4  A    between atoms: C7_14  and  O3_15 
ROOT
HETATM    1  C4  UNL     1      -1.127  -0.445   0.647  1.00  0.00    -0.000 A 
HETATM    2  C5  UNL     1      -1.936  -1.232  -0.143  1.00  0.00     0.036 A 
HETATM    3  C6  UNL     1      -3.304  -1.295   0.118  1.00  0.00     0.045 A 
HETATM    4 BR1  UNL     1      -4.427  -2.376  -0.964  1.00  0.00    -0.048 Br
HETATM    5  C7  UNL     1      -3.875  -0.587   1.153  1.00  0.00     0.084 A 
HETATM    6  C8  UNL     1      -3.062   0.200   1.943  1.00  0.00     0.057 A 
HETATM    7  C9  UNL     1      -1.691   0.266   1.684  1.00  0.00     0.025 A 
HETATM    8 BR2  UNL     1      -0.538   1.344   2.755  1.00  0.00    -0.050 Br
ENDROOT
BRANCH   1   9
HETATM    9  C3  UNL     1       0.317  -0.355   0.400  1.00  0.00     0.120 C 
HETATM   10  N2  UNL     1       0.813  -1.031  -0.575  1.00  0.00    -0.307 N 
ATOM     11  H2  UNL     1       0.216  -1.615  -1.161  1.00  0.00     0.186 HD
BRANCH  10  12
HETATM   12  N1  UNL     1       2.178  -0.949  -0.812  1.00  0.00    -0.246 N 
HETATM   13  C2  UNL     1       2.782   0.319  -0.963  1.00  0.00     0.379 C 
HETATM   14  O2  UNL     1       2.098   1.371  -0.885  1.00  0.00    -0.237 OA
ATOM     15  H1  UNL     1       2.741  -1.797  -0.877  1.00  0.00     0.192 HD
BRANCH  13  16
HETATM   16  O1  UNL     1       4.147   0.437  -1.201  1.00  0.00    -0.308 OA
HETATM   17  C1  UNL     1       4.816   1.656  -1.361  1.00  0.00     0.215 C 
ENDBRANCH  13  16
ENDBRANCH  10  12
ENDBRANCH   1   9
BRANCH   5  18
HETATM   18  O3  UNL     1      -5.236  -0.640   1.426  1.00  0.00    -0.359 OA
ATOM     19  H3  UNL     1      -5.630  -0.152   2.140  1.00  0.00     0.217 HD
ENDBRANCH   5  18
TORSDOF 4
