REMARK  5 active torsions:
REMARK  status: ('A' for Active; 'I' for Inactive)
REMARK    1  A    between atoms: C2_2  and  O1_4 
REMARK    2  A    between atoms: O1_4  and  C4_5 
REMARK       I    between atoms: C4_5  and  N1_7 
REMARK    3  A    between atoms: N1_7  and  N2_8 
REMARK    4  A    between atoms: C5_10  and  C6_11 
REMARK    5  A    between atoms: C7_12  and  O3_13 
ROOT
HETATM    1  C6  UNL     1      -1.395   0.422   0.362  1.00  0.00     0.080 C 
HETATM    2  C7  UNL     1      -1.481  -0.905  -0.360  1.00  0.00     0.130 C 
HETATM    3  C8  UNL     1      -2.896  -1.392  -0.161  1.00  0.00     0.055 C 
HETATM    4  C9  UNL     1      -3.723  -0.210   0.249  1.00  0.00     0.038 C 
HETATM    5  C10 UNL     1      -4.833   0.030  -0.741  1.00  0.00     0.029 C 
HETATM    6 BR1  UNL     1      -4.555  -0.684   1.951  1.00  0.00    -0.084 Br
HETATM    7  C11 UNL     1      -2.813   0.944   0.454  1.00  0.00     0.061 C 
HETATM    8  C12 UNL     1      -2.966   2.064  -0.541  1.00  0.00     0.035 C 
HETATM    9 CL1  UNL     1      -3.113   1.644   2.085  1.00  0.00    -0.117 Cl
ENDROOT
BRANCH   1  10
HETATM   10  C5  UNL     1      -0.867   0.244   1.723  1.00  0.00     0.103 C 
HETATM   11  N2  UNL     1       0.333   0.279   1.979  1.00  0.00    -0.245 N 
ATOM     12  H2  UNL     1       0.517   0.140   2.973  1.00  0.00     0.200 HD
BRANCH  11  13
HETATM   13  N1  UNL     1       1.425   0.449   1.301  1.00  0.00    -0.259 NA
HETATM   14  C4  UNL     1       2.556   0.625   0.599  1.00  0.00     0.458 C 
HETATM   15  O2  UNL     1       2.986   1.676  -0.010  1.00  0.00    -0.219 OA
BRANCH  14  16
HETATM   16  O1  UNL     1       3.517  -0.436   0.424  1.00  0.00    -0.287 OA
BRANCH  16  17
HETATM   17  C2  UNL     1       4.689  -0.247  -0.337  1.00  0.00     0.126 C 
HETATM   18  C1  UNL     1       4.880  -1.446  -1.215  1.00  0.00     0.040 C 
HETATM   19  C3  UNL     1       5.882  -0.235   0.661  1.00  0.00     0.040 C 
ENDBRANCH  16  17
ENDBRANCH  14  16
ENDBRANCH  11  13
ENDBRANCH   1  10
BRANCH   2  20
HETATM   20  O3  UNL     1      -1.246  -0.801  -1.725  1.00  0.00    -0.395 OA
ATOM     21  H3  UNL     1      -1.300  -1.634  -2.178  1.00  0.00     0.210 HD
ENDBRANCH   2  20
TORSDOF 5
