REMARK  8 active torsions:
REMARK  status: ('A' for Active; 'I' for Inactive)
REMARK    1  A    between atoms: C2_2  and  C3_3 
REMARK    2  A    between atoms: C2_2  and  N4_21 
REMARK    3  A    between atoms: C3_3  and  C4_4 
REMARK    4  A    between atoms: C7_7  and  C8_8 
REMARK    5  A    between atoms: C8_8  and  C9_9 
REMARK    6  A    between atoms: C9_9  and  N1_10 
REMARK    7  A    between atoms: N1_10  and  N2_12 
REMARK    8  A    between atoms: C10_17  and  O1_18 
ROOT
HETATM    1  C4  UNL     1      -0.258   0.570  -0.887  1.00  0.00     0.126 C 
HETATM    2  C5  UNL     1       0.950   0.774  -1.796  1.00  0.00     0.032 C 
HETATM    3  C6  UNL     1       2.150   0.014  -1.278  1.00  0.00     0.012 C 
HETATM    4  C7  UNL     1       2.539   0.669   0.041  1.00  0.00     0.042 C 
HETATM    5  C10 UNL     1       1.254   0.890   0.805  1.00  0.00     0.261 C 
HETATM    6  O2  UNL     1       0.260   0.071   0.330  1.00  0.00    -0.356 OA
ENDROOT
BRANCH   4   7
HETATM    7  C8  UNL     1       3.504  -0.206   0.814  1.00  0.00     0.030 C 
BRANCH   7   8
HETATM    8  C9  UNL     1       4.750  -0.420  -0.012  1.00  0.00     0.141 C 
BRANCH   8   9
HETATM    9  N1  UNL     1       5.705  -1.244   0.664  1.00  0.00    -0.323 N 
ATOM     10  H1  UNL     1       6.004  -2.124   0.244  1.00  0.00     0.181 HD
BRANCH   9  11
HETATM   11  N2  UNL     1       6.228  -0.848   1.894  1.00  0.00    -0.254 N 
HETATM   12  N3  UNL     1       6.425   0.403   2.068  1.00  0.00    -0.331 N 
ATOM     13  H32 UNL     1       6.204   1.070   1.329  1.00  0.00     0.178 HD
ATOM     14  H31 UNL     1       6.808   0.693   2.968  1.00  0.00     0.178 HD
ATOM     15  H2  UNL     1       6.444  -1.527   2.624  1.00  0.00     0.207 HD
ENDBRANCH   9  11
ENDBRANCH   8   9
ENDBRANCH   7   8
ENDBRANCH   4   7
BRANCH   5  16
HETATM   16  O1  UNL     1       1.421   0.597   2.175  1.00  0.00    -0.371 OA
ATOM     17  H1  UNL     1       0.613   0.736   2.655  1.00  0.00     0.212 HD
ENDBRANCH   5  16
BRANCH   1  18
HETATM   18  C3  UNL     1      -1.107  -0.483  -1.552  1.00  0.00     0.056 C 
BRANCH  18  19
HETATM   19  C2  UNL     1      -2.359  -0.837  -0.819  1.00  0.00     0.077 C 
HETATM   20  C1  UNL     1      -2.093  -1.366   0.574  1.00  0.00     0.032 C 
BRANCH  19  21
HETATM   21  N4  UNL     1      -3.410   0.079  -0.800  1.00  0.00    -0.408 N 
HETATM   22  C11 UNL     1      -3.351   1.277  -0.091  1.00  0.00     0.117 C 
HETATM   23  C12 UNL     1      -4.743   1.565   0.479  1.00  0.00     0.021 C 
HETATM   24  C13 UNL     1      -5.397   0.205   0.450  1.00  0.00     0.021 C 
HETATM   25  C14 UNL     1      -4.732  -0.494  -0.699  1.00  0.00     0.117 C 
ENDBRANCH  19  21
ENDBRANCH  18  19
ENDBRANCH   1  18
TORSDOF 8
