REMARK  10 active torsions:
REMARK  status: ('A' for Active; 'I' for Inactive)
REMARK    1  A    between atoms: O1_2  and  C2_3 
REMARK    2  A    between atoms: C3_4  and  O2_5 
REMARK    3  A    between atoms: O2_5  and  C4_6 
REMARK    4  A    between atoms: C4_6  and  C5_8 
REMARK    5  A    between atoms: C5_8  and  O4_9 
REMARK    6  A    between atoms: N1_11  and  C6_12 
REMARK    7  A    between atoms: C6_12  and  O5_13 
REMARK    8  A    between atoms: C8_16  and  C9_17 
REMARK    9  A    between atoms: C13_23  and  N3_24 
REMARK   10  A    between atoms: C17_38  and  N8_39 
REMARK       I    between atoms: N8_39  and  C18_41 
REMARK       I    between atoms: C18_41  and  N9_42 
REMARK       I    between atoms: C18_41  and  N10_46 
ROOT
HETATM    1  N8  UNL     1      -3.336  -1.714  -0.723  1.00  0.00    -0.329 N 
ATOM      2  H8  UNL     1      -4.187  -1.152  -0.713  1.00  0.00     0.165 HD
HETATM    3  C18 UNL     1      -3.717  -3.003  -0.983  1.00  0.00     0.396 C 
HETATM    4  N9  UNL     1      -3.821  -3.890   0.166  1.00  0.00    -0.040 N 
ATOM      5  H91 UNL     1      -4.105  -4.850  -0.028  1.00  0.00     0.279 HD
ATOM      6  H92 UNL     1      -4.445  -3.480   0.861  1.00  0.00     0.279 HD
ATOM      7  H93 UNL     1      -2.941  -3.889   0.682  1.00  0.00     0.279 HD
HETATM    8  N10 UNL     1      -5.081  -3.022  -1.573  1.00  0.00    -0.284 N 
ATOM      9  H10 UNL     1      -5.594  -2.155  -1.730  1.00  0.00     0.175 HD
HETATM   10  C19 UNL     1      -5.641  -4.250  -1.906  1.00  0.00     0.180 C 
HETATM   11  N11 UNL     1      -6.123  -5.285  -2.191  1.00  0.00    -0.172 NA
ENDROOT
BRANCH   1  12
HETATM   12  C17 UNL     1      -2.404  -0.948  -0.497  1.00  0.00     0.166 A 
HETATM   13  C2  UNL     1      -2.725   0.395  -0.298  1.00  0.00     0.166 A 
HETATM   14  C3  UNL     1      -1.792   1.341  -0.043  1.00  0.00     0.194 A 
HETATM   15  N1  UNL     1      -0.491   1.015   0.030  1.00  0.00    -0.286 N 
HETATM   16  C7  UNL     1      -0.130  -0.290  -0.159  1.00  0.00     0.153 A 
HETATM   17  C8  UNL     1       1.077  -0.951  -0.109  1.00  0.00     0.099 A 
HETATM   18  N7  UNL     1      -1.082  -1.235  -0.415  1.00  0.00    -0.218 N 
HETATM   19  C16 UNL     1       0.786  -2.310  -0.347  1.00  0.00     0.132 A 
HETATM   20  N5  UNL     1       1.638  -3.240  -0.437  1.00  0.00    -0.384 N 
HETATM   21  N6  UNL     1      -0.527  -2.420  -0.523  1.00  0.00    -0.275 N 
ATOM     22  H52 UNL     1       2.645  -3.156  -0.302  1.00  0.00     0.157 HD
ATOM     23  H51 UNL     1       1.427  -4.223  -0.609  1.00  0.00     0.157 HD
ATOM     24  H6  UNL     1      -1.026  -3.289  -0.712  1.00  0.00     0.189 HD
BRANCH  13  25
HETATM   25  O1  UNL     1      -4.056   0.764  -0.367  1.00  0.00    -0.349 OA
HETATM   26  C1  UNL     1      -4.787   0.715   0.867  1.00  0.00     0.210 C 
ENDBRANCH  13  25
BRANCH  14  27
HETATM   27  O2  UNL     1      -2.158   2.670   0.150  1.00  0.00    -0.256 OA
BRANCH  27  28
HETATM   28  C4  UNL     1      -2.380   3.547  -0.918  1.00  0.00     0.289 C 
HETATM   29  O3  UNL     1      -2.230   3.072  -2.071  1.00  0.00    -0.262 OA
BRANCH  28  30
HETATM   30  C5  UNL     1      -2.768   4.959  -0.771  1.00  0.00     0.275 C 
BRANCH  30  31
HETATM   31  O4  UNL     1      -2.899   5.358   0.541  1.00  0.00    -0.391 OA
ATOM     32  H4  UNL     1      -3.149   6.269   0.636  1.00  0.00     0.210 HD
ENDBRANCH  30  31
ENDBRANCH  28  30
ENDBRANCH  27  28
ENDBRANCH  14  27
BRANCH  15  33
HETATM   33  C6  UNL     1       0.475   2.023   0.371  1.00  0.00     0.299 C 
BRANCH  33  34
HETATM   34  O5  UNL     1       0.832   2.010   1.732  1.00  0.00    -0.382 OA
ATOM     35  H5  UNL     1       1.471   2.676   1.957  1.00  0.00     0.211 HD
ENDBRANCH  33  34
ENDBRANCH  15  33
BRANCH  17  36
HETATM   36  C9  UNL     1       2.428  -0.444   0.041  1.00  0.00     0.124 A 
HETATM   37  N2  UNL     1       3.124   0.543  -0.480  1.00  0.00    -0.340 N 
HETATM   38  C10 UNL     1       4.409   0.540  -0.149  1.00  0.00     0.060 A 
ATOM     39  H2  UNL     1       2.711   1.251  -1.087  1.00  0.00     0.167 HD
HETATM   40  C11 UNL     1       5.486   1.359  -0.454  1.00  0.00     0.034 A 
HETATM   41  C15 UNL     1       4.570  -0.553   0.665  1.00  0.00     0.063 A 
HETATM   42  C12 UNL     1       6.737   1.101   0.047  1.00  0.00     0.038 A 
HETATM   43  C13 UNL     1       6.893  -0.005   0.869  1.00  0.00     0.105 A 
HETATM   44  C14 UNL     1       5.816  -0.823   1.173  1.00  0.00     0.068 A 
HETATM   45  N4  UNL     1       3.372  -1.135   0.771  1.00  0.00    -0.340 N 
ATOM     46  H4  UNL     1       3.182  -1.975   1.317  1.00  0.00     0.167 HD
BRANCH  43  47
HETATM   47  N3  UNL     1       8.177  -0.281   1.391  1.00  0.00    -0.116 N 
HETATM   48  O6  UNL     1       9.164   0.426   1.143  1.00  0.00    -0.532 OA
HETATM   49  O7  UNL     1       8.343  -1.369   2.204  1.00  0.00    -0.532 OA
ENDBRANCH  43  47
ENDBRANCH  17  36
ENDBRANCH   1  12
TORSDOF 10
