REMARK  7 active torsions:
REMARK  status: ('A' for Active; 'I' for Inactive)
REMARK    1  A    between atoms: C2_2  and  C3_3 
REMARK    2  A    between atoms: N2_6  and  C4_7 
REMARK    3  A    between atoms: C4_7  and  C5_8 
REMARK    4  A    between atoms: C6_9  and  C7_10 
REMARK    5  A    between atoms: C7_10  and  C8_11 
REMARK    6  A    between atoms: C8_11  and  C9_12 
REMARK    7  A    between atoms: C9_12  and  C12_15 
ROOT
HETATM    1  C4  UNL     1      -1.421  -2.548   0.490  1.00  0.00     0.244 C 
ENDROOT
BRANCH   1   2
HETATM    2  N2  UNL     1      -2.378  -1.525   0.128  1.00  0.00    -0.275 N 
HETATM    3  N1  UNL     1      -3.016  -0.668   0.903  1.00  0.00    -0.285 N 
HETATM    4  C3  UNL     1      -3.823   0.121   0.175  1.00  0.00     0.098 A 
ATOM      5  H1  UNL     1      -2.911  -0.613   1.916  1.00  0.00     0.188 HD
HETATM    6  N4  UNL     1      -3.690  -0.253  -1.109  1.00  0.00    -0.335 N 
HETATM    7  C13 UNL     1      -2.790  -1.276  -1.124  1.00  0.00     0.205 A 
HETATM    8  C14 UNL     1      -4.366   0.314  -2.259  1.00  0.00     0.158 C 
BRANCH   4   9
HETATM    9  C2  UNL     1      -4.724   1.221   0.633  1.00  0.00     0.073 C 
HETATM   10  C1  UNL     1      -6.102   0.732   0.967  1.00  0.00     0.013 C 
ENDBRANCH   4   9
ENDBRANCH   1   2
BRANCH   1  11
HETATM   11  C5  UNL     1      -0.087  -1.906   0.431  1.00  0.00    -0.071 C 
HETATM   12  C6  UNL     1       0.997  -1.378   0.370  1.00  0.00    -0.013 C 
BRANCH  12  13
HETATM   13  C7  UNL     1       2.268  -0.758   0.323  1.00  0.00    -0.014 C 
BRANCH  13  14
HETATM   14  C8  UNL     1       3.371  -0.232   0.295  1.00  0.00    -0.074 C 
BRANCH  14  15
HETATM   15  C9  UNL     1       4.698   0.383   0.269  1.00  0.00     0.095 C 
HETATM   16  C10 UNL     1       4.608   1.698   1.012  1.00  0.00     0.039 C 
HETATM   17  C11 UNL     1       5.707  -0.498   0.991  1.00  0.00     0.039 C 
BRANCH  15  18
HETATM   18  C12 UNL     1       5.145   0.550  -1.115  1.00  0.00     0.251 C 
HETATM   19  N3  UNL     1       6.403   1.125  -1.417  1.00  0.00    -0.061 NA
HETATM   20  O1  UNL     1       4.405   0.179  -2.055  1.00  0.00    -0.275 OA
ENDBRANCH  15  18
ENDBRANCH  14  15
ENDBRANCH  13  14
ENDBRANCH  12  13
ENDBRANCH   1  11
TORSDOF 7
