REMARK  2 active torsions:
REMARK  status: ('A' for Active; 'I' for Inactive)
REMARK       I    between atoms: C2_2  and  N1_4 
REMARK       I    between atoms: C3_6  and  N2_7 
REMARK       I    between atoms: C3_6  and  N4_19 
REMARK    1  A    between atoms: N3_14  and  O2_15 
REMARK    2  A    between atoms: N4_19  and  N5_21 
ROOT
HETATM    1  C1  UNL     1       4.751   0.361   0.812  1.00  0.00     0.118 C 
HETATM    2  C2  UNL     1       3.409   0.055   1.346  1.00  0.00     0.232 C 
HETATM    3  O1  UNL     1       3.300  -0.710   2.329  1.00  0.00    -0.273 OA
HETATM    4  N1  UNL     1       2.277   0.616   0.757  1.00  0.00    -0.159 N 
ATOM      5  H1  UNL     1       1.667   1.166   1.362  1.00  0.00     0.187 HD
HETATM    6  C3  UNL     1       1.930   0.507  -0.468  1.00  0.00     0.700 C 
HETATM    7  N2  UNL     1       0.748   1.138  -0.912  1.00  0.00    -0.196 N 
ATOM      8  H2  UNL     1       0.849   1.977  -1.484  1.00  0.00     0.184 HD
HETATM    9  C4  UNL     1      -0.433   0.743  -0.655  1.00  0.00     0.026 C 
HETATM   10  C5  UNL     1      -0.850  -0.419   0.134  1.00  0.00     0.081 C 
HETATM   11  C6  UNL     1      -2.316  -0.555  -0.107  1.00  0.00     0.037 C 
HETATM   12  C7  UNL     1      -3.139  -0.369   1.166  1.00  0.00     0.034 C 
HETATM   13  C8  UNL     1      -2.562  -1.961  -0.663  1.00  0.00     0.034 C 
HETATM   14  N3  UNL     1      -2.730   0.453  -1.034  1.00  0.00    -0.181 NA
HETATM   15  C9  UNL     1      -1.663   1.427  -1.135  1.00  0.00     0.129 C 
HETATM   16  C10 UNL     1      -2.002   2.583  -0.215  1.00  0.00     0.035 C 
HETATM   17  N4  UNL     1       2.728  -0.241  -1.358  1.00  0.00    -0.118 N 
ATOM     18  H4  UNL     1       3.485   0.229  -1.854  1.00  0.00     0.207 HD
ENDROOT
BRANCH  17  19
HETATM   19  N5  UNL     1       2.517  -1.611  -1.586  1.00  0.00    -0.235 N 
HETATM   20  N6  UNL     1       2.540  -2.476  -0.657  1.00  0.00    -0.330 N 
ATOM     21  H62 UNL     1       2.721  -2.145   0.291  1.00  0.00     0.178 HD
ATOM     22  H61 UNL     1       2.387  -3.471  -0.823  1.00  0.00     0.178 HD
ATOM     23  H5  UNL     1       2.337  -1.925  -2.540  1.00  0.00     0.208 HD
ENDBRANCH  17  19
BRANCH  14  24
HETATM   24  O2  UNL     1      -3.065  -0.050  -2.245  1.00  0.00    -0.312 OA
ATOM     25  H2  UNL     1      -3.340   0.619  -2.861  1.00  0.00     0.237 HD
ENDBRANCH  14  24
TORSDOF 2
