REMARK  16 active torsions:
REMARK  status: ('A' for Active; 'I' for Inactive)
REMARK    1  A    between atoms: C2_2  and  C3_3 
REMARK    2  A    between atoms: C3_3  and  C4_4 
REMARK    3  A    between atoms: C4_4  and  C5_5 
REMARK    4  A    between atoms: C5_5  and  C6_6 
REMARK    5  A    between atoms: C6_6  and  C7_7 
REMARK    6  A    between atoms: C7_7  and  C8_8 
REMARK    7  A    between atoms: C8_8  and  C9_9 
REMARK    8  A    between atoms: C9_9  and  C10_10 
REMARK    9  A    between atoms: C10_10  and  C11_11 
REMARK   10  A    between atoms: C11_11  and  C12_12 
REMARK   11  A    between atoms: C12_12  and  N1_13 
REMARK       I    between atoms: N1_13  and  C13_15 
REMARK   12  A    between atoms: C13_15  and  C14_17 
REMARK   13  A    between atoms: C14_17  and  N2_18 
REMARK   14  A    between atoms: C16_25  and  C17_26 
REMARK       I    between atoms: N5_29  and  C20_30 
REMARK   15  A    between atoms: C20_30  and  C21_32 
REMARK   16  A    between atoms: C21_32  and  N6_33 
ROOT
HETATM    1  N2  UNL     1      -1.637  -0.002   2.137  1.00  0.00    -0.247 N 
HETATM    2  N3  UNL     1      -1.540   1.382   1.875  1.00  0.00    -0.246 N 
ATOM      3  H3  UNL     1      -1.050   1.975   2.545  1.00  0.00     0.192 HD
HETATM    4  C15 UNL     1      -2.105   1.986   0.703  1.00  0.00     0.335 C 
HETATM    5  O2  UNL     1      -1.985   3.247   0.518  1.00  0.00    -0.246 OA
HETATM    6  N4  UNL     1      -2.782   1.163  -0.217  1.00  0.00    -0.328 N 
ATOM      7  H4  UNL     1      -2.859   1.422  -1.200  1.00  0.00     0.165 HD
HETATM    8  C16 UNL     1      -3.375  -0.086   0.291  1.00  0.00     0.184 C 
HETATM    9  C25 UNL     1      -2.337  -0.748   1.152  1.00  0.00     0.262 C 
HETATM   10  O4  UNL     1      -2.089  -1.948   1.003  1.00  0.00    -0.269 OA
ENDROOT
BRANCH   1  11
HETATM   11  C14 UNL     1      -1.062  -0.585   3.321  1.00  0.00     0.255 C 
BRANCH  11  12
HETATM   12  C13 UNL     1       0.327  -1.031   3.135  1.00  0.00     0.237 C 
HETATM   13  N1  UNL     1       1.020  -0.904   1.911  1.00  0.00    -0.360 N 
ATOM     14  H1  UNL     1       0.519  -0.482   1.129  1.00  0.00     0.162 HD
HETATM   15  O1  UNL     1       0.934  -1.552   4.106  1.00  0.00    -0.272 OA
BRANCH  13  16
HETATM   16  C12 UNL     1       2.364  -1.319   1.683  1.00  0.00     0.122 C 
BRANCH  16  17
HETATM   17  C11 UNL     1       3.385  -0.632   2.560  1.00  0.00     0.020 C 
BRANCH  17  18
HETATM   18  C10 UNL     1       3.381   0.859   2.354  1.00  0.00     0.002 C 
BRANCH  18  19
HETATM   19  C9  UNL     1       3.694   1.248   0.939  1.00  0.00     0.000 C 
BRANCH  19  20
HETATM   20  C8  UNL     1       5.061   0.753   0.495  1.00  0.00     0.000 C 
BRANCH  20  21
HETATM   21  C7  UNL     1       6.139   1.330   1.366  1.00  0.00     0.000 C 
BRANCH  21  22
HETATM   22  C6  UNL     1       7.493   0.838   0.961  1.00  0.00     0.000 C 
BRANCH  22  23
HETATM   23  C5  UNL     1       7.792   1.225  -0.454  1.00  0.00     0.000 C 
BRANCH  23  24
HETATM   24  C4  UNL     1       9.167   0.755  -0.892  1.00  0.00     0.000 C 
BRANCH  24  25
HETATM   25  C3  UNL     1       9.402   1.178  -2.309  1.00  0.00    -0.000 C 
BRANCH  25  26
HETATM   26  C2  UNL     1       8.396   0.603  -3.255  1.00  0.00    -0.005 C 
HETATM   27  C1  UNL     1       8.423  -0.915  -3.229  1.00  0.00     0.005 C 
ENDBRANCH  25  26
ENDBRANCH  24  25
ENDBRANCH  23  24
ENDBRANCH  22  23
ENDBRANCH  21  22
ENDBRANCH  20  21
ENDBRANCH  19  20
ENDBRANCH  18  19
ENDBRANCH  17  18
ENDBRANCH  16  17
ENDBRANCH  13  16
ENDBRANCH  11  12
ENDBRANCH   1  11
BRANCH   8  28
HETATM   28  C17 UNL     1      -3.805  -0.893  -0.878  1.00  0.00     0.021 C 
HETATM   29  C18 UNL     1      -4.549  -2.146  -0.600  1.00  0.00     0.027 C 
HETATM   30  C19 UNL     1      -6.052  -1.949  -0.545  1.00  0.00     0.126 C 
HETATM   31  N5  UNL     1      -6.565  -1.139  -1.604  1.00  0.00    -0.351 N 
HETATM   32  C20 UNL     1      -7.941  -0.862  -1.660  1.00  0.00     0.237 C 
HETATM   33  C23 UNL     1      -5.645  -0.630  -2.587  1.00  0.00     0.126 C 
HETATM   34  O3  UNL     1      -8.446  -0.144  -2.586  1.00  0.00    -0.272 OA
HETATM   35  C24 UNL     1      -4.489   0.010  -1.878  1.00  0.00     0.027 C 
BRANCH  32  36
HETATM   36  C21 UNL     1      -8.880  -1.393  -0.644  1.00  0.00     0.224 C 
BRANCH  36  37
HETATM   37  N6  UNL     1     -10.239  -0.989  -0.895  1.00  0.00    -0.358 N 
HETATM   38  C22 UNL     1     -10.753   0.126  -0.548  1.00  0.00     0.197 C 
HETATM   39  N7  UNL     1     -12.134   0.319  -0.903  1.00  0.00    -0.067 NA
HETATM   40  N8  UNL     1     -10.077   1.150   0.140  1.00  0.00    -0.067 NA
ATOM     41  H6  UNL     1     -10.840  -1.648  -1.391  1.00  0.00     0.162 HD
ENDBRANCH  36  37
ENDBRANCH  32  36
ENDBRANCH   8  28
TORSDOF 16
