REMARK  4 active torsions:
REMARK  status: ('A' for Active; 'I' for Inactive)
REMARK       I    between atoms: N1_2  and  C2_4 
REMARK    1  A    between atoms: C2_4  and  C3_6 
REMARK       I    between atoms: C3_6  and  N2_8 
REMARK    2  A    between atoms: N2_8  and  C4_10 
REMARK    3  A    between atoms: C4_10  and  C5_11 
REMARK       I    between atoms: C5_11  and  N3_13 
REMARK    4  A    between atoms: N3_13  and  N4_15 
REMARK       I    between atoms: N4_15  and  C6_17 
REMARK       I    between atoms: N6_19  and  C7_21 
REMARK       I    between atoms: C7_21  and  N8_25 
ROOT
HETATM    1  C5  UNL     1       0.634   1.307   0.890  1.00  0.00     0.253 C 
HETATM    2  O3  UNL     1      -0.558   1.791   0.841  1.00  0.00    -0.270 OA
HETATM    3  N3  UNL     1       0.832  -0.072   0.963  1.00  0.00    -0.266 N 
ATOM      4  H3  UNL     1       1.787  -0.426   1.010  1.00  0.00     0.190 HD
ENDROOT
BRANCH   3   5
HETATM    5  N4  UNL     1      -0.211  -0.979   0.975  1.00  0.00    -0.270 N 
HETATM    6  C6  UNL     1      -1.555  -0.553   0.869  1.00  0.00     0.221 C 
HETATM    7  N5  UNL     1      -2.315  -0.282   2.019  1.00  0.00    -0.061 NA
HETATM    8  N6  UNL     1      -2.054  -0.446  -0.315  1.00  0.00    -0.163 N 
HETATM    9  C7  UNL     1      -3.370  -0.036  -0.599  1.00  0.00     0.675 C 
ATOM     10  H6  UNL     1      -1.450  -0.676  -1.104  1.00  0.00     0.187 HD
HETATM   11  N7  UNL     1      -3.508   1.097  -1.207  1.00  0.00    -0.235 N 
HETATM   12  N8  UNL     1      -4.503  -0.813  -0.242  1.00  0.00    -0.227 N 
ATOM     13  H72 UNL     1      -2.694   1.655  -1.464  1.00  0.00     0.174 HD
ATOM     14  H71 UNL     1      -4.462   1.394  -1.413  1.00  0.00     0.174 HD
HETATM   15  C8  UNL     1      -5.767  -0.135   0.029  1.00  0.00     0.168 C 
HETATM   16  C9  UNL     1      -4.497  -2.250  -0.127  1.00  0.00     0.168 C 
ATOM     17  H4  UNL     1      -0.007  -1.975   1.062  1.00  0.00     0.189 HD
ENDBRANCH   3   5
BRANCH   1  18
HETATM   18  C4  UNL     1       1.689   2.334   0.864  1.00  0.00     0.227 C 
BRANCH  18  19
HETATM   19  N2  UNL     1       3.003   1.789   0.836  1.00  0.00    -0.344 N 
HETATM   20  C3  UNL     1       3.529   1.021  -0.223  1.00  0.00     0.309 C 
HETATM   21  O2  UNL     1       2.793   0.805  -1.232  1.00  0.00    -0.262 OA
ATOM     22  H2  UNL     1       3.607   1.966   1.639  1.00  0.00     0.163 HD
BRANCH  20  23
HETATM   23  C2  UNL     1       4.884   0.477  -0.186  1.00  0.00     0.308 C 
HETATM   24  N1  UNL     1       5.401  -0.284  -1.250  1.00  0.00    -0.357 N 
HETATM   25  C1  UNL     1       6.747  -0.809  -1.181  1.00  0.00     0.149 C 
ATOM     26  H1  UNL     1       4.825  -0.466  -2.072  1.00  0.00     0.162 HD
HETATM   27  O1  UNL     1       5.588   0.701   0.821  1.00  0.00    -0.262 OA
ENDBRANCH  20  23
ENDBRANCH  18  19
ENDBRANCH   1  18
TORSDOF 4
