REMARK  3 active torsions:
REMARK  status: ('A' for Active; 'I' for Inactive)
REMARK    1  A    between atoms: C9_11  and  C10_12 
REMARK    2  A    between atoms: C11_13  and  O1_14 
REMARK    3  A    between atoms: N2_16  and  C12_17 
ROOT
HETATM    1  C10 UNL     1       0.993  -0.307  -0.265  1.00  0.00     0.112 C 
HETATM    2  C11 UNL     1       1.648   0.748   0.113  1.00  0.00     0.190 C 
HETATM    3  N2  UNL     1       3.073   0.494  -0.076  1.00  0.00    -0.212 N 
HETATM    4  N4  UNL     1       3.160  -0.532  -1.035  1.00  0.00    -0.012 NA
HETATM    5  N5  UNL     1       2.039  -1.279  -0.563  1.00  0.00    -0.279 N 
ATOM      6  H5  UNL     1       1.981  -2.292  -0.455  1.00  0.00     0.184 HD
ENDROOT
BRANCH   1   7
HETATM    7  C9  UNL     1      -0.413  -0.655  -0.312  1.00  0.00     0.034 A 
HETATM    8  C2  UNL     1      -0.941  -1.725  -1.191  1.00  0.00     0.036 A 
HETATM    9  C1  UNL     1      -0.339  -2.603  -1.951  1.00  0.00     0.044 C 
HETATM   10  N1  UNL     1      -2.350  -1.623  -1.102  1.00  0.00    -0.355 N 
HETATM   11  C3  UNL     1      -2.605  -0.658  -0.310  1.00  0.00     0.043 A 
ATOM     12  H1  UNL     1      -3.032  -2.211  -1.581  1.00  0.00     0.166 HD
HETATM   13  C4  UNL     1      -3.872  -0.229   0.054  1.00  0.00     0.030 A 
HETATM   14  C8  UNL     1      -1.487  -0.049   0.191  1.00  0.00     0.005 A 
HETATM   15  C5  UNL     1      -4.063   0.804   0.922  1.00  0.00     0.002 A 
HETATM   16  C6  UNL     1      -2.937   1.409   1.429  1.00  0.00     0.001 A 
HETATM   17  C7  UNL     1      -1.663   1.006   1.085  1.00  0.00     0.014 A 
ENDBRANCH   1   7
BRANCH   2  18
HETATM   18  O1  UNL     1       1.235   1.986   0.627  1.00  0.00    -0.343 OA
ATOM     19  H1  UNL     1       1.714   2.758   0.904  1.00  0.00     0.219 HD
ENDBRANCH   2  18
BRANCH   3  20
HETATM   20  C12 UNL     1       4.128   1.163   0.588  1.00  0.00     0.200 C 
HETATM   21  N3  UNL     1       4.140   1.280   1.870  1.00  0.00    -0.394 N 
ATOM     22  H32 UNL     1       3.368   0.878   2.401  1.00  0.00     0.156 HD
ATOM     23  H31 UNL     1       4.901   1.762   2.349  1.00  0.00     0.156 HD
ENDBRANCH   3  20
TORSDOF 3
