REMARK  12 active torsions:
REMARK  status: ('A' for Active; 'I' for Inactive)
REMARK       I    between atoms: C2_2  and  N1_4 
REMARK    1  A    between atoms: N1_4  and  C3_6 
REMARK    2  A    between atoms: C4_9  and  C5_10 
REMARK    3  A    between atoms: C5_10  and  O2_11 
REMARK    4  A    between atoms: C5_10  and  O3_13 
REMARK    5  A    between atoms: C6_16  and  N3_17 
REMARK       I    between atoms: N3_17  and  C7_19 
REMARK       I    between atoms: C7_19  and  N6_25 
REMARK    6  A    between atoms: N4_20  and  N5_22 
REMARK    7  A    between atoms: N6_25  and  N7_27 
REMARK    8  A    between atoms: C8_29  and  N8_30 
REMARK    9  A    between atoms: C8_29  and  O6_35 
REMARK   10  A    between atoms: N8_30  and  N9_32 
REMARK   11  A    between atoms: O6_35  and  N10_36 
REMARK   12  A    between atoms: C9_39  and  N11_40 
ROOT
HETATM    1  N3  UNL     1       0.554  -1.475   0.297  1.00  0.00    -0.180 N 
ATOM      2  H3  UNL     1       0.357  -2.359   0.766  1.00  0.00     0.185 HD
HETATM    3  C7  UNL     1       1.880  -1.239  -0.059  1.00  0.00     0.712 C 
HETATM    4  N4  UNL     1       2.624  -2.181  -0.473  1.00  0.00    -0.137 N 
ATOM      5  H4  UNL     1       3.585  -1.943  -0.717  1.00  0.00     0.205 HD
HETATM    6  N6  UNL     1       2.431   0.067   0.034  1.00  0.00    -0.128 N 
ATOM      7  H6  UNL     1       2.011   0.751   0.664  1.00  0.00     0.205 HD
ENDROOT
BRANCH   1   8
HETATM    8  C6  UNL     1      -0.451  -0.692   0.095  1.00  0.00     0.129 A 
HETATM    9  S1  UNL     1      -0.376   0.832  -0.665  1.00  0.00    -0.051 SA
HETATM   10  C4  UNL     1      -1.885   1.612  -0.774  1.00  0.00     0.110 A 
HETATM   11  N2  UNL     1      -2.895   0.918  -0.250  1.00  0.00    -0.334 N 
HETATM   12  C3  UNL     1      -2.847  -0.276   0.327  1.00  0.00     0.145 A 
ATOM     13  H2  UNL     1      -3.814   1.357  -0.298  1.00  0.00     0.168 HD
HETATM   14  C9  UNL     1      -1.719  -1.053   0.502  1.00  0.00     0.181 A 
BRANCH  10  15
HETATM   15  C5  UNL     1      -2.104   2.966  -1.397  1.00  0.00     0.312 C 
BRANCH  15  16
HETATM   16  O2  UNL     1      -2.930   3.738  -0.569  1.00  0.00    -0.365 OA
ATOM     17  H2  UNL     1      -3.068   4.592  -0.962  1.00  0.00     0.213 HD
ENDBRANCH  15  16
BRANCH  15  18
HETATM   18  O3  UNL     1      -0.897   3.657  -1.511  1.00  0.00    -0.365 OA
ATOM     19  H3  UNL     1      -1.035   4.511  -1.904  1.00  0.00     0.213 HD
ENDBRANCH  15  18
ENDBRANCH  10  15
BRANCH  12  20
HETATM   20  N1  UNL     1      -4.080  -0.831   0.822  1.00  0.00    -0.311 N 
HETATM   21  C2  UNL     1      -5.319  -0.152   0.714  1.00  0.00     0.219 C 
HETATM   22  C1  UNL     1      -6.594  -0.748   1.237  1.00  0.00     0.117 C 
HETATM   23  O1  UNL     1      -5.318   0.978   0.161  1.00  0.00    -0.274 OA
ATOM     24  H1  UNL     1      -4.061  -1.748   1.268  1.00  0.00     0.170 HD
ENDBRANCH  12  20
BRANCH  14  25
HETATM   25  N11 UNL     1      -1.819  -2.343   1.153  1.00  0.00    -0.109 N 
HETATM   26  O7  UNL     1      -2.313  -3.320   0.610  1.00  0.00    -0.532 OA
HETATM   27  O8  UNL     1      -1.328  -2.428   2.429  1.00  0.00    -0.532 OA
ENDBRANCH  14  25
ENDBRANCH   1   8
BRANCH   4  28
HETATM   28  N5  UNL     1       2.243  -3.504  -0.622  1.00  0.00    -0.331 N 
ATOM     29  H52 UNL     1       1.278  -3.724  -0.373  1.00  0.00     0.177 HD
ATOM     30  H51 UNL     1       2.841  -4.261  -0.955  1.00  0.00     0.177 HD
ENDBRANCH   4  28
BRANCH   6  31
HETATM   31  N7  UNL     1       3.536   0.418  -0.727  1.00  0.00    -0.248 N 
HETATM   32  C8  UNL     1       4.609   0.936  -0.289  1.00  0.00     0.281 C 
ATOM     33  H7  UNL     1       3.482   0.244  -1.731  1.00  0.00     0.191 HD
BRANCH  32  34
HETATM   34  N8  UNL     1       5.674   1.251  -1.188  1.00  0.00    -0.202 N 
ATOM     35  H8  UNL     1       5.607   2.067  -1.796  1.00  0.00     0.197 HD
BRANCH  34  36
HETATM   36  N9  UNL     1       6.802   0.439  -1.230  1.00  0.00    -0.036 N 
HETATM   37  O4  UNL     1       6.605  -0.803  -1.262  1.00  0.00    -0.516 OA
HETATM   38  O5  UNL     1       8.086   0.892  -1.238  1.00  0.00    -0.516 OA
ENDBRANCH  34  36
ENDBRANCH  32  34
BRANCH  32  39
HETATM   39  O6  UNL     1       4.755   1.200   1.064  1.00  0.00    -0.205 OA
BRANCH  39  40
HETATM   40  N10 UNL     1       4.270   0.372   2.018  1.00  0.00    -0.302 N 
ATOM     41 2H10 UNL     1       3.783  -0.471   1.714  1.00  0.00     0.184 HD
ATOM     42 1H10 UNL     1       4.377   0.566   3.014  1.00  0.00     0.184 HD
ENDBRANCH  39  40
ENDBRANCH  32  39
ENDBRANCH   6  31
TORSDOF 12
