REMARK  3 active torsions:
REMARK  status: ('A' for Active; 'I' for Inactive)
REMARK    1  A    between atoms: C2_2  and  C3_3 
REMARK    2  A    between atoms: C3_3  and  N1_4 
REMARK       I    between atoms: N1_4  and  C4_5 
REMARK    3  A    between atoms: C4_5  and  C5_7 
REMARK       I    between atoms: N2_15  and  C13_16 
ROOT
HETATM    1  C5  UNL     1       0.390  -0.196   0.684  1.00  0.00     0.105 C 
HETATM    2  C6  UNL     1      -0.222   1.125   0.322  1.00  0.00     0.069 C 
HETATM    3  C7  UNL     1      -0.571   1.382  -1.074  1.00  0.00    -0.019 C 
HETATM    4  C8  UNL     1      -1.298   0.545  -1.980  1.00  0.00    -0.030 C 
HETATM    5  C9  UNL     1      -2.073  -0.647  -1.616  1.00  0.00     0.027 C 
HETATM    6  C10 UNL     1      -3.228  -0.512  -0.709  1.00  0.00     0.010 C 
HETATM    7  C11 UNL     1      -2.889  -0.035   0.692  1.00  0.00     0.009 C 
HETATM    8  C12 UNL     1      -2.057  -1.074   1.322  1.00  0.00     0.136 C 
HETATM    9  N2  UNL     1      -0.633  -1.091   1.122  1.00  0.00    -0.318 N 
HETATM   10  C13 UNL     1      -0.105  -2.367   1.515  1.00  0.00     0.188 C 
HETATM   11  N3  UNL     1      -0.591  -3.403   0.887  1.00  0.00    -0.373 N 
ATOM     12  H31 UNL     1      -0.216  -4.310   1.166  1.00  0.00     0.158 HD
ATOM     13  H32 UNL     1      -1.290  -3.278   0.155  1.00  0.00     0.158 HD
HETATM   14  N4  UNL     1       0.852  -2.538   2.517  1.00  0.00    -0.064 NA
HETATM   15  C14 UNL     1      -2.534   1.354   0.668  1.00  0.00    -0.003 A 
HETATM   16  C15 UNL     1      -2.191   2.371   1.659  1.00  0.00     0.011 A 
HETATM   17  C16 UNL     1      -1.223   1.379   1.388  1.00  0.00     0.004 A 
ENDROOT
BRANCH   1  18
HETATM   18  C4  UNL     1       1.530  -0.694  -0.064  1.00  0.00     0.339 C 
HETATM   19  N1  UNL     1       2.458   0.169  -0.569  1.00  0.00    -0.378 NA
HETATM   20  O1  UNL     1       1.691  -1.964  -0.260  1.00  0.00    -0.250 OA
BRANCH  19  21
HETATM   21  C3  UNL     1       3.395   1.042  -1.079  1.00  0.00     0.186 C 
BRANCH  21  22
HETATM   22  C2  UNL     1       4.745   0.964  -0.515  1.00  0.00     0.022 C 
HETATM   23  C1  UNL     1       5.817   0.680  -1.206  1.00  0.00     0.013 C 
ENDBRANCH  21  22
ENDBRANCH  19  21
ENDBRANCH   1  18
TORSDOF 3
