REMARK  13 active torsions:
REMARK  status: ('A' for Active; 'I' for Inactive)
REMARK    1  A    between atoms: N1_1  and  N2_4 
REMARK       I    between atoms: N2_4  and  C1_5 
REMARK       I    between atoms: C1_5  and  N3_6 
REMARK       I    between atoms: C1_5  and  N4_10 
REMARK    2  A    between atoms: N4_10  and  C2_12 
REMARK    3  A    between atoms: C4_16  and  N6_17 
REMARK       I    between atoms: N6_17  and  C5_19 
REMARK    4  A    between atoms: C5_19  and  C6_21 
REMARK    5  A    between atoms: C6_21  and  C7_22 
REMARK    6  A    between atoms: C9_26  and  N8_27 
REMARK    7  A    between atoms: N8_27  and  C10_29 
REMARK    8  A    between atoms: C10_29  and  O2_30 
REMARK    9  A    between atoms: C10_29  and  S1_32 
REMARK   10  A    between atoms: S1_32  and  N9_33 
REMARK   11  A    between atoms: N10_35  and  C11_37 
REMARK   12  A    between atoms: N13_42  and  C12_43 
REMARK   13  A    between atoms: C12_43  and  O3_44 
ROOT
HETATM    1  C7  UNL     1      -0.240  -2.263   2.096  1.00  0.00     0.033 A 
HETATM    2  C8  UNL     1       0.288  -1.186   2.826  1.00  0.00     0.115 A 
HETATM    3  N7  UNL     1       1.495  -0.707   2.589  1.00  0.00    -0.349 N 
ATOM      4  H7  UNL     1       1.826   0.076   3.152  1.00  0.00     0.167 HD
HETATM    5  C9  UNL     1       2.333  -1.219   1.611  1.00  0.00     0.123 A 
HETATM    6  C14 UNL     1       1.807  -2.271   0.906  1.00  0.00     0.136 A 
HETATM    7  N15 UNL     1       0.553  -2.756   1.164  1.00  0.00    -0.364 N 
ATOM      8  H15 UNL     1       0.214  -3.540   0.606  1.00  0.00     0.165 HD
ENDROOT
BRANCH   1   9
HETATM    9  C6  UNL     1      -1.614  -2.733   2.410  1.00  0.00     0.161 C 
BRANCH   9  10
HETATM   10  C5  UNL     1      -2.623  -2.141   1.457  1.00  0.00     0.227 C 
HETATM   11  N6  UNL     1      -3.516  -1.142   1.880  1.00  0.00    -0.323 N 
ATOM     12  H6  UNL     1      -3.421  -0.858   2.855  1.00  0.00     0.169 HD
HETATM   13  O1  UNL     1      -2.618  -2.576   0.298  1.00  0.00    -0.273 OA
BRANCH  11  14
HETATM   14  C4  UNL     1      -4.515  -0.480   1.161  1.00  0.00     0.093 A 
HETATM   15  C3  UNL     1      -4.925  -0.828  -0.104  1.00  0.00     0.139 A 
HETATM   16  N5  UNL     1      -5.915  -0.155  -0.717  1.00  0.00    -0.200 N 
HETATM   17  C2  UNL     1      -6.552   0.878  -0.146  1.00  0.00     0.682 A 
ATOM     18  H5  UNL     1      -6.193  -0.442  -1.655  1.00  0.00     0.183 HD
HETATM   19  N17 UNL     1      -6.166   1.231   1.087  1.00  0.00    -0.177 N 
HETATM   20  C15 UNL     1      -5.185   0.596   1.748  1.00  0.00     0.160 A 
ATOM     21  H17 UNL     1      -6.636   2.014   1.542  1.00  0.00     0.185 HD
HETATM   22  N16 UNL     1      -4.784   1.000   3.055  1.00  0.00    -0.080 NA
BRANCH  17  23
HETATM   23  N4  UNL     1      -7.478   1.468  -0.807  1.00  0.00    -0.181 N 
HETATM   24  C1  UNL     1      -8.271   2.577  -0.386  1.00  0.00     0.410 C 
HETATM   25  N2  UNL     1      -9.642   2.357  -0.806  1.00  0.00    -0.093 NA
HETATM   26  N3  UNL     1      -7.844   3.809  -1.073  1.00  0.00    -0.042 N 
ATOM     27  H33 UNL     1      -7.963   3.777  -2.086  1.00  0.00     0.278 HD
ATOM     28  H32 UNL     1      -8.458   4.606  -0.906  1.00  0.00     0.278 HD
ATOM     29  H31 UNL     1      -6.880   3.964  -0.778  1.00  0.00     0.278 HD
ATOM     30  H4  UNL     1      -7.670   1.103  -1.740  1.00  0.00     0.181 HD
BRANCH  25  31
HETATM   31  N1  UNL     1      -9.651   2.195  -2.194  1.00  0.00    -0.345 N 
ATOM     32  H12 UNL     1      -8.827   2.228  -2.794  1.00  0.00     0.172 HD
ATOM     33  H11 UNL     1     -10.615   2.040  -2.489  1.00  0.00     0.172 HD
ENDBRANCH  25  31
ENDBRANCH  17  23
ENDBRANCH  11  14
ENDBRANCH   9  10
ENDBRANCH   1   9
BRANCH   5  34
HETATM   34  N8  UNL     1       3.594  -0.629   1.455  1.00  0.00    -0.315 N 
ATOM     35  H8  UNL     1       3.819   0.095   2.137  1.00  0.00     0.170 HD
BRANCH  34  36
HETATM   36  C10 UNL     1       4.576  -0.876   0.522  1.00  0.00     0.203 C 
BRANCH  36  37
HETATM   37  O2  UNL     1       5.676  -0.162   0.648  1.00  0.00    -0.340 OA
ATOM     38  H2  UNL     1       6.354  -0.332   0.004  1.00  0.00     0.220 HD
ENDBRANCH  36  37
BRANCH  36  39
HETATM   39  S1  UNL     1       4.494  -2.035  -0.798  1.00  0.00     0.046 SA
BRANCH  39  40
HETATM   40  N9  UNL     1       5.918  -1.912  -1.854  1.00  0.00    -0.265 N 
HETATM   41  N10 UNL     1       6.776  -1.005  -1.689  1.00  0.00    -0.275 N 
ATOM     42  H10 UNL     1       6.630  -0.343  -0.927  1.00  0.00     0.189 HD
ATOM     43  H9  UNL     1       6.043  -2.588  -2.607  1.00  0.00     0.195 HD
BRANCH  41  44
HETATM   44  C11 UNL     1       7.919  -0.847  -2.485  1.00  0.00     0.180 A 
HETATM   45  N11 UNL     1       8.234  -1.447  -3.640  1.00  0.00    -0.267 N 
HETATM   46  N12 UNL     1       9.404  -0.959  -4.014  1.00  0.00    -0.235 N 
ATOM     47  H11 UNL     1       7.679  -2.145  -4.135  1.00  0.00     0.190 HD
HETATM   48  N13 UNL     1       9.861  -0.076  -3.165  1.00  0.00    -0.237 N 
ATOM     49  H12 UNL     1       9.893  -1.238  -4.865  1.00  0.00     0.208 HD
HETATM   50  C13 UNL     1       8.970   0.027  -2.195  1.00  0.00     0.183 A 
HETATM   51  N14 UNL     1       9.059   0.880  -1.057  1.00  0.00    -0.077 NA
BRANCH  48  52
HETATM   52  C12 UNL     1      11.122   0.652  -3.293  1.00  0.00     0.316 C 
BRANCH  52  53
HETATM   53  O3  UNL     1      12.185   0.017  -2.689  1.00  0.00    -0.380 OA
ATOM     54  H3  UNL     1      13.005   0.490  -2.772  1.00  0.00     0.211 HD
ENDBRANCH  52  53
ENDBRANCH  48  52
ENDBRANCH  41  44
ENDBRANCH  39  40
ENDBRANCH  36  39
ENDBRANCH  34  36
ENDBRANCH   5  34
TORSDOF 13
