REMARK  6 active torsions:
REMARK  status: ('A' for Active; 'I' for Inactive)
REMARK    1  A    between atoms: C2_2  and  N1_4 
REMARK       I    between atoms: N1_4  and  C5_6 
REMARK    2  A    between atoms: C5_6  and  C6_8 
REMARK    3  A    between atoms: C6_8  and  O2_9 
REMARK    4  A    between atoms: O2_9  and  C7_10 
REMARK    5  A    between atoms: C15_18  and  C16_19 
REMARK    6  A    between atoms: C16_19  and  C17_20 
ROOT
HETATM    1  C7  UNL     1      -1.147  -0.778   0.105  1.00  0.00     0.135 C 
HETATM    2  C8  UNL     1      -1.816  -0.550   1.475  1.00  0.00     0.016 C 
HETATM    3  C9  UNL     1      -3.278  -0.887   1.371  1.00  0.00     0.012 C 
HETATM    4  C10 UNL     1      -3.928   0.122   0.439  1.00  0.00    -0.013 C 
HETATM    5  C11 UNL     1      -3.717   1.516   0.948  1.00  0.00     0.009 C 
HETATM    6  C12 UNL     1      -2.241   1.817   0.973  1.00  0.00    -0.013 C 
HETATM    7  C13 UNL     1      -1.615   0.847   1.962  1.00  0.00     0.012 C 
HETATM    8  C14 UNL     1      -1.659   1.617  -0.379  1.00  0.00     0.017 C 
HETATM    9  C15 UNL     1      -1.809   0.152  -0.851  1.00  0.00    -0.004 C 
HETATM   10  C18 UNL     1      -3.298  -0.076  -0.908  1.00  0.00     0.017 C 
ENDROOT
BRANCH   1  11
HETATM   11  O2  UNL     1       0.219  -0.555   0.236  1.00  0.00    -0.376 OA
BRANCH  11  12
HETATM   12  C6  UNL     1       0.911  -1.738   0.061  1.00  0.00     0.271 C 
BRANCH  12  13
HETATM   13  C5  UNL     1       2.383  -1.599   0.177  1.00  0.00     0.243 C 
HETATM   14  N1  UNL     1       3.055  -0.399   0.434  1.00  0.00    -0.351 N 
HETATM   15  C4  UNL     1       2.374   0.865   0.617  1.00  0.00     0.153 C 
HETATM   16  O1  UNL     1       3.076  -2.666   0.029  1.00  0.00    -0.271 OA
BRANCH  14  17
HETATM   17  C2  UNL     1       4.519  -0.378   0.529  1.00  0.00     0.078 C 
HETATM   18  C1  UNL     1       5.118   0.483  -0.550  1.00  0.00     0.032 C 
HETATM   19  C3  UNL     1       4.982   0.129   1.861  1.00  0.00     0.032 C 
ENDBRANCH  14  17
ENDBRANCH  12  13
ENDBRANCH  11  12
ENDBRANCH   1  11
BRANCH   9  20
HETATM   20  C16 UNL     1      -1.293   0.141  -2.248  1.00  0.00     0.125 C 
BRANCH  20  21
HETATM   21  C17 UNL     1      -1.388  -1.143  -2.960  1.00  0.00     0.173 C 
HETATM   22  O3  UNL     1      -1.850  -2.216  -2.495  1.00  0.00    -0.648 OA
HETATM   23  O4  UNL     1      -0.935  -1.244  -4.294  1.00  0.00    -0.648 OA
ENDBRANCH  20  21
ENDBRANCH   9  20
TORSDOF 6
