REMARK  7 active torsions:
REMARK  status: ('A' for Active; 'I' for Inactive)
REMARK    1  A    between atoms: C2_2  and  C3_3 
REMARK    2  A    between atoms: C3_3  and  C4_4 
REMARK    3  A    between atoms: C4_4  and  C5_6 
REMARK    4  A    between atoms: C5_6  and  N1_7 
REMARK    5  A    between atoms: C5_6  and  C16_20 
REMARK       I    between atoms: N1_7  and  C6_9 
REMARK    6  A    between atoms: C6_9  and  C7_11 
REMARK    7  A    between atoms: C12_16  and  C13_17 
ROOT
HETATM    1  N1  UNL     1      -0.043   0.442  -0.668  1.00  0.00    -0.347 N 
ATOM      2  H1  UNL     1       0.157   0.609  -1.654  1.00  0.00     0.163 HD
HETATM    3  C6  UNL     1       0.952  -0.187   0.119  1.00  0.00     0.227 C 
HETATM    4  O2  UNL     1       0.681  -0.381   1.335  1.00  0.00    -0.273 OA
ENDROOT
BRANCH   1   5
HETATM    5  C5  UNL     1      -1.321   0.859  -0.153  1.00  0.00     0.187 C 
BRANCH   5   6
HETATM    6  C4  UNL     1      -1.587   2.288  -0.329  1.00  0.00     0.154 C 
HETATM    7  O1  UNL     1      -0.689   2.940  -0.895  1.00  0.00    -0.295 OA
BRANCH   6   8
HETATM    8  C3  UNL     1      -2.774   3.044   0.080  1.00  0.00     0.107 C 
BRANCH   8   9
HETATM    9  C2  UNL     1      -2.595   3.747   1.373  1.00  0.00    -0.029 C 
HETATM   10  C1  UNL     1      -2.718   5.065   1.433  1.00  0.00     0.007 C 
ENDBRANCH   8   9
ENDBRANCH   6   8
ENDBRANCH   5   6
BRANCH   5  11
HETATM   11  C16 UNL     1      -2.391   0.085  -0.893  1.00  0.00     0.255 C 
HETATM   12  C17 UNL     1      -2.205  -1.418  -0.785  1.00  0.00     0.073 C 
HETATM   13  C18 UNL     1      -3.186  -1.411   0.369  1.00  0.00     0.221 C 
HETATM   14  C19 UNL     1      -4.185  -2.516   0.219  1.00  0.00     0.043 C 
HETATM   15  N2  UNL     1      -3.630  -0.109  -0.121  1.00  0.00     0.095 N 
HETATM   16  C20 UNL     1      -4.754  -0.310  -1.031  1.00  0.00     0.310 C 
ENDBRANCH   5  11
ENDBRANCH   1   5
BRANCH   3  17
HETATM   17  C7  UNL     1       2.256  -0.621  -0.384  1.00  0.00     0.046 C 
HETATM   18  C8  UNL     1       2.303  -1.656  -1.439  1.00  0.00     0.020 C 
HETATM   19  C9  UNL     1       3.121  -2.771  -0.917  1.00  0.00     0.002 C 
HETATM   20  C10 UNL     1       4.093  -2.101   0.039  1.00  0.00     0.006 C 
HETATM   21  C11 UNL     1       3.234  -1.076   0.695  1.00  0.00     0.011 C 
HETATM   22  C12 UNL     1       3.719   0.321   0.847  1.00  0.00     0.014 C 
HETATM   23  C15 UNL     1       3.269   0.529  -0.624  1.00  0.00     0.028 C 
BRANCH  22  24
HETATM   24  C13 UNL     1       5.131   0.632   0.957  1.00  0.00    -0.032 C 
HETATM   25  C14 UNL     1       6.031  -0.197   1.406  1.00  0.00     0.007 C 
ENDBRANCH  22  24
ENDBRANCH   3  17
TORSDOF 7
