REMARK  7 active torsions:
REMARK  status: ('A' for Active; 'I' for Inactive)
REMARK    1  A    between atoms: C2_2  and  C3_3 
REMARK    2  A    between atoms: C3_3  and  C4_4 
REMARK    3  A    between atoms: C4_4  and  N1_5 
REMARK    4  A    between atoms: N1_5  and  C5_7 
REMARK    5  A    between atoms: C7_11  and  C8_12 
REMARK    6  A    between atoms: C8_12  and  C9_13 
REMARK    7  A    between atoms: C9_13  and  N3_14 
REMARK       I    between atoms: N3_14  and  C10_16 
ROOT
HETATM    1  C5  UNL     1      -2.062  -0.402   0.259  1.00  0.00     0.124 A 
HETATM    2  N2  UNL     1      -0.830  -0.312   0.779  1.00  0.00    -0.339 N 
ATOM      3  H2  UNL     1      -0.648   0.369   1.516  1.00  0.00     0.167 HD
HETATM    4  C6  UNL     1       0.177  -1.104   0.348  1.00  0.00     0.067 A 
HETATM    5  C7  UNL     1       1.453  -0.996   0.900  1.00  0.00    -0.027 A 
HETATM    6  C12 UNL     1       2.435  -1.833   0.416  1.00  0.00     0.017 A 
HETATM    7  C13 UNL     1       2.218  -2.763  -0.579  1.00  0.00    -0.053 A 
HETATM    8  C14 UNL     1       3.287  -3.653  -1.086  1.00  0.00     0.049 C 
HETATM    9  C15 UNL     1       0.957  -2.870  -1.125  1.00  0.00    -0.027 A 
HETATM   10  C16 UNL     1       0.666  -3.842  -2.188  1.00  0.00     0.051 C 
HETATM   11  C17 UNL     1      -0.050  -2.026  -0.643  1.00  0.00     0.066 A 
HETATM   12  N4  UNL     1      -1.285  -2.139  -1.186  1.00  0.00    -0.355 N 
ATOM     13  H4  UNL     1      -1.467  -2.820  -1.923  1.00  0.00     0.166 HD
HETATM   14  C18 UNL     1      -2.279  -1.329  -0.733  1.00  0.00     0.050 A 
HETATM   15  C19 UNL     1      -3.618  -1.484  -1.354  1.00  0.00     0.072 C 
ENDROOT
BRANCH   5  16
HETATM   16  C8  UNL     1       1.702  -0.003   1.968  1.00  0.00     0.060 C 
BRANCH  16  17
HETATM   17  C9  UNL     1       1.799   1.409   1.382  1.00  0.00     0.127 C 
BRANCH  17  18
HETATM   18  N3  UNL     1       2.886   1.464   0.431  1.00  0.00    -0.361 N 
HETATM   19  C10 UNL     1       3.172   2.670  -0.242  1.00  0.00     0.213 C 
HETATM   20  C11 UNL     1       4.274   2.764  -1.221  1.00  0.00     0.117 C 
HETATM   21  O1  UNL     1       2.473   3.682  -0.001  1.00  0.00    -0.274 OA
ATOM     22  H3  UNL     1       3.446   0.631   0.247  1.00  0.00     0.162 HD
ENDBRANCH  17  18
ENDBRANCH  16  17
ENDBRANCH   5  16
BRANCH   1  23
HETATM   23  N1  UNL     1      -3.001   0.363   0.689  1.00  0.00    -0.374 N 
ATOM     24  H1  UNL     1      -3.925   0.264   0.268  1.00  0.00     0.161 HD
BRANCH  23  25
HETATM   25  C4  UNL     1      -2.839   1.344   1.717  1.00  0.00     0.125 C 
BRANCH  25  26
HETATM   26  C3  UNL     1      -4.067   2.258   1.765  1.00  0.00     0.046 C 
BRANCH  26  27
HETATM   27  C2  UNL     1      -4.281   2.967   0.492  1.00  0.00    -0.035 C 
HETATM   28  C1  UNL     1      -4.274   4.307   0.436  1.00  0.00     0.007 C 
ENDBRANCH  26  27
ENDBRANCH  25  26
ENDBRANCH  23  25
ENDBRANCH   1  23
TORSDOF 7
