REMARK  12 active torsions:
REMARK  status: ('A' for Active; 'I' for Inactive)
REMARK       I    between atoms: C2_2  and  N1_4 
REMARK    1  A    between atoms: N1_4  and  C3_6 
REMARK    2  A    between atoms: C5_12  and  N4_13 
REMARK    3  A    between atoms: C6_19  and  C7_20 
REMARK    4  A    between atoms: C7_20  and  S1_21 
REMARK    5  A    between atoms: S1_21  and  C8_22 
REMARK    6  A    between atoms: N9_29  and  C9_30 
REMARK    7  A    between atoms: C9_30  and  N10_31 
REMARK    8  A    between atoms: N10_31  and  C10_33 
REMARK    9  A    between atoms: C13_36  and  N11_37 
REMARK   10  A    between atoms: C14_40  and  N12_41 
REMARK   11  A    between atoms: C16_47  and  N14_48 
REMARK   12  A    between atoms: N14_48  and  N15_49 
ROOT
HETATM    1  C7  UNL     1      -0.959   1.226   1.319  1.00  0.00     0.108 C 
ENDROOT
BRANCH   1   2
HETATM    2  C6  UNL     1      -1.325  -0.200   1.333  1.00  0.00     0.099 C 
HETATM    3  N5  UNL     1      -0.369  -1.047   1.970  1.00  0.00    -0.375 N 
HETATM    4  C5  UNL     1      -0.759  -2.389   2.143  1.00  0.00     0.380 C 
ATOM      5  H5  UNL     1       0.539  -0.702   2.280  1.00  0.00     0.157 HD
HETATM    6  N3  UNL     1      -1.815  -2.919   1.407  1.00  0.00    -0.359 N 
HETATM    7  C4  UNL     1      -2.547  -2.107   0.516  1.00  0.00     0.189 C 
ATOM      8  H3  UNL     1      -2.061  -3.903   1.513  1.00  0.00     0.159 HD
HETATM    9  N2  UNL     1      -3.707  -1.475   1.101  1.00  0.00    -0.357 N 
HETATM   10  C15 UNL     1      -1.767  -0.846   0.077  1.00  0.00     0.079 C 
HETATM   11  C3  UNL     1      -3.959  -0.325   0.504  1.00  0.00     0.103 C 
ATOM     12  H2  UNL     1      -4.255  -1.863   1.869  1.00  0.00     0.163 HD
HETATM   13  C16 UNL     1      -2.977  -0.132  -0.580  1.00  0.00     0.175 C 
BRANCH   4  14
HETATM   14  N4  UNL     1      -1.044  -2.586   3.576  1.00  0.00    -0.041 N 
ATOM     15  H43 UNL     1      -1.947  -2.200   3.853  1.00  0.00     0.278 HD
ATOM     16  H42 UNL     1      -1.232  -3.561   3.808  1.00  0.00     0.278 HD
ATOM     17  H41 UNL     1      -0.270  -2.198   4.115  1.00  0.00     0.278 HD
ENDBRANCH   4  14
BRANCH  11  18
HETATM   18  N1  UNL     1      -5.027   0.527   0.857  1.00  0.00    -0.316 N 
HETATM   19  C2  UNL     1      -5.296   1.761   0.258  1.00  0.00     0.218 C 
HETATM   20  C1  UNL     1      -6.490   2.537   0.757  1.00  0.00     0.117 C 
HETATM   21  O1  UNL     1      -4.643   2.298  -0.661  1.00  0.00    -0.274 OA
ATOM     22  H1  UNL     1      -5.649   0.220   1.605  1.00  0.00     0.170 HD
ENDBRANCH  11  18
BRANCH  13  23
HETATM   23  N14 UNL     1      -3.315  -1.010  -1.691  1.00  0.00    -0.135 NA
BRANCH  23  24
HETATM   24  N15 UNL     1      -4.591  -0.799  -2.154  1.00  0.00    -0.348 N 
ATOM     25 2H15 UNL     1      -5.219  -0.102  -1.754  1.00  0.00     0.172 HD
ATOM     26 1H15 UNL     1      -4.828  -1.414  -2.932  1.00  0.00     0.172 HD
ENDBRANCH  23  24
ENDBRANCH  13  23
ENDBRANCH   1   2
BRANCH   1  27
HETATM   27  S1  UNL     1       0.564   1.727   0.557  1.00  0.00    -0.089 SA
BRANCH  27  28
HETATM   28  C8  UNL     1       0.658   1.490  -1.203  1.00  0.00     0.183 A 
HETATM   29  N6  UNL     1       0.153   2.429  -2.090  1.00  0.00    -0.263 N 
HETATM   30  N7  UNL     1       0.337   1.989  -3.305  1.00  0.00    -0.226 N 
ATOM     31  H6  UNL     1      -0.287   3.313  -1.836  1.00  0.00     0.190 HD
HETATM   32  N8  UNL     1       0.925   0.835  -3.274  1.00  0.00    -0.218 N 
ATOM     33  H7  UNL     1       0.059   2.481  -4.154  1.00  0.00     0.210 HD
HETATM   34  N9  UNL     1       1.129   0.521  -1.968  1.00  0.00    -0.212 N 
ATOM     35  H8  UNL     1       1.186   0.268  -4.080  1.00  0.00     0.210 HD
BRANCH  34  36
HETATM   36  C9  UNL     1       1.856  -0.667  -1.560  1.00  0.00     0.212 C 
BRANCH  36  37
HETATM   37  N10 UNL     1       3.237  -0.707  -1.773  1.00  0.00    -0.337 N 
ATOM     38  H10 UNL     1       3.493  -1.299  -2.563  1.00  0.00     0.168 HD
BRANCH  37  39
HETATM   39  C10 UNL     1       4.357  -0.122  -1.152  1.00  0.00     0.107 A 
HETATM   40  C11 UNL     1       4.313   0.715  -0.064  1.00  0.00     0.051 A 
HETATM   41  C12 UNL     1       5.413   1.296   0.530  1.00  0.00     0.043 A 
HETATM   42  C13 UNL     1       6.687   1.033   0.009  1.00  0.00     0.146 A 
HETATM   43  C14 UNL     1       6.724   0.197  -1.074  1.00  0.00     0.134 A 
HETATM   44  N13 UNL     1       5.613  -0.351  -1.625  1.00  0.00    -0.327 N 
ATOM     45  H13 UNL     1       5.723  -0.964  -2.433  1.00  0.00     0.169 HD
BRANCH  42  46
HETATM   46  N11 UNL     1       7.810   1.637   0.637  1.00  0.00    -0.112 N 
HETATM   47  O2  UNL     1       8.843   2.022   0.112  1.00  0.00    -0.532 OA
HETATM   48  O3  UNL     1       7.718   1.836   2.020  1.00  0.00    -0.532 OA
ENDBRANCH  42  46
BRANCH  43  49
HETATM   49  N12 UNL     1       7.857  -0.109  -1.601  1.00  0.00    -0.383 N 
ATOM     50 2H12 UNL     1       8.693   0.303  -1.186  1.00  0.00     0.157 HD
ATOM     51 1H12 UNL     1       7.885  -0.732  -2.408  1.00  0.00     0.157 HD
ENDBRANCH  43  49
ENDBRANCH  37  39
ENDBRANCH  36  37
ENDBRANCH  34  36
ENDBRANCH  27  28
ENDBRANCH   1  27
TORSDOF 12
