REMARK  10 active torsions:
REMARK  status: ('A' for Active; 'I' for Inactive)
REMARK    1  A    between atoms: C14_15  and  O2_16 
REMARK    2  A    between atoms: C15_18  and  N1_19 
REMARK    3  A    between atoms: N1_19  and  C16_21 
REMARK    4  A    between atoms: C16_21  and  C17_22 
REMARK    5  A    between atoms: C17_22  and  O3_23 
REMARK    6  A    between atoms: C17_22  and  C18_25 
REMARK    7  A    between atoms: C18_25  and  C19_26 
REMARK    8  A    between atoms: C19_26  and  N2_27 
REMARK    9  A    between atoms: C27_37  and  O4_38 
REMARK   10  A    between atoms: C27_37  and  C28_40 
ROOT
HETATM    1  C1  UNL     1      -5.368   2.575  -1.524  1.00  0.00     0.010 C 
HETATM    2  C2  UNL     1      -3.971   2.740  -0.919  1.00  0.00    -0.015 C 
HETATM    3  C3  UNL     1      -3.937   1.994   0.351  1.00  0.00     0.014 C 
HETATM    4  C4  UNL     1      -3.206   0.648   0.305  1.00  0.00     0.031 C 
HETATM    5  C5  UNL     1      -1.892   0.893  -0.407  1.00  0.00    -0.010 C 
HETATM    6  C6  UNL     1      -0.784   0.013  -0.064  1.00  0.00     0.063 C 
HETATM    7  O1  UNL     1      -0.746  -0.332   1.264  1.00  0.00    -0.343 OA
HETATM    8  C7  UNL     1      -1.908  -0.761   1.832  1.00  0.00     0.071 C 
HETATM    9  C8  UNL     1      -1.562  -1.057   3.305  1.00  0.00     0.047 C 
HETATM   10  C9  UNL     1      -2.363  -2.101   1.280  1.00  0.00     0.039 C 
HETATM   11  C10 UNL     1      -1.051  -2.795   0.902  1.00  0.00     0.009 C 
HETATM   12  C11 UNL     1      -0.827  -2.504  -0.528  1.00  0.00     0.008 C 
HETATM   13  C12 UNL     1       0.191  -3.406  -1.128  1.00  0.00     0.021 C 
HETATM   14  C13 UNL     1       0.184  -4.815  -0.634  1.00  0.00     0.013 C 
HETATM   15  C14 UNL     1       1.496  -2.731  -0.670  1.00  0.00     0.168 C 
HETATM   16  C15 UNL     1       1.160  -1.334  -0.605  1.00  0.00     0.026 C 
HETATM   17  C23 UNL     1      -0.377  -1.156  -0.888  1.00  0.00     0.096 C 
HETATM   18  C24 UNL     1      -3.048   0.193   1.720  1.00  0.00    -0.009 C 
HETATM   19  C25 UNL     1      -2.826   1.283   2.727  1.00  0.00     0.018 C 
HETATM   20  C26 UNL     1      -4.349  -0.498   2.119  1.00  0.00     0.018 C 
HETATM   21  C27 UNL     1      -2.182   1.186  -1.815  1.00  0.00     0.097 C 
HETATM   22  C29 UNL     1      -2.880   2.549  -1.888  1.00  0.00     0.048 C 
ENDROOT
BRANCH  16  23
HETATM   23  N1  UNL     1       1.904  -0.301  -1.145  1.00  0.00    -0.371 N 
ATOM     24  H1  UNL     1       1.528   0.157  -1.975  1.00  0.00     0.164 HD
BRANCH  23  25
HETATM   25  C16 UNL     1       3.107   0.164  -0.662  1.00  0.00     0.092 C 
BRANCH  25  26
HETATM   26  C17 UNL     1       4.385  -0.561  -0.735  1.00  0.00     0.158 C 
BRANCH  26  27
HETATM   27  O3  UNL     1       4.889  -0.818  -1.985  1.00  0.00    -0.390 OA
ATOM     28  H3  UNL     1       5.714  -1.286  -2.032  1.00  0.00     0.210 HD
ENDBRANCH  26  27
BRANCH  26  29
HETATM   29  C18 UNL     1       5.402   0.306   0.037  1.00  0.00     0.057 C 
BRANCH  29  30
HETATM   30  C19 UNL     1       5.535   1.682  -0.527  1.00  0.00     0.132 C 
BRANCH  30  31
HETATM   31  N2  UNL     1       6.491   2.394   0.338  1.00  0.00    -0.352 N 
HETATM   32  C20 UNL     1       6.176   3.111   1.441  1.00  0.00     0.108 A 
HETATM   33  C21 UNL     1       7.303   3.645   2.009  1.00  0.00     0.106 A 
HETATM   34  N3  UNL     1       8.315   3.223   1.204  1.00  0.00    -0.361 N 
HETATM   35  C22 UNL     1       7.810   2.466   0.197  1.00  0.00     0.182 A 
ATOM     36  H3  UNL     1       9.302   3.442   1.337  1.00  0.00     0.166 HD
ENDBRANCH  30  31
ENDBRANCH  29  30
ENDBRANCH  26  29
ENDBRANCH  25  26
ENDBRANCH  23  25
ENDBRANCH  16  23
BRANCH  15  37
HETATM   37  O2  UNL     1       2.543  -3.145  -1.478  1.00  0.00    -0.389 OA
ATOM     38  H2  UNL     1       3.349  -2.728  -1.195  1.00  0.00     0.210 HD
ENDBRANCH  15  37
BRANCH  21  39
HETATM   39  O4  UNL     1      -0.953   1.391  -2.470  1.00  0.00    -0.384 OA
ATOM     40  H4  UNL     1      -1.141   1.581  -3.382  1.00  0.00     0.211 HD
ENDBRANCH  21  39
BRANCH  21  41
HETATM   41  C28 UNL     1      -3.064   0.238  -2.567  1.00  0.00     0.157 C 
HETATM   42 CL1  UNL     1      -3.282   0.778  -4.272  1.00  0.00    -0.127 Cl
ENDBRANCH  21  41
TORSDOF 10
