REMARK  11 active torsions:
REMARK  status: ('A' for Active; 'I' for Inactive)
REMARK    1  A    between atoms: C4_4  and  O1_5 
REMARK    2  A    between atoms: O1_5  and  C5_6 
REMARK    3  A    between atoms: C10_13  and  O2_14 
REMARK    4  A    between atoms: O2_14  and  C11_15 
REMARK    5  A    between atoms: C11_15  and  C12_16 
REMARK    6  A    between atoms: C12_16  and  O3_17 
REMARK    7  A    between atoms: C13_19  and  C14_20 
REMARK    8  A    between atoms: C15_21  and  C16_22 
REMARK    9  A    between atoms: C18_24  and  O4_25 
REMARK   10  A    between atoms: C20_28  and  O5_29 
REMARK   11  A    between atoms: C21_31  and  O6_32 
ROOT
HETATM    1  C1  UNL     1      -1.614  -3.294  -3.768  1.00  0.00     0.056 C 
HETATM    2  C2  UNL     1      -1.141  -2.510  -2.580  1.00  0.00    -0.018 A 
HETATM    3  C3  UNL     1      -1.858  -2.135  -1.474  1.00  0.00     0.052 A 
HETATM    4  C4  UNL     1      -1.223  -1.433  -0.532  1.00  0.00     0.094 A 
HETATM    5  C13 UNL     1       0.096  -1.141  -0.744  1.00  0.00     0.039 A 
HETATM    6  S1  UNL     1       0.404  -1.865  -2.265  1.00  0.00    -0.092 SA
ENDROOT
BRANCH   4   7
HETATM    7  O1  UNL     1      -1.842  -0.983   0.659  1.00  0.00    -0.305 OA
BRANCH   7   8
HETATM    8  C5  UNL     1      -3.179  -1.243   0.940  1.00  0.00     0.126 A 
HETATM    9  C6  UNL     1      -3.564  -2.373   1.620  1.00  0.00     0.049 A 
HETATM   10 BR1  UNL     1      -2.250  -3.643   2.212  1.00  0.00    -0.048 Br
HETATM   11  C7  UNL     1      -4.901  -2.582   1.872  1.00  0.00     0.041 A 
HETATM   12  C8  UNL     1      -5.847  -1.693   1.459  1.00  0.00     0.015 A 
HETATM   13 BR2  UNL     1      -7.691  -2.007   1.821  1.00  0.00    -0.051 Br
HETATM   14  C9  UNL     1      -5.422  -0.560   0.773  1.00  0.00     0.058 A 
HETATM   15  C10 UNL     1      -4.104  -0.282   0.485  1.00  0.00     0.105 A 
BRANCH  15  16
HETATM   16  O2  UNL     1      -3.626   0.767  -0.155  1.00  0.00    -0.346 OA
BRANCH  16  17
HETATM   17  C11 UNL     1      -3.859   1.925  -0.762  1.00  0.00     0.201 C 
BRANCH  17  18
HETATM   18  C12 UNL     1      -4.417   2.996   0.122  1.00  0.00     0.190 C 
BRANCH  18  19
HETATM   19  O3  UNL     1      -5.604   2.755   0.726  1.00  0.00    -0.399 OA
ATOM     20  H3  UNL     1      -5.958   3.435   1.287  1.00  0.00     0.209 HD
ENDBRANCH  18  19
ENDBRANCH  17  18
ENDBRANCH  16  17
ENDBRANCH  15  16
ENDBRANCH   7   8
ENDBRANCH   4   7
BRANCH   5  21
HETATM   21  C14 UNL     1       1.036  -0.403   0.091  1.00  0.00     0.018 C 
HETATM   22  C15 UNL     1       2.271  -0.244  -0.320  1.00  0.00    -0.018 C 
BRANCH  22  23
HETATM   23  C16 UNL     1       3.287   0.505   0.491  1.00  0.00     0.042 C 
HETATM   24  C17 UNL     1       4.358  -0.479   0.860  1.00  0.00     0.043 C 
HETATM   25  C18 UNL     1       5.480   0.228   1.549  1.00  0.00     0.121 C 
HETATM   26  C19 UNL     1       6.056   1.267   0.635  1.00  0.00     0.066 C 
HETATM   27  C20 UNL     1       5.065   2.239   0.100  1.00  0.00     0.150 C 
HETATM   28  C21 UNL     1       3.762   1.654  -0.321  1.00  0.00     0.154 C 
BRANCH  25  29
HETATM   29  O4  UNL     1       5.150   0.703   2.802  1.00  0.00    -0.395 OA
ATOM     30  H4  UNL     1       5.863   1.152   3.240  1.00  0.00     0.210 HD
ENDBRANCH  25  29
BRANCH  27  31
HETATM   31  O5  UNL     1       4.907   3.285   1.008  1.00  0.00    -0.393 OA
ATOM     32  H5  UNL     1       4.274   3.906   0.666  1.00  0.00     0.210 HD
ENDBRANCH  27  31
BRANCH  28  33
HETATM   33  O6  UNL     1       3.738   1.332  -1.693  1.00  0.00    -0.392 OA
ATOM     34  H6  UNL     1       4.042   2.067  -2.212  1.00  0.00     0.210 HD
ENDBRANCH  28  33
ENDBRANCH  22  23
ENDBRANCH   5  21
TORSDOF 11
