REMARK  3 active torsions:
REMARK  status: ('A' for Active; 'I' for Inactive)
REMARK    1  A    between atoms: N1_1  and  C1_5 
REMARK    2  A    between atoms: C1_5  and  C2_6 
REMARK    3  A    between atoms: C2_6  and  C3_7 
ROOT
HETATM    1  C3  UNL     1      -0.068  -0.133  -0.879  1.00  0.00     0.103 C 
HETATM    2  C4  UNL     1      -1.050   0.999  -0.962  1.00  0.00     0.256 C 
HETATM    3  N2  UNL     1      -2.372   0.605  -0.489  1.00  0.00    -0.072 N 
ATOM      4  H21 UNL     1      -2.826  -0.091  -1.081  1.00  0.00     0.277 HD
ATOM      5  H22 UNL     1      -3.077   1.335  -0.595  1.00  0.00     0.277 HD
HETATM    6  C5  UNL     1      -2.188   0.166   0.893  1.00  0.00     0.251 C 
HETATM    7  C6  UNL     1      -1.359  -1.072   0.927  1.00  0.00     0.141 C 
HETATM    8  N3  UNL     1      -0.568  -1.304  -0.236  1.00  0.00    -0.414 N 
ATOM      9  H3  UNL     1      -0.373  -2.243  -0.584  1.00  0.00     0.153 HD
ENDROOT
BRANCH   1  10
HETATM   10  C2  UNL     1       1.195   0.402  -0.243  1.00  0.00     0.053 C 
BRANCH  10  11
HETATM   11  C1  UNL     1       2.257  -0.669  -0.113  1.00  0.00     0.231 C 
BRANCH  11  12
HETATM   12  N1  UNL     1       3.415  -0.016   0.513  1.00  0.00    -0.079 N 
ATOM     13  H13 UNL     1       3.733   0.814   0.014  1.00  0.00     0.274 HD
ATOM     14  H12 UNL     1       3.194   0.447   1.394  1.00  0.00     0.274 HD
ATOM     15  H11 UNL     1       4.131  -0.738   0.601  1.00  0.00     0.274 HD
ENDBRANCH  11  12
ENDBRANCH  10  11
ENDBRANCH   1  10
TORSDOF 3
