REMARK  7 active torsions:
REMARK  status: ('A' for Active; 'I' for Inactive)
REMARK    1  A    between atoms: C2_2  and  N1_5 
REMARK    2  A    between atoms: N1_5  and  C5_7 
REMARK    3  A    between atoms: C6_10  and  N3_11 
REMARK    4  A    between atoms: N3_11  and  C7_13 
REMARK    5  A    between atoms: C11_17  and  N4_18 
REMARK    6  A    between atoms: N4_18  and  C12_20 
REMARK    7  A    between atoms: C14_24  and  C15_25 
ROOT
HETATM    1  C7  UNL     1       1.513   0.565  -1.718  1.00  0.00     0.035 A 
HETATM    2  C8  UNL     1       1.829  -0.444  -2.599  1.00  0.00     0.029 A 
HETATM    3  C9  UNL     1       1.262  -1.690  -2.468  1.00  0.00     0.004 A 
HETATM    4  C10 UNL     1       0.363  -1.960  -1.451  1.00  0.00     0.029 A 
HETATM    5  C11 UNL     1       0.038  -0.967  -0.566  1.00  0.00     0.035 A 
HETATM    6  C25 UNL     1       0.601   0.283  -0.690  1.00  0.00     0.059 A 
ENDROOT
BRANCH   1   7
HETATM    7  N3  UNL     1       2.088   1.834  -1.850  1.00  0.00    -0.341 N 
ATOM      8  H3  UNL     1       1.578   2.582  -2.320  1.00  0.00     0.167 HD
BRANCH   7   9
HETATM    9  C6  UNL     1       3.266   2.053  -1.374  1.00  0.00     0.137 A 
HETATM   10  N2  UNL     1       4.000   1.099  -0.734  1.00  0.00    -0.176 N 
HETATM   11  C5  UNL     1       5.224   1.353  -0.244  1.00  0.00     0.681 A 
ATOM     12  H2  UNL     1       3.607   0.164  -0.624  1.00  0.00     0.186 HD
HETATM   13  N8  UNL     1       5.724   2.619  -0.407  1.00  0.00    -0.174 N 
HETATM   14  C28 UNL     1       5.054   3.582  -1.019  1.00  0.00     0.151 A 
ATOM     15  H8  UNL     1       6.653   2.828  -0.041  1.00  0.00     0.186 HD
HETATM   16  C26 UNL     1       3.803   3.301  -1.514  1.00  0.00     0.071 A 
HETATM   17  N7  UNL     1       5.304   4.887  -1.309  1.00  0.00    -0.285 N 
HETATM   18  C27 UNL     1       3.349   4.463  -2.086  1.00  0.00     0.126 A 
HETATM   19  N6  UNL     1       4.284   5.417  -1.948  1.00  0.00    -0.309 N 
ATOM     20  H6  UNL     1       4.215   6.379  -2.279  1.00  0.00     0.186 HD
ATOM     21  H7  UNL     1       6.161   5.384  -1.066  1.00  0.00     0.188 HD
BRANCH  11  22
HETATM   22  N1  UNL     1       5.945   0.477   0.357  1.00  0.00    -0.218 N 
ATOM     23  H1  UNL     1       6.858   0.796   0.682  1.00  0.00     0.178 HD
BRANCH  22  24
HETATM   24  C2  UNL     1       5.628  -0.888   0.627  1.00  0.00     0.036 C 
HETATM   25  C1  UNL     1       5.475  -1.616  -0.700  1.00  0.00     0.038 C 
HETATM   26  C3  UNL     1       6.838  -1.533   1.334  1.00  0.00     0.038 C 
HETATM   27  C4  UNL     1       4.438  -1.079   1.510  1.00  0.00     0.038 C 
ENDBRANCH  22  24
ENDBRANCH  11  22
ENDBRANCH   7   9
ENDBRANCH   1   7
BRANCH   5  28
HETATM   28  N4  UNL     1      -0.886  -1.158   0.518  1.00  0.00    -0.342 N 
ATOM     29  H4  UNL     1      -0.540  -1.495   1.417  1.00  0.00     0.167 HD
BRANCH  28  30
HETATM   30  C12 UNL     1      -2.143  -0.912   0.376  1.00  0.00     0.116 A 
HETATM   31  N5  UNL     1      -2.650  -0.470  -0.777  1.00  0.00    -0.351 N 
HETATM   32  C13 UNL     1      -3.944  -0.235  -0.845  1.00  0.00     0.098 A 
ATOM     33  H5  UNL     1      -2.049  -0.318  -1.587  1.00  0.00     0.166 HD
HETATM   34  C14 UNL     1      -4.877  -0.398   0.179  1.00  0.00    -0.024 A 
HETATM   35  C19 UNL     1      -4.361  -0.860   1.389  1.00  0.00    -0.014 A 
HETATM   36  C20 UNL     1      -5.172  -1.067   2.452  1.00  0.00     0.013 A 
HETATM   37  C24 UNL     1      -2.994  -1.106   1.455  1.00  0.00     0.019 A 
HETATM   38  C21 UNL     1      -4.627  -1.538   3.651  1.00  0.00     0.001 A 
HETATM   39  C22 UNL     1      -3.278  -1.793   3.756  1.00  0.00     0.001 A 
HETATM   40  C23 UNL     1      -2.483  -1.572   2.655  1.00  0.00     0.016 A 
BRANCH  34  41
HETATM   41  C15 UNL     1      -6.295  -0.066   0.002  1.00  0.00    -0.022 C 
HETATM   42  C16 UNL     1      -6.825   1.034   0.869  1.00  0.00     0.019 C 
HETATM   43  C17 UNL     1      -6.416   0.502  -1.425  1.00  0.00     0.019 C 
HETATM   44  C18 UNL     1      -7.196  -1.282  -0.034  1.00  0.00     0.019 C 
ENDBRANCH  34  41
ENDBRANCH  28  30
ENDBRANCH   5  28
TORSDOF 7
