REMARK  12 active torsions:
REMARK  status: ('A' for Active; 'I' for Inactive)
REMARK    1  A    between atoms: C2_2  and  C3_3 
REMARK    2  A    between atoms: C3_3  and  N1_4 
REMARK    3  A    between atoms: N1_4  and  C4_6 
REMARK    4  A    between atoms: C5_7  and  O1_8 
REMARK    5  A    between atoms: O1_8  and  C6_9 
REMARK    6  A    between atoms: C8_11  and  O2_12 
REMARK    7  A    between atoms: O2_12  and  C9_13 
REMARK    8  A    between atoms: C15_20  and  O4_21 
REMARK    9  A    between atoms: C16_23  and  N2_24 
REMARK   10  A    between atoms: C18_29  and  N3_30 
REMARK   11  A    between atoms: C21_37  and  O6_38 
REMARK   12  A    between atoms: C22_40  and  O7_41 
ROOT
HETATM    1  C6  UNL     1       0.111  -0.355  -0.646  1.00  0.00     0.158 C 
HETATM    2  C7  UNL     1      -0.704  -0.818   0.537  1.00  0.00     0.068 C 
HETATM    3  C8  UNL     1      -1.577   0.304   1.059  1.00  0.00     0.155 C 
HETATM    4  C16 UNL     1      -1.063   1.642   0.534  1.00  0.00     0.214 C 
HETATM    5  C17 UNL     1      -1.129   1.759  -0.946  1.00  0.00     0.070 C 
HETATM    6  C18 UNL     1      -0.633   0.509  -1.593  1.00  0.00     0.214 C 
ENDROOT
BRANCH   1   7
HETATM    7  O1  UNL     1       1.359   0.080  -0.271  1.00  0.00    -0.348 OA
BRANCH   7   8
HETATM    8  C5  UNL     1       2.408  -0.679  -0.678  1.00  0.00     0.310 C 
HETATM    9  C4  UNL     1       3.221   0.185  -1.664  1.00  0.00     0.073 C 
HETATM   10  C22 UNL     1       4.419  -0.555  -2.161  1.00  0.00     0.199 C 
HETATM   11  C21 UNL     1       4.501  -1.957  -1.588  1.00  0.00     0.181 C 
HETATM   12  C19 UNL     1       4.157  -2.068  -0.152  1.00  0.00     0.152 C 
HETATM   13  O5  UNL     1       3.242  -1.155   0.319  1.00  0.00    -0.348 OA
HETATM   14  C20 UNL     1       3.627  -3.490   0.081  1.00  0.00     0.042 C 
BRANCH   9  15
HETATM   15  N1  UNL     1       3.340   1.514  -1.277  1.00  0.00    -0.370 N 
ATOM     16  H1  UNL     1       2.939   2.217  -1.897  1.00  0.00     0.164 HD
BRANCH  15  17
HETATM   17  C3  UNL     1       3.954   1.966  -0.126  1.00  0.00     0.060 C 
BRANCH  17  18
HETATM   18  C2  UNL     1       5.440   1.886   0.022  1.00  0.00     0.040 C 
HETATM   19  C1  UNL     1       6.211   2.682  -1.001  1.00  0.00     0.010 C 
ENDBRANCH  17  18
ENDBRANCH  15  17
ENDBRANCH   9  15
BRANCH  10  20
HETATM   20  O7  UNL     1       4.380  -0.759  -3.568  1.00  0.00    -0.387 OA
ATOM     21  H7  UNL     1       5.142  -1.230  -3.884  1.00  0.00     0.210 HD
ENDBRANCH  10  20
BRANCH  11  22
HETATM   22  O6  UNL     1       3.815  -2.893  -2.393  1.00  0.00    -0.390 OA
ATOM     23  H6  UNL     1       4.036  -2.822  -3.314  1.00  0.00     0.210 HD
ENDBRANCH  11  22
ENDBRANCH   7   8
ENDBRANCH   1   7
BRANCH   6  24
HETATM   24  N3  UNL     1      -1.810  -0.234  -2.044  1.00  0.00    -0.072 N 
ATOM     25  H33 UNL     1      -1.576  -1.145  -2.439  1.00  0.00     0.274 HD
ATOM     26  H32 UNL     1      -2.389  -0.566  -1.272  1.00  0.00     0.274 HD
ATOM     27  H31 UNL     1      -2.322   0.361  -2.696  1.00  0.00     0.274 HD
ENDBRANCH   6  24
BRANCH   3  28
HETATM   28  O2  UNL     1      -2.893   0.176   0.726  1.00  0.00    -0.376 OA
BRANCH  28  29
HETATM   29  C9  UNL     1      -3.802   0.143   1.744  1.00  0.00     0.151 C 
HETATM   30  C10 UNL     1      -4.447  -1.255   1.734  1.00  0.00     0.043 C 
HETATM   31  C11 UNL     1      -5.795  -1.139   1.013  1.00  0.00     0.041 C 
HETATM   32  C12 UNL     1      -5.639  -0.182  -0.144  1.00  0.00     0.175 C 
HETATM   33  C15 UNL     1      -6.768  -0.500   2.002  1.00  0.00     0.126 C 
HETATM   34  O3  UNL     1      -5.531   1.105   0.374  1.00  0.00    -0.383 OA
HETATM   35  C13 UNL     1      -4.930   1.115   1.628  1.00  0.00     0.152 C 
HETATM   36  C14 UNL     1      -6.024   0.674   2.610  1.00  0.00     0.066 C 
BRANCH  33  37
HETATM   37  O4  UNL     1      -7.148  -1.428   2.954  1.00  0.00    -0.395 OA
ATOM     38  H4  UNL     1      -7.753  -1.031   3.569  1.00  0.00     0.210 HD
ENDBRANCH  33  37
ENDBRANCH  28  29
ENDBRANCH   3  28
BRANCH   4  39
HETATM   39  N2  UNL     1      -1.789   2.691   1.223  1.00  0.00    -0.072 N 
ATOM     40  H23 UNL     1      -2.801   2.594   1.140  1.00  0.00     0.274 HD
ATOM     41  H22 UNL     1      -1.730   2.614   2.238  1.00  0.00     0.274 HD
ATOM     42  H21 UNL     1      -1.446   3.585   0.872  1.00  0.00     0.274 HD
ENDBRANCH   4  39
TORSDOF 12
