REMARK  5 active torsions:
REMARK  status: ('A' for Active; 'I' for Inactive)
REMARK    1  A    between atoms: C5_6  and  N1_7 
REMARK    2  A    between atoms: C5_6  and  C7_13 
REMARK    3  A    between atoms: N1_7  and  S1_9 
REMARK       I    between atoms: C7_13  and  N2_15 
REMARK    4  A    between atoms: N2_15  and  S2_17 
REMARK    5  A    between atoms: S2_17  and  C8_20 
ROOT
HETATM    1  C1  UNL     1      -3.197  -2.750   0.605  1.00  0.00     0.051 C 
HETATM    2  C2  UNL     1      -1.894  -2.185   0.055  1.00  0.00     0.100 C 
HETATM    3  F1  UNL     1      -1.142  -3.295  -0.355  1.00  0.00    -0.243 F 
HETATM    4  C3  UNL     1      -1.172  -1.540   1.177  1.00  0.00     0.046 C 
HETATM    5  C4  UNL     1      -1.398  -0.029   1.249  1.00  0.00     0.045 C 
HETATM    6  C5  UNL     1      -0.892   0.530   0.006  1.00  0.00     0.122 C 
HETATM    7  C12 UNL     1      -1.392  -0.103  -1.271  1.00  0.00     0.045 C 
HETATM    8  C13 UNL     1      -2.197  -1.319  -1.104  1.00  0.00     0.046 C 
ENDROOT
BRANCH   6   9
HETATM    9  N1  UNL     1      -0.883   1.962  -0.170  1.00  0.00    -0.301 N 
ATOM     10  H1  UNL     1      -0.013   2.453  -0.377  1.00  0.00     0.173 HD
BRANCH   9  11
HETATM   11  S1  UNL     1      -2.318   2.801  -0.029  1.00  0.00     0.223 S 
HETATM   12  C6  UNL     1      -2.739   3.677  -1.545  1.00  0.00     0.186 C 
HETATM   13  O1  UNL     1      -2.228   3.824   1.070  1.00  0.00    -0.206 OA
HETATM   14  O2  UNL     1      -3.522   1.931   0.267  1.00  0.00    -0.206 OA
ENDBRANCH   9  11
ENDBRANCH   6   9
BRANCH   6  15
HETATM   15  C7  UNL     1       0.639   0.255  -0.014  1.00  0.00     0.260 C 
HETATM   16  O3  UNL     1       1.188  -0.285  -0.942  1.00  0.00    -0.270 OA
HETATM   17  N2  UNL     1       1.372   0.676   1.137  1.00  0.00    -0.248 N 
ATOM     18  H2  UNL     1       0.788   1.081   1.869  1.00  0.00     0.182 HD
BRANCH  17  19
HETATM   19  S2  UNL     1       3.000   0.635   1.521  1.00  0.00     0.271 S 
HETATM   20  O4  UNL     1       3.155  -0.219   2.787  1.00  0.00    -0.200 OA
HETATM   21  O5  UNL     1       3.430   2.053   1.867  1.00  0.00    -0.200 OA
BRANCH  19  22
HETATM   22  C8  UNL     1       4.019  -0.090   0.310  1.00  0.00     0.121 A 
HETATM   23  C9  UNL     1       5.217  -0.728   0.588  1.00  0.00     0.052 A 
HETATM   24  C10 UNL     1       5.959  -1.153  -0.449  1.00  0.00     0.019 A 
HETATM   25 BR1  UNL     1       7.709  -2.018  -0.286  1.00  0.00    -0.051 Br
HETATM   26  C11 UNL     1       5.465  -0.909  -1.705  1.00  0.00     0.070 A 
HETATM   27  S3  UNL     1       4.030  -0.120  -1.392  1.00  0.00    -0.087 SA
ENDBRANCH  19  22
ENDBRANCH  17  19
ENDBRANCH   6  15
TORSDOF 5
