REMARK  2 active torsions:
REMARK  status: ('A' for Active; 'I' for Inactive)
REMARK    1  A    between atoms: C2_5  and  C3_6 
REMARK    2  A    between atoms: N2_7  and  C4_9 
ROOT
HETATM    1  O1  UNL     1       4.108  -1.747   1.844  1.00  0.00    -0.245 OA
HETATM    2  C1  UNL     1       3.679  -0.895   1.032  1.00  0.00     0.339 A 
HETATM    3  N1  UNL     1       2.370  -0.738   0.823  1.00  0.00    -0.302 N 
ATOM      4  H1  UNL     1       1.720  -1.329   1.341  1.00  0.00     0.171 HD
HETATM    5  C2  UNL     1       1.868   0.165  -0.040  1.00  0.00     0.121 A 
HETATM    6  C9  UNL     1       2.768   0.943  -0.720  1.00  0.00     0.288 A 
HETATM    7  O3  UNL     1       2.317   1.787  -1.526  1.00  0.00    -0.264 OA
HETATM    8  N4  UNL     1       4.088   0.788  -0.513  1.00  0.00    -0.261 N 
ATOM      9  H4  UNL     1       4.749   1.373  -1.025  1.00  0.00     0.190 HD
HETATM   10  N5  UNL     1       4.546  -0.117   0.350  1.00  0.00    -0.248 N 
ATOM     11  H5  UNL     1       5.550  -0.222   0.495  1.00  0.00     0.192 HD
ENDROOT
BRANCH   5  12
HETATM   12  C3  UNL     1       0.424   0.279  -0.215  1.00  0.00     0.123 C 
HETATM   13  N2  UNL     1      -0.365  -0.486   0.458  1.00  0.00    -0.359 N 
ATOM     14  H2  UNL     1      -0.002  -1.176   1.116  1.00  0.00     0.165 HD
BRANCH  13  15
HETATM   15  C4  UNL     1      -1.755  -0.331   0.248  1.00  0.00     0.101 A 
HETATM   16  C5  UNL     1      -2.269   0.921   0.027  1.00  0.00     0.036 A 
HETATM   17  C6  UNL     1      -3.648   1.036  -0.176  1.00  0.00     0.020 A 
HETATM   18  C7  UNL     1      -4.423  -0.102  -0.147  1.00  0.00     0.091 A 
HETATM   19  N3  UNL     1      -3.878  -1.321   0.075  1.00  0.00    -0.332 N 
HETATM   20  C8  UNL     1      -2.540  -1.456   0.275  1.00  0.00     0.272 A 
ATOM     21  H3  UNL     1      -4.477  -2.146   0.092  1.00  0.00     0.168 HD
HETATM   22  O2  UNL     1      -2.064  -2.620   0.481  1.00  0.00    -0.266 OA
ENDBRANCH  13  15
ENDBRANCH   5  12
TORSDOF 2
