REMARK  1 active torsions:
REMARK  status: ('A' for Active; 'I' for Inactive)
REMARK    1  A    between atoms: C5_8  and  N2_10 
ROOT
HETATM    1  C1  UNL     1       1.698   1.497   0.668  1.00  0.00     0.041 C 
HETATM    2  C2  UNL     1       1.391   0.230  -0.022  1.00  0.00     0.068 C 
HETATM    3  C3  UNL     1       2.108  -0.949   0.549  1.00  0.00     0.041 C 
HETATM    4  N1  UNL     1       1.676   0.458  -1.455  1.00  0.00    -0.347 N 
ATOM      5  H1  UNL     1       2.462   0.327  -2.092  1.00  0.00     0.163 HD
HETATM    6  C4  UNL     1       0.338   0.947  -1.529  1.00  0.00     0.257 C 
HETATM    7  O1  UNL     1      -0.242   1.844  -2.186  1.00  0.00    -0.271 OA
HETATM    8  C5  UNL     1       0.038  -0.087  -0.501  1.00  0.00     0.228 C 
HETATM    9  C6  UNL     1       0.068  -1.449  -1.221  1.00  0.00     0.060 C 
ENDROOT
BRANCH   8  10
HETATM   10  N2  UNL     1      -1.111   0.044   0.263  1.00  0.00    -0.059 N 
HETATM   11  C7  UNL     1      -1.027   0.671   1.535  1.00  0.00     0.273 C 
HETATM   12  C8  UNL     1      -2.130   0.764  -0.519  1.00  0.00     0.273 C 
HETATM   13  C9  UNL     1      -1.721  -1.273   0.535  1.00  0.00     0.273 C 
ENDBRANCH   8  10
TORSDOF 1
