REMARK  2 active torsions:
REMARK  status: ('A' for Active; 'I' for Inactive)
REMARK    1  A    between atoms: C1_2  and  C2_4 
REMARK    2  A    between atoms: C2_4  and  C3_5 
ROOT
HETATM    1  C3  UNL     1       0.992  -0.261   0.430  1.00  0.00    -0.032 C 
HETATM    2  C4  UNL     1       0.796  -1.620  -0.153  1.00  0.00     0.014 C 
HETATM    3  C5  UNL     1      -0.655  -1.708  -0.563  1.00  0.00    -0.013 C 
HETATM    4  C6  UNL     1      -0.942  -0.745  -1.655  1.00  0.00     0.010 C 
HETATM    5  C7  UNL     1      -0.426   0.625  -1.483  1.00  0.00     0.001 C 
HETATM    6  C8  UNL     1       0.653   0.859  -0.484  1.00  0.00     0.015 C 
HETATM    7  C9  UNL     1      -1.546   1.638  -1.341  1.00  0.00     0.145 C 
HETATM    8  S1  UNL     1      -2.654   1.378  -0.051  1.00  0.00     0.145 S 
HETATM    9  O2  UNL     1      -3.216   2.775   0.278  1.00  0.00    -0.228 OA
HETATM   10  O3  UNL     1      -3.908   0.665  -0.551  1.00  0.00    -0.228 OA
HETATM   11  C10 UNL     1      -2.073   0.787   1.453  1.00  0.00     0.145 C 
HETATM   12  C11 UNL     1      -1.290  -0.474   1.535  1.00  0.00     0.001 C 
HETATM   13  C12 UNL     1      -1.625  -1.535   0.546  1.00  0.00     0.010 C 
HETATM   14  C13 UNL     1       0.179  -0.212   1.709  1.00  0.00     0.015 C 
ENDROOT
BRANCH   1  15
HETATM   15  C2  UNL     1       2.430  -0.154   0.898  1.00  0.00     0.109 C 
BRANCH  15  16
HETATM   16  C1  UNL     1       3.415  -0.342  -0.159  1.00  0.00     0.231 C 
HETATM   17  N1  UNL     1       4.087   0.762  -0.737  1.00  0.00    -0.062 NA
HETATM   18  O1  UNL     1       3.691  -1.504  -0.582  1.00  0.00    -0.277 OA
ENDBRANCH  15  16
ENDBRANCH   1  15
TORSDOF 2
