REMARK  5 active torsions:
REMARK  status: ('A' for Active; 'I' for Inactive)
REMARK    1  A    between atoms: C2_2  and  C3_3 
REMARK    2  A    between atoms: C3_3  and  O1_4 
REMARK    3  A    between atoms: C5_7  and  C6_8 
REMARK    4  A    between atoms: C7_11  and  C9_13 
REMARK    5  A    between atoms: C10_14  and  C11_15 
ROOT
HETATM    1  C3  UNL     1       3.879  -1.230  -0.037  1.00  0.00     0.124 C 
HETATM    2  C4  UNL     1       3.658  -0.170   0.995  1.00  0.00     0.085 C 
HETATM    3  C5  UNL     1       2.356   0.558   0.749  1.00  0.00     0.188 C 
HETATM    4  O3  UNL     1       2.092   0.680  -0.606  1.00  0.00    -0.356 OA
HETATM    5  C7  UNL     1       1.656  -0.538  -1.129  1.00  0.00     0.139 C 
HETATM    6  C8  UNL     1       1.546  -0.337  -2.637  1.00  0.00     0.059 C 
HETATM    7  C20 UNL     1       2.649  -1.568  -0.801  1.00  0.00     0.198 C 
HETATM    8  O5  UNL     1       2.465  -2.711  -1.159  1.00  0.00    -0.291 OA
ENDROOT
BRANCH   5   9
HETATM    9  C9  UNL     1       0.297  -0.869  -0.646  1.00  0.00     0.019 C 
HETATM   10  C10 UNL     1      -0.559   0.111  -0.448  1.00  0.00     0.007 C 
BRANCH  10  11
HETATM   11  C11 UNL     1      -1.930  -0.093   0.027  1.00  0.00    -0.056 C 
HETATM   12  C12 UNL     1      -2.749   0.928   0.211  1.00  0.00    -0.071 C 
HETATM   13  C13 UNL     1      -2.230   2.290  -0.081  1.00  0.00     0.044 C 
HETATM   14  C14 UNL     1      -4.138   0.833   0.686  1.00  0.00     0.046 C 
HETATM   15  C15 UNL     1      -4.958   1.855  -0.074  1.00  0.00     0.038 C 
HETATM   16  C17 UNL     1      -4.823  -0.445   0.388  1.00  0.00     0.130 C 
HETATM   17  C16 UNL     1      -6.221   1.093  -0.403  1.00  0.00     0.169 C 
HETATM   18  O4  UNL     1      -5.755  -0.180  -0.637  1.00  0.00    -0.385 OA
HETATM   19  C18 UNL     1      -3.953  -1.553  -0.072  1.00  0.00     0.037 C 
HETATM   20  C19 UNL     1      -2.503  -1.427   0.331  1.00  0.00     0.041 C 
ENDBRANCH  10  11
ENDBRANCH   5   9
BRANCH   3  21
HETATM   21  C6  UNL     1       2.494   1.929   1.311  1.00  0.00     0.263 C 
HETATM   22  O2  UNL     1       2.385   2.946   0.649  1.00  0.00    -0.304 OA
ENDBRANCH   3  21
BRANCH   1  23
HETATM   23  C2  UNL     1       5.007  -0.861  -0.984  1.00  0.00     0.042 C 
HETATM   24  C1  UNL     1       6.293  -0.612  -0.269  1.00  0.00     0.009 C 
ENDBRANCH   1  23
BRANCH   1  25
HETATM   25  O1  UNL     1       4.288  -2.399   0.623  1.00  0.00    -0.382 OA
ATOM     26  H1  UNL     1       3.582  -2.630   1.216  1.00  0.00     0.211 HD
ENDBRANCH   1  25
TORSDOF 5
