REMARK  4 active torsions:
REMARK  status: ('A' for Active; 'I' for Inactive)
REMARK    1  A    between atoms: N1_1  and  N2_4 
REMARK    2  A    between atoms: N3_6  and  C1_8 
REMARK    3  A    between atoms: C1_8  and  C2_9 
REMARK    4  A    between atoms: C2_9  and  C3_10 
ROOT
HETATM    1  C1  UNL     1      -0.149   0.452   0.260  1.00  0.00     0.212 C 
HETATM    2  O3  UNL     1       0.760  -0.269   1.030  1.00  0.00    -0.314 OA
HETATM    3  C4  UNL     1       2.023  -0.018   0.590  1.00  0.00     0.320 C 
HETATM    4  F1  UNL     1       2.895  -0.786   1.324  1.00  0.00    -0.219 F 
HETATM    5  C5  UNL     1       2.138  -0.452  -0.856  1.00  0.00     0.144 C 
HETATM    6  S1  UNL     1       0.416  -0.100  -1.406  1.00  0.00    -0.102 SA
ENDROOT
BRANCH   1   7
HETATM    7  N3  UNL     1       0.045   1.857   0.315  1.00  0.00    -0.278 N 
HETATM    8  N2  UNL     1      -0.837   2.700   0.137  1.00  0.00    -0.251 N 
ATOM      9  H2  UNL     1      -1.231   2.828   1.069  1.00  0.00     0.207 HD
ATOM     10  H3  UNL     1       0.986   2.195   0.517  1.00  0.00     0.186 HD
BRANCH   8  11
HETATM   11  N1  UNL     1      -1.508   3.482  -0.570  1.00  0.00    -0.331 N 
ATOM     12  H12 UNL     1      -1.086   3.325  -1.486  1.00  0.00     0.178 HD
ATOM     13  H11 UNL     1      -2.238   4.179  -0.717  1.00  0.00     0.178 HD
ENDBRANCH   8  11
ENDBRANCH   1   7
BRANCH   1  14
HETATM   14  C2  UNL     1      -1.552   0.001   0.448  1.00  0.00     0.188 C 
BRANCH  14  15
HETATM   15  C3  UNL     1      -1.701  -1.474   0.381  1.00  0.00     0.178 C 
HETATM   16  O1  UNL     1      -1.440  -2.233   1.359  1.00  0.00    -0.648 OA
HETATM   17  O2  UNL     1      -2.146  -2.119  -0.782  1.00  0.00    -0.648 OA
ENDBRANCH  14  15
ENDBRANCH   1  14
TORSDOF 4
