REMARK  7 active torsions:
REMARK  status: ('A' for Active; 'I' for Inactive)
REMARK    1  A    between atoms: S1_2  and  C1_4 
REMARK    2  A    between atoms: S1_2  and  N3_21 
REMARK    3  A    between atoms: C4_9  and  N1_10 
REMARK    4  A    between atoms: N1_10  and  C5_12 
REMARK    5  A    between atoms: C5_12  and  C6_13 
REMARK    6  A    between atoms: C6_13  and  C7_14 
REMARK    7  A    between atoms: C7_14  and  N2_15 
ROOT
HETATM    1  C1  UNL     1      -2.322  -1.022   1.260  1.00  0.00     0.142 A 
HETATM    2  S2  UNL     1      -2.415  -2.738   1.192  1.00  0.00    -0.067 SA
HETATM    3  C2  UNL     1      -0.775  -3.106   1.397  1.00  0.00     0.055 A 
HETATM    4 BR1  UNL     1       0.066  -4.843   1.451  1.00  0.00    -0.043 Br
HETATM    5  C3  UNL     1      -0.185  -1.879   1.515  1.00  0.00     0.057 A 
HETATM    6  C4  UNL     1      -0.987  -0.799   1.443  1.00  0.00     0.060 A 
ENDROOT
BRANCH   6   7
HETATM    7  N1  UNL     1      -0.462   0.548   1.560  1.00  0.00    -0.388 N 
ATOM      8  H1  UNL     1      -1.120   1.327   1.579  1.00  0.00     0.159 HD
BRANCH   7   9
HETATM    9  C5  UNL     1       0.951   0.837   1.651  1.00  0.00     0.121 C 
BRANCH   9  10
HETATM   10  C6  UNL     1       1.613   0.582   0.305  1.00  0.00     0.050 C 
BRANCH  10  11
HETATM   11  C7  UNL     1       3.087   0.861   0.357  1.00  0.00     0.274 C 
BRANCH  11  12
HETATM   12  N2  UNL     1       3.676   0.615  -0.925  1.00  0.00     0.092 N 
HETATM   13  C8  UNL     1       3.739  -0.744  -1.342  1.00  0.00     0.298 C 
HETATM   14  C9  UNL     1       4.880  -1.489  -0.670  1.00  0.00     0.198 C 
HETATM   15  O3  UNL     1       6.043  -0.848  -1.028  1.00  0.00    -0.388 OA
HETATM   16  C10 UNL     1       6.102   0.465  -0.604  1.00  0.00     0.198 C 
HETATM   17  C11 UNL     1       4.944   1.310  -1.089  1.00  0.00     0.298 C 
ENDBRANCH  11  12
ENDBRANCH  10  11
ENDBRANCH   9  10
ENDBRANCH   7   9
ENDBRANCH   6   7
BRANCH   1  18
HETATM   18  S1  UNL     1      -3.659   0.129   1.114  1.00  0.00     0.252 S 
HETATM   19  O1  UNL     1      -3.417   1.255   2.034  1.00  0.00    -0.205 OA
HETATM   20  O2  UNL     1      -4.944  -0.545   1.579  1.00  0.00    -0.205 OA
BRANCH  18  21
HETATM   21  N3  UNL     1      -3.874   0.695  -0.473  1.00  0.00    -0.206 NA
HETATM   22  C12 UNL     1      -4.195  -0.292  -1.451  1.00  0.00     0.107 C 
HETATM   23  C13 UNL     1      -5.531   0.088  -2.082  1.00  0.00     0.017 C 
HETATM   24  C14 UNL     1      -6.172   0.862  -0.951  1.00  0.00     0.017 C 
HETATM   25  C15 UNL     1      -4.958   1.659  -0.453  1.00  0.00     0.107 C 
ENDBRANCH  18  21
ENDBRANCH   1  18
TORSDOF 7
