REMARK  8 active torsions:
REMARK  status: ('A' for Active; 'I' for Inactive)
REMARK    1  A    between atoms: C5_5  and  C6_6 
REMARK    2  A    between atoms: C7_7  and  C8_8 
REMARK       I    between atoms: C8_8  and  N1_10 
REMARK    3  A    between atoms: C11_13  and  C12_14 
REMARK    4  A    between atoms: C12_14  and  C13_15 
REMARK    5  A    between atoms: C13_15  and  N2_16 
REMARK    6  A    between atoms: C16_20  and  O3_21 
REMARK    7  A    between atoms: O3_21  and  C17_22 
REMARK    8  A    between atoms: C17_22  and  C19_24 
ROOT
HETATM    1  N2  UNL     1      -3.980  -2.368  -1.418  1.00  0.00    -0.279 N 
HETATM    2  C14 UNL     1      -3.996  -1.085  -1.812  1.00  0.00     0.253 C 
HETATM    3  O2  UNL     1      -3.377  -0.872  -2.888  1.00  0.00    -0.268 OA
HETATM    4  C15 UNL     1      -4.589   0.026  -1.215  1.00  0.00     0.112 C 
HETATM    5  C16 UNL     1      -5.780   0.053  -0.528  1.00  0.00     0.088 C 
HETATM    6  C20 UNL     1      -6.411  -1.041   0.084  1.00  0.00     0.048 A 
HETATM    7  C21 UNL     1      -7.514  -0.960   0.903  1.00  0.00     0.123 A 
HETATM    8  N3  UNL     1      -7.799  -2.211   1.272  1.00  0.00    -0.310 N 
ATOM      9  H3  UNL     1      -8.569  -2.483   1.884  1.00  0.00     0.186 HD
HETATM   10  N4  UNL     1      -6.918  -3.054   0.715  1.00  0.00    -0.295 N 
ATOM     11  H4  UNL     1      -6.912  -4.067   0.837  1.00  0.00     0.187 HD
HETATM   12  C22 UNL     1      -6.045  -2.358  -0.028  1.00  0.00     0.131 A 
HETATM   13  C23 UNL     1      -5.013  -2.945  -0.728  1.00  0.00     0.279 C 
HETATM   14  O4  UNL     1      -4.962  -4.211  -0.775  1.00  0.00    -0.265 OA
ENDROOT
BRANCH   1  15
HETATM   15  C13 UNL     1      -2.837  -3.190  -1.705  1.00  0.00     0.136 C 
BRANCH  15  16
HETATM   16  C12 UNL     1      -1.805  -3.244  -0.654  1.00  0.00     0.025 C 
BRANCH  16  17
HETATM   17  C11 UNL     1      -1.107  -2.003  -0.261  1.00  0.00    -0.010 C 
HETATM   18  C10 UNL     1      -0.140  -2.430   0.871  1.00  0.00     0.024 C 
HETATM   19  C9  UNL     1       0.603  -1.233   1.431  1.00  0.00     0.126 C 
HETATM   20  N1  UNL     1       1.239  -0.533   0.375  1.00  0.00    -0.349 N 
HETATM   21  C8  UNL     1       2.612  -0.114   0.304  1.00  0.00     0.243 C 
HETATM   22  C25 UNL     1       0.399  -0.179  -0.768  1.00  0.00     0.126 C 
HETATM   23  O1  UNL     1       2.920   0.467  -0.751  1.00  0.00    -0.268 OA
HETATM   24  C24 UNL     1      -0.172  -1.461  -1.325  1.00  0.00     0.024 C 
BRANCH  21  25
HETATM   25  C7  UNL     1       3.552  -0.341   1.354  1.00  0.00     0.070 C 
HETATM   26  C6  UNL     1       4.790  -0.096   1.562  1.00  0.00    -0.017 C 
BRANCH  26  27
HETATM   27  C5  UNL     1       5.926   0.510   0.924  1.00  0.00     0.008 C 
HETATM   28  C4  UNL     1       5.876   1.021  -0.452  1.00  0.00     0.009 C 
HETATM   29  C3  UNL     1       7.271   1.500  -0.856  1.00  0.00     0.005 C 
HETATM   30  C2  UNL     1       8.280   1.398   0.238  1.00  0.00    -0.019 C 
HETATM   31  C1  UNL     1       9.498   2.209  -0.213  1.00  0.00     0.010 C 
HETATM   32  C27 UNL     1       7.809   2.041   1.526  1.00  0.00     0.005 C 
HETATM   33  C26 UNL     1       6.372   1.679   1.822  1.00  0.00     0.009 C 
ENDBRANCH  26  27
ENDBRANCH  21  25
ENDBRANCH  16  17
ENDBRANCH  15  16
ENDBRANCH   1  15
BRANCH   5  34
HETATM   34  O3  UNL     1      -6.463   1.224  -0.392  1.00  0.00    -0.343 OA
BRANCH  34  35
HETATM   35  C17 UNL     1      -6.157   2.498  -0.862  1.00  0.00     0.153 C 
HETATM   36  C18 UNL     1      -5.969   3.425   0.329  1.00  0.00     0.042 C 
BRANCH  35  37
HETATM   37  C19 UNL     1      -7.309   3.057  -1.700  1.00  0.00     0.254 C 
HETATM   38  F1  UNL     1      -8.430   3.114  -0.890  1.00  0.00    -0.253 F 
ENDBRANCH  35  37
ENDBRANCH  34  35
ENDBRANCH   5  34
TORSDOF 8
