REMARK  9 active torsions:
REMARK  status: ('A' for Active; 'I' for Inactive)
REMARK    1  A    between atoms: C7_8  and  C8_9 
REMARK    2  A    between atoms: C8_9  and  N1_10 
REMARK    3  A    between atoms: C8_9  and  C14_29 
REMARK       I    between atoms: N1_10  and  C9_12 
REMARK    4  A    between atoms: C9_12  and  C10_14 
REMARK       I    between atoms: C10_14  and  N2_16 
REMARK    5  A    between atoms: N2_16  and  C11_18 
REMARK    6  A    between atoms: C11_18  and  C12_19 
REMARK    7  A    between atoms: C11_18  and  C13_22 
REMARK    8  A    between atoms: C13_22  and  N4_23 
REMARK    9  A    between atoms: C13_22  and  O5_27 
ROOT
HETATM    1  N1  UNL     1      -0.023  -0.997   0.689  1.00  0.00    -0.336 N 
ATOM      2  H1  UNL     1      -0.048  -0.474   1.564  1.00  0.00     0.164 HD
HETATM    3  C9  UNL     1       1.143  -0.916  -0.072  1.00  0.00     0.310 C 
HETATM    4  O2  UNL     1       1.236  -1.533  -1.154  1.00  0.00    -0.262 OA
ENDROOT
BRANCH   3   5
HETATM    5  C10 UNL     1       2.271  -0.124   0.361  1.00  0.00     0.310 C 
HETATM    6  O3  UNL     1       2.201   0.509   1.448  1.00  0.00    -0.262 OA
HETATM    7  N2  UNL     1       3.458  -0.025  -0.387  1.00  0.00    -0.336 N 
ATOM      8  H2  UNL     1       3.530  -0.531  -1.270  1.00  0.00     0.164 HD
BRANCH   7   9
HETATM    9  C11 UNL     1       4.583   0.774   0.059  1.00  0.00     0.230 C 
BRANCH   9  10
HETATM   10  C12 UNL     1       5.750  -0.081   0.275  1.00  0.00     0.258 C 
HETATM   11  N3  UNL     1       6.997   0.429   0.714  1.00  0.00    -0.060 NA
HETATM   12  O4  UNL     1       5.667  -1.318   0.071  1.00  0.00    -0.274 OA
ENDBRANCH   9  10
BRANCH   9  13
HETATM   13  C13 UNL     1       4.838   1.888  -0.929  1.00  0.00     0.348 C 
BRANCH  13  14
HETATM   14  N4  UNL     1       5.066   1.396  -2.264  1.00  0.00    -0.051 N 
ATOM     15  H43 UNL     1       5.821   0.711  -2.279  1.00  0.00     0.277 HD
ATOM     16  H42 UNL     1       4.298   0.800  -2.572  1.00  0.00     0.277 HD
ATOM     17  H41 UNL     1       5.238   2.148  -2.931  1.00  0.00     0.277 HD
ENDBRANCH  13  14
BRANCH  13  18
HETATM   18  O5  UNL     1       5.893   2.692  -0.574  1.00  0.00    -0.368 OA
ATOM     19  H5  UNL     1       6.053   3.393  -1.195  1.00  0.00     0.212 HD
ENDBRANCH  13  18
ENDBRANCH   9  13
ENDBRANCH   7   9
ENDBRANCH   3   5
BRANCH   1  20
HETATM   20  C8  UNL     1      -1.197  -1.760   0.339  1.00  0.00     0.215 C 
BRANCH  20  21
HETATM   21  C7  UNL     1      -2.426  -0.906   0.172  1.00  0.00     0.158 C 
HETATM   22  C6  UNL     1      -2.872  -0.287   1.480  1.00  0.00     0.037 C 
HETATM   23  C5  UNL     1      -4.395  -0.326   1.569  1.00  0.00     0.029 C 
HETATM   24  C4  UNL     1      -5.021   0.345   0.363  1.00  0.00     0.171 C 
HETATM   25  O1  UNL     1      -4.583  -0.199  -0.820  1.00  0.00    -0.356 OA
HETATM   26  C2  UNL     1      -3.489   0.431  -1.371  1.00  0.00     0.157 C 
HETATM   27  C1  UNL     1      -3.668   1.937  -1.319  1.00  0.00     0.078 C 
HETATM   28  C3  UNL     1      -3.451   0.045  -2.851  1.00  0.00     0.078 C 
HETATM   29  O8  UNL     1      -2.292   0.047  -0.817  1.00  0.00    -0.348 OA
ENDBRANCH  20  21
BRANCH  20  30
HETATM   30  C14 UNL     1      -1.489  -2.825   1.331  1.00  0.00     0.199 C 
HETATM   31  O6  UNL     1      -0.788  -3.032   2.356  1.00  0.00    -0.646 OA
HETATM   32  O7  UNL     1      -2.587  -3.642   1.131  1.00  0.00    -0.646 OA
ENDBRANCH  20  30
ENDBRANCH   1  20
TORSDOF 9
