REMARK  9 active torsions:
REMARK  status: ('A' for Active; 'I' for Inactive)
REMARK    1  A    between atoms: C2_2  and  C3_3 
REMARK    2  A    between atoms: C6_6  and  C7_7 
REMARK    3  A    between atoms: C7_7  and  O1_8 
REMARK    4  A    between atoms: C7_7  and  N1_10 
REMARK    5  A    between atoms: N1_10  and  C8_12 
REMARK    6  A    between atoms: C8_12  and  C10_14 
REMARK       I    between atoms: C10_14  and  N2_16 
REMARK    7  A    between atoms: N2_16  and  C11_18 
REMARK    8  A    between atoms: C11_18  and  O3_19 
REMARK    9  A    between atoms: C11_18  and  C12_21 
ROOT
HETATM    1  N1  UNL     1       0.834  -0.770  -1.327  1.00  0.00    -0.380 N 
ATOM      2  H1  UNL     1       1.246  -1.697  -1.226  1.00  0.00     0.157 HD
ENDROOT
BRANCH   1   3
HETATM    3  C7  UNL     1      -0.259  -0.617  -2.186  1.00  0.00     0.265 C 
BRANCH   3   4
HETATM    4  C6  UNL     1      -1.539  -0.539  -1.430  1.00  0.00     0.057 A 
HETATM    5  C5  UNL     1      -2.617   0.187  -1.930  1.00  0.00     0.030 A 
HETATM    6  C4  UNL     1      -3.804   0.218  -1.259  1.00  0.00     0.015 A 
HETATM    7  C3  UNL     1      -4.001  -0.466  -0.053  1.00  0.00    -0.022 A 
HETATM    8  C13 UNL     1      -2.901  -1.164   0.389  1.00  0.00     0.099 A 
HETATM    9  N3  UNL     1      -1.735  -1.191  -0.275  1.00  0.00    -0.365 N 
ATOM     10  H3  UNL     1      -0.964  -1.732   0.116  1.00  0.00     0.165 HD
BRANCH   7  11
HETATM   11  C2  UNL     1      -5.282  -0.412   0.629  1.00  0.00     0.002 C 
HETATM   12  C1  UNL     1      -5.451  -0.972   1.798  1.00  0.00     0.012 C 
ENDBRANCH   7  11
ENDBRANCH   3   4
BRANCH   3  13
HETATM   13  O1  UNL     1      -0.207   0.609  -2.909  1.00  0.00    -0.371 OA
ATOM     14  H1  UNL     1       0.610   0.559  -3.391  1.00  0.00     0.212 HD
ENDBRANCH   3  13
ENDBRANCH   1   3
BRANCH   1  15
HETATM   15  C8  UNL     1       1.386   0.284  -0.603  1.00  0.00     0.167 C 
HETATM   16  C9  UNL     1       0.533   0.972   0.430  1.00  0.00     0.042 C 
BRANCH  15  17
HETATM   17  C10 UNL     1       2.651  -0.213   0.070  1.00  0.00     0.242 C 
HETATM   18  O2  UNL     1       2.962  -1.406  -0.126  1.00  0.00    -0.271 OA
HETATM   19  N2  UNL     1       3.413   0.662   0.872  1.00  0.00    -0.327 N 
ATOM     20  H2  UNL     1       3.116   1.629   1.001  1.00  0.00     0.165 HD
BRANCH  19  21
HETATM   21  C11 UNL     1       4.616   0.180   1.510  1.00  0.00     0.282 C 
BRANCH  21  22
HETATM   22  O3  UNL     1       4.513   0.345   2.903  1.00  0.00    -0.370 OA
ATOM     23  H3  UNL     1       5.304   0.028   3.323  1.00  0.00     0.212 HD
ENDBRANCH  21  22
BRANCH  21  24
HETATM   24  C12 UNL     1       5.739   1.025   1.017  1.00  0.00     0.284 C 
HETATM   25  O4  UNL     1       6.010   1.040  -0.161  1.00  0.00    -0.302 OA
ENDBRANCH  21  24
ENDBRANCH  19  21
ENDBRANCH  15  17
ENDBRANCH   1  15
TORSDOF 9
