REMARK  12 active torsions:
REMARK  status: ('A' for Active; 'I' for Inactive)
REMARK    1  A    between atoms: C2_2  and  C3_3 
REMARK    2  A    between atoms: C4_4  and  C5_5 
REMARK    3  A    between atoms: C6_6  and  C7_7 
REMARK    4  A    between atoms: C10_11  and  C11_12 
REMARK    5  A    between atoms: C11_12  and  O3_14 
REMARK    6  A    between atoms: O3_14  and  C12_15 
REMARK    7  A    between atoms: C12_15  and  C13_16 
REMARK    8  A    between atoms: C13_16  and  C15_18 
REMARK    9  A    between atoms: C18_23  and  C19_24 
REMARK   10  A    between atoms: C19_24  and  C20_25 
REMARK   11  A    between atoms: C21_26  and  C22_27 
REMARK   12  A    between atoms: C22_27  and  C23_28 
ROOT
HETATM    1  C15 UNL     1       0.402  -1.918  -0.660  1.00  0.00     0.030 C 
HETATM    2  C16 UNL     1       1.154  -2.307   0.584  1.00  0.00     0.118 C 
HETATM    3  C17 UNL     1       0.180  -3.021   1.488  1.00  0.00     0.259 C 
HETATM    4  O4  UNL     1       0.346  -3.270   2.700  1.00  0.00    -0.265 OA
HETATM    5  O5  UNL     1      -0.899  -3.331   0.714  1.00  0.00    -0.315 OA
HETATM    6  C18 UNL     1      -0.996  -2.429  -0.388  1.00  0.00     0.140 C 
ENDROOT
BRANCH   1   7
HETATM    7  C13 UNL     1       0.989  -2.369  -1.910  1.00  0.00     0.013 C 
HETATM    8  C14 UNL     1       0.040  -2.254  -3.115  1.00  0.00     0.012 C 
BRANCH   7   9
HETATM    9  C12 UNL     1       2.298  -1.904  -2.355  1.00  0.00     0.183 C 
BRANCH   9  10
HETATM   10  O3  UNL     1       3.414  -1.773  -1.617  1.00  0.00    -0.320 OA
BRANCH  10  11
HETATM   11  C11 UNL     1       3.788  -0.785  -0.777  1.00  0.00     0.271 C 
HETATM   12  O2  UNL     1       3.036   0.232  -0.623  1.00  0.00    -0.264 OA
BRANCH  11  13
HETATM   13  C10 UNL     1       5.068  -0.816   0.001  1.00  0.00     0.164 C 
HETATM   14  C3  UNL     1       5.211   0.440   0.825  1.00  0.00     0.043 C 
HETATM   15  C4  UNL     1       6.685   0.451   0.429  1.00  0.00     0.087 C 
HETATM   16  C9  UNL     1       6.272  -0.412  -0.735  1.00  0.00     0.149 C 
HETATM   17  O1  UNL     1       6.762  -0.637  -1.797  1.00  0.00    -0.296 OA
BRANCH  14  18
HETATM   18  C2  UNL     1       4.968   0.279   2.269  1.00  0.00    -0.030 C 
HETATM   19  C1  UNL     1       4.011   0.960   2.856  1.00  0.00     0.007 C 
ENDBRANCH  14  18
BRANCH  15  20
HETATM   20  C5  UNL     1       7.096   1.818   0.031  1.00  0.00    -0.018 C 
HETATM   21  C6  UNL     1       8.264   2.367   0.233  1.00  0.00    -0.030 C 
BRANCH  21  22
HETATM   22  C7  UNL     1       9.371   1.685   0.903  1.00  0.00     0.022 C 
HETATM   23  C8  UNL     1      10.580   1.579  -0.027  1.00  0.00     0.009 C 
ENDBRANCH  21  22
ENDBRANCH  15  20
ENDBRANCH  11  13
ENDBRANCH  10  11
ENDBRANCH   9  10
ENDBRANCH   7   9
ENDBRANCH   1   7
BRANCH   6  24
HETATM   24  C19 UNL     1      -1.951  -1.345   0.066  1.00  0.00     0.059 C 
BRANCH  24  25
HETATM   25  C20 UNL     1      -2.124  -0.257  -0.924  1.00  0.00    -0.028 C 
HETATM   26  C21 UNL     1      -3.238   0.102  -1.507  1.00  0.00    -0.030 C 
BRANCH  26  27
HETATM   27  C22 UNL     1      -4.586  -0.460  -1.341  1.00  0.00     0.032 C 
BRANCH  27  28
HETATM   28  C23 UNL     1      -5.500   0.624  -0.860  1.00  0.00    -0.003 C 
HETATM   29  C24 UNL     1      -6.922   0.198  -0.646  1.00  0.00    -0.009 C 
HETATM   30  C25 UNL     1      -7.718   1.499  -0.454  1.00  0.00     0.010 C 
HETATM   31  C29 UNL     1      -7.091  -0.644   0.586  1.00  0.00     0.010 C 
HETATM   32  C26 UNL     1      -7.172   2.276   0.705  1.00  0.00    -0.013 C 
HETATM   33  C27 UNL     1      -7.335   1.436   1.956  1.00  0.00     0.009 C 
HETATM   34  C32 UNL     1      -5.710   2.591   0.531  1.00  0.00     0.010 C 
HETATM   35  C28 UNL     1      -6.617   0.138   1.774  1.00  0.00    -0.013 C 
HETATM   36  C30 UNL     1      -5.144   0.433   1.595  1.00  0.00     0.010 C 
HETATM   37  C31 UNL     1      -4.943   1.284   0.382  1.00  0.00    -0.009 C 
ENDBRANCH  27  28
ENDBRANCH  26  27
ENDBRANCH  24  25
ENDBRANCH   6  24
TORSDOF 12
