REMARK  6 active torsions:
REMARK  status: ('A' for Active; 'I' for Inactive)
REMARK    1  A    between atoms: C2_2  and  C3_3 
REMARK    2  A    between atoms: N1_6  and  C6_7 
REMARK    3  A    between atoms: C6_7  and  O1_8 
REMARK    4  A    between atoms: C6_7  and  N2_10 
REMARK    5  A    between atoms: C13_21  and  N4_22 
REMARK       I    between atoms: N4_22  and  C14_24 
REMARK    6  A    between atoms: C14_24  and  C15_26 
ROOT
HETATM    1  C3  UNL     1      -1.773  -0.656   0.975  1.00  0.00     0.039 A 
HETATM    2  C4  UNL     1      -2.532  -0.595  -0.335  1.00  0.00     0.044 A 
HETATM    3  C5  UNL     1      -1.075  -0.375  -0.275  1.00  0.00     0.054 A 
HETATM    4  N1  UNL     1      -0.455   0.922  -0.407  1.00  0.00    -0.306 N 
HETATM    5  C8  UNL     1       0.877   0.885  -1.071  1.00  0.00     0.312 C 
HETATM    6  N3  UNL     1       0.590   0.481  -2.433  1.00  0.00    -0.051 N 
ATOM      7  H31 UNL     1       1.390   0.583  -3.058  1.00  0.00     0.279 HD
ATOM      8  H32 UNL     1      -0.036   1.124  -2.918  1.00  0.00     0.279 HD
HETATM    9  C9  UNL     1       0.089  -0.854  -2.377  1.00  0.00     0.246 C 
HETATM   10  C10 UNL     1      -0.164  -1.351  -0.957  1.00  0.00     0.008 C 
HETATM   11  C11 UNL     1      -0.658  -2.761  -1.083  1.00  0.00     0.020 C 
HETATM   12  C12 UNL     1       1.133  -1.379  -0.177  1.00  0.00     0.042 C 
HETATM   13  C13 UNL     1       1.828  -0.077  -0.470  1.00  0.00     0.135 C 
ENDROOT
BRANCH   4  14
HETATM   14  C6  UNL     1      -0.985   2.146   0.007  1.00  0.00     0.217 C 
BRANCH  14  15
HETATM   15  O1  UNL     1      -0.184   3.157  -0.230  1.00  0.00    -0.333 OA
ATOM     16  H1  UNL     1      -0.545   3.990   0.052  1.00  0.00     0.220 HD
ENDBRANCH  14  15
BRANCH  14  17
HETATM   17  N2  UNL     1      -2.174   2.508   0.612  1.00  0.00    -0.361 N 
HETATM   18  C7  UNL     1      -2.427   3.931   0.925  1.00  0.00     0.150 C 
ATOM     19  H2  UNL     1      -2.871   1.799   0.841  1.00  0.00     0.162 HD
ENDBRANCH  14  17
ENDBRANCH   4  14
BRANCH   1  20
HETATM   20  C2  UNL     1      -1.815  -1.991   1.643  1.00  0.00    -0.030 C 
HETATM   21  C1  UNL     1      -2.973  -2.624   1.852  1.00  0.00     0.007 C 
ENDBRANCH   1  20
BRANCH  13  22
HETATM   22  N4  UNL     1       2.557   0.429   0.664  1.00  0.00    -0.352 N 
HETATM   23  C14 UNL     1       3.974   0.511   0.633  1.00  0.00     0.228 C 
HETATM   24  O2  UNL     1       4.610   0.134  -0.410  1.00  0.00    -0.273 OA
ATOM     25  H4  UNL     1       2.051   0.731   1.497  1.00  0.00     0.163 HD
BRANCH  23  26
HETATM   26  C15 UNL     1       4.781   1.015   1.750  1.00  0.00     0.187 C 
HETATM   27 BR1  UNL     1       5.237  -0.455   2.902  1.00  0.00    -0.087 Br
ENDBRANCH  23  26
ENDBRANCH  13  22
TORSDOF 6
