REMARK  5 active torsions:
REMARK  status: ('A' for Active; 'I' for Inactive)
REMARK    1  A    between atoms: C5_5  and  C6_6 
REMARK    2  A    between atoms: C5_5  and  C8_13 
REMARK       I    between atoms: C6_6  and  N1_8 
REMARK    3  A    between atoms: C8_13  and  O2_14 
REMARK    4  A    between atoms: C8_13  and  C9_16 
REMARK    5  A    between atoms: C15_23  and  C16_24 
ROOT
HETATM    1  C8  UNL     1       0.751  -0.843   0.690  1.00  0.00     0.166 C 
ENDROOT
BRANCH   1   2
HETATM    2  C5  UNL     1       1.822  -0.596  -0.336  1.00  0.00     0.078 A 
HETATM    3  C2  UNL     1       1.743  -1.028  -1.721  1.00  0.00    -0.027 A 
HETATM    4  C1  UNL     1       2.550  -0.289  -2.766  1.00  0.00     0.016 C 
HETATM    5  C3  UNL     1       0.631  -1.851  -2.343  1.00  0.00     0.016 C 
HETATM    6  C4  UNL     1       2.621  -1.881  -0.793  1.00  0.00     0.033 A 
BRANCH   2   7
HETATM    7  C6  UNL     1       2.775   0.512   0.012  1.00  0.00     0.236 C 
HETATM    8  O1  UNL     1       3.688   0.800  -0.812  1.00  0.00    -0.272 OA
HETATM    9  N1  UNL     1       2.742   1.267   1.193  1.00  0.00    -0.303 N 
HETATM   10  C7  UNL     1       3.824   1.683   1.738  1.00  0.00     0.203 C 
ATOM     11  H1  UNL     1       1.844   1.488   1.624  1.00  0.00     0.171 HD
HETATM   12  N2  UNL     1       3.734   2.440   2.927  1.00  0.00    -0.066 NA
HETATM   13  N3  UNL     1       5.101   1.383   1.147  1.00  0.00    -0.066 NA
ENDBRANCH   2   7
ENDBRANCH   1   2
BRANCH   1  14
HETATM   14  O2  UNL     1       1.212  -0.312   1.895  1.00  0.00    -0.390 OA
ATOM     15  H2  UNL     1       0.535  -0.468   2.543  1.00  0.00     0.210 HD
ENDBRANCH   1  14
BRANCH   1  16
HETATM   16  C9  UNL     1      -0.639  -0.537   0.377  1.00  0.00    -0.040 C 
HETATM   17  C10 UNL     1      -1.560  -0.897   1.578  1.00  0.00     0.066 C 
HETATM   18  C11 UNL     1      -2.893  -1.146   0.977  1.00  0.00     0.246 C 
HETATM   19  N4  UNL     1      -3.424  -0.129   0.158  1.00  0.00    -0.054 N 
HETATM   20  C12 UNL     1      -4.407  -0.813  -0.719  1.00  0.00     0.277 C 
HETATM   21  C13 UNL     1      -4.280   0.696   1.037  1.00  0.00     0.277 C 
HETATM   22  C14 UNL     1      -2.559   0.648  -0.634  1.00  0.00     0.209 C 
HETATM   23  C15 UNL     1      -1.097   0.693  -0.247  1.00  0.00    -0.020 C 
BRANCH  23  24
HETATM   24  C16 UNL     1      -0.770   2.040   0.277  1.00  0.00     0.125 C 
HETATM   25 BR1  UNL     1      -1.288   2.540   2.016  1.00  0.00    -0.091 Br
ENDBRANCH  23  24
ENDBRANCH   1  16
TORSDOF 5
