REMARK  4 active torsions:
REMARK  status: ('A' for Active; 'I' for Inactive)
REMARK    1  A    between atoms: C3_3  and  N1_4 
REMARK       I    between atoms: N1_4  and  C4_6 
REMARK    2  A    between atoms: C4_6  and  C5_8 
REMARK    3  A    between atoms: C8_11  and  N2_12 
REMARK       I    between atoms: N2_12  and  C9_14 
REMARK       I    between atoms: C9_14  and  N3_16 
REMARK    4  A    between atoms: N4_21  and  C13_22 
ROOT
HETATM    1  C1  UNL     1       6.409  -0.942   2.080  1.00  0.00     0.014 C 
HETATM    2  C2  UNL     1       5.675  -0.817   1.137  1.00  0.00    -0.098 C 
HETATM    3  C3  UNL     1       4.774  -0.677  -0.018  1.00  0.00     0.216 C 
ENDROOT
BRANCH   3   4
HETATM    4  N1  UNL     1       3.493  -0.178   0.426  1.00  0.00    -0.350 N 
HETATM    5  C4  UNL     1       2.475   0.032  -0.516  1.00  0.00     0.223 C 
HETATM    6  O1  UNL     1       2.695  -0.218  -1.729  1.00  0.00    -0.273 OA
ATOM      7  H1  UNL     1       3.331   0.019   1.413  1.00  0.00     0.163 HD
BRANCH   5   8
HETATM    8  C5  UNL     1       1.124   0.542  -0.157  1.00  0.00     0.095 C 
HETATM    9  C6  UNL     1       0.265   0.661  -1.363  1.00  0.00     0.042 C 
HETATM   10  C7  UNL     1      -1.134   1.060  -0.868  1.00  0.00     0.104 C 
HETATM   11  C8  UNL     1      -1.722  -0.084  -0.074  1.00  0.00     0.115 C 
HETATM   12  N4  UNL     1      -0.880   2.047   0.123  1.00  0.00    -0.396 N 
HETATM   13  C11 UNL     1      -0.906   0.030   1.193  1.00  0.00     0.043 C 
HETATM   14  C12 UNL     1      -1.100   1.542   1.430  1.00  0.00     0.126 C 
HETATM   15  C16 UNL     1       0.551  -0.207   0.996  1.00  0.00     0.078 C 
HETATM   16 BR1  UNL     1       0.989  -2.085   1.013  1.00  0.00    -0.090 Br
BRANCH  11  17
HETATM   17  N2  UNL     1      -1.649  -1.354  -0.728  1.00  0.00    -0.336 N 
HETATM   18  C9  UNL     1      -2.847  -2.102  -0.886  1.00  0.00     0.316 C 
HETATM   19  O2  UNL     1      -3.967  -1.646  -0.451  1.00  0.00    -0.247 OA
HETATM   20  N3  UNL     1      -2.814  -3.356  -1.524  1.00  0.00    -0.347 N 
HETATM   21  C10 UNL     1      -4.022  -4.142  -1.700  1.00  0.00     0.151 C 
ATOM     22  H3  UNL     1      -1.925  -3.719  -1.869  1.00  0.00     0.163 HD
ATOM     23  H2  UNL     1      -0.759  -1.714  -1.073  1.00  0.00     0.164 HD
ENDBRANCH  11  17
BRANCH  12  24
HETATM   24  C13 UNL     1      -1.375   3.348  -0.151  1.00  0.00     0.211 C 
HETATM   25  C14 UNL     1      -1.038   4.247   0.952  1.00  0.00    -0.098 C 
HETATM   26  C15 UNL     1      -0.752   4.990   1.860  1.00  0.00     0.014 C 
ENDBRANCH  12  24
ENDBRANCH   5   8
ENDBRANCH   3   4
TORSDOF 4
