REMARK  9 active torsions:
REMARK  status: ('A' for Active; 'I' for Inactive)
REMARK    1  A    between atoms: N1_2  and  C2_4 
REMARK    2  A    between atoms: C5_8  and  C6_9 
REMARK    3  A    between atoms: C6_9  and  C7_10 
REMARK    4  A    between atoms: C7_10  and  C8_11 
REMARK    5  A    between atoms: C8_11  and  N2_12 
REMARK    6  A    between atoms: N2_12  and  C9_14 
REMARK    7  A    between atoms: C9_14  and  C10_15 
REMARK    8  A    between atoms: C9_14  and  C11_18 
REMARK    9  A    between atoms: C10_15  and  O1_16 
ROOT
HETATM    1  C2  UNL     1       4.127  -0.185   0.247  1.00  0.00     0.072 A 
HETATM    2  C3  UNL     1       3.542   0.141   1.450  1.00  0.00     0.062 A 
HETATM    3 CL1  UNL     1       4.517   0.300   2.922  1.00  0.00    -0.082 Cl
HETATM    4  C4  UNL     1       2.160   0.346   1.486  1.00  0.00     0.034 A 
HETATM    5  C5  UNL     1       1.378   0.231   0.364  1.00  0.00    -0.049 A 
HETATM    6  C12 UNL     1       1.967  -0.095  -0.836  1.00  0.00    -0.032 A 
HETATM    7  C13 UNL     1       1.162  -0.233  -2.096  1.00  0.00     0.050 C 
HETATM    8  C14 UNL     1       3.339  -0.299  -0.878  1.00  0.00     0.068 A 
HETATM    9 CL2  UNL     1       4.136  -0.722  -2.403  1.00  0.00    -0.081 Cl
ENDROOT
BRANCH   5  10
HETATM   10  C6  UNL     1      -0.111   0.455   0.447  1.00  0.00     0.041 C 
BRANCH  10  11
HETATM   11  C7  UNL     1      -0.860  -0.828   0.418  1.00  0.00     0.024 C 
BRANCH  11  12
HETATM   12  C8  UNL     1      -2.327  -0.593   0.495  1.00  0.00     0.114 C 
BRANCH  12  13
HETATM   13  N2  UNL     1      -2.886   0.175  -0.565  1.00  0.00    -0.413 N 
ATOM     14  H2  UNL     1      -2.312   0.533  -1.329  1.00  0.00     0.153 HD
BRANCH  13  15
HETATM   15  C9  UNL     1      -4.288   0.418  -0.504  1.00  0.00     0.128 C 
BRANCH  15  16
HETATM   16  C10 UNL     1      -5.102  -0.831  -0.574  1.00  0.00     0.191 C 
BRANCH  16  17
HETATM   17  O1  UNL     1      -4.824  -1.492  -1.781  1.00  0.00    -0.399 OA
ATOM     18  H1  UNL     1      -5.342  -2.287  -1.826  1.00  0.00     0.209 HD
ENDBRANCH  16  17
ENDBRANCH  15  16
BRANCH  15  19
HETATM   19  C11 UNL     1      -4.685   1.248   0.708  1.00  0.00     0.248 C 
HETATM   20  F1  UNL     1      -4.037   2.480   0.655  1.00  0.00    -0.253 F 
ENDBRANCH  15  19
ENDBRANCH  13  15
ENDBRANCH  12  13
ENDBRANCH  11  12
ENDBRANCH  10  11
ENDBRANCH   5  10
BRANCH   1  21
HETATM   21  N1  UNL     1       5.533  -0.391   0.219  1.00  0.00    -0.392 N 
HETATM   22  C1  UNL     1       6.400   0.750  -0.047  1.00  0.00     0.146 C 
ATOM     23  H1  UNL     1       5.927  -1.318   0.382  1.00  0.00     0.159 HD
ENDBRANCH   1  21
TORSDOF 9
