REMARK  10 active torsions:
REMARK  status: ('A' for Active; 'I' for Inactive)
REMARK    1  A    between atoms: C2_2  and  C3_3 
REMARK    2  A    between atoms: C2_2  and  C25_31 
REMARK    3  A    between atoms: C3_3  and  C4_4 
REMARK    4  A    between atoms: C5_7  and  C6_8 
REMARK    5  A    between atoms: C11_13  and  N2_14 
REMARK    6  A    between atoms: C15_18  and  C16_19 
REMARK    7  A    between atoms: C16_19  and  C17_20 
REMARK    8  A    between atoms: C17_20  and  O1_21 
REMARK    9  A    between atoms: C17_20  and  C18_23 
REMARK       I    between atoms: C25_31  and  N4_33 
REMARK   10  A    between atoms: N4_33  and  C27_35 
ROOT
HETATM    1  C18 UNL     1      -1.385   4.447   0.129  1.00  0.00    -0.025 A 
HETATM    2  C19 UNL     1      -1.174   5.152  -1.043  1.00  0.00     0.010 A 
HETATM    3  C20 UNL     1      -0.613   6.410  -1.066  1.00  0.00     0.002 A 
HETATM    4  C21 UNL     1      -0.251   6.980   0.133  1.00  0.00     0.022 A 
HETATM    5  C22 UNL     1      -0.434   6.332   1.337  1.00  0.00     0.045 A 
HETATM    6  C23 UNL     1      -0.045   6.955   2.581  1.00  0.00     0.099 C 
HETATM    7  N3  UNL     1       0.287   7.453   3.578  1.00  0.00    -0.191 NA
HETATM    8  C24 UNL     1      -0.998   5.081   1.296  1.00  0.00     0.032 A 
ENDROOT
BRANCH   1   9
HETATM    9  C17 UNL     1      -1.981   3.106   0.170  1.00  0.00     0.175 C 
BRANCH   9  10
HETATM   10  C16 UNL     1      -0.985   2.080  -0.147  1.00  0.00     0.023 C 
BRANCH  10  11
HETATM   11  C15 UNL     1      -1.278   0.782  -0.229  1.00  0.00    -0.009 A 
HETATM   12  C4  UNL     1      -0.442  -0.258  -0.514  1.00  0.00     0.039 A 
HETATM   13  N1  UNL     1      -1.155  -1.393  -0.491  1.00  0.00    -0.355 N 
HETATM   14  C5  UNL     1      -2.464  -1.147  -0.195  1.00  0.00     0.046 A 
ATOM     15  H1  UNL     1      -0.769  -2.320  -0.671  1.00  0.00     0.166 HD
HETATM   16  C14 UNL     1      -2.544   0.210  -0.032  1.00  0.00     0.044 A 
BRANCH  12  17
HETATM   17  C3  UNL     1       0.847  -0.138  -0.764  1.00  0.00     0.017 C 
BRANCH  17  18
HETATM   18  C2  UNL     1       1.749  -1.287  -1.072  1.00  0.00     0.099 C 
HETATM   19  C1  UNL     1       1.835  -1.382  -2.573  1.00  0.00     0.024 C 
BRANCH  18  20
HETATM   20  C25 UNL     1       3.095  -1.085  -0.525  1.00  0.00     0.231 C 
HETATM   21  O2  UNL     1       3.441   0.001   0.038  1.00  0.00    -0.272 OA
HETATM   22  N4  UNL     1       4.075  -2.091  -0.599  1.00  0.00    -0.322 N 
HETATM   23  C26 UNL     1       3.782  -3.374  -1.181  1.00  0.00     0.159 C 
BRANCH  22  24
HETATM   24  C27 UNL     1       5.398  -1.867  -0.082  1.00  0.00     0.036 A 
HETATM   25  C28 UNL     1       5.885  -2.763   0.840  1.00  0.00     0.031 A 
HETATM   26  C29 UNL     1       7.149  -2.557   1.341  1.00  0.00     0.025 A 
HETATM   27  C30 UNL     1       7.880  -1.472   0.911  1.00  0.00     0.044 A 
HETATM   28  C31 UNL     1       9.191  -1.297   1.461  1.00  0.00     0.099 C 
HETATM   29  C32 UNL     1       7.366  -0.572  -0.028  1.00  0.00     0.025 A 
HETATM   30  N5  UNL     1      10.261  -1.174   1.923  1.00  0.00    -0.191 NA
HETATM   31  C33 UNL     1       6.104  -0.780  -0.527  1.00  0.00     0.031 A 
ENDBRANCH  22  24
ENDBRANCH  18  20
ENDBRANCH  17  18
ENDBRANCH  12  17
BRANCH  14  32
HETATM   32  C6  UNL     1      -3.479  -2.200  -0.170  1.00  0.00     0.017 A 
HETATM   33  C7  UNL     1      -3.188  -3.415  -0.819  1.00  0.00     0.016 A 
HETATM   34  C8  UNL     1      -4.023  -4.487  -0.862  1.00  0.00     0.001 A 
HETATM   35  C9  UNL     1      -5.232  -4.395  -0.239  1.00  0.00     0.002 A 
HETATM   36  C10 UNL     1      -5.562  -3.233   0.407  1.00  0.00     0.030 A 
HETATM   37  C11 UNL     1      -4.680  -2.123   0.446  1.00  0.00     0.042 A 
BRANCH  37  38
HETATM   38  N2  UNL     1      -5.110  -1.014   1.216  1.00  0.00    -0.389 N 
HETATM   39  C12 UNL     1      -4.482  -0.709   2.480  1.00  0.00     0.149 C 
HETATM   40  C13 UNL     1      -6.209  -0.199   0.761  1.00  0.00     0.149 C 
ENDBRANCH  37  38
ENDBRANCH  14  32
ENDBRANCH  10  11
ENDBRANCH   9  10
BRANCH   9  41
HETATM   41  O1  UNL     1      -3.085   3.089  -0.676  1.00  0.00    -0.387 OA
ATOM     42  H1  UNL     1      -3.731   3.754  -0.470  1.00  0.00     0.210 HD
ENDBRANCH   9  41
ENDBRANCH   1   9
TORSDOF 10
