REMARK  20 active torsions:
REMARK  status: ('A' for Active; 'I' for Inactive)
REMARK    1  A    between atoms: C2_2  and  C3_3 
REMARK    2  A    between atoms: C2_2  and  C29_37 
REMARK    3  A    between atoms: C3_3  and  C4_4 
REMARK    4  A    between atoms: C5_5  and  C6_6 
REMARK    5  A    between atoms: C6_6  and  C8_8 
REMARK    6  A    between atoms: C8_8  and  C9_9 
REMARK    7  A    between atoms: C9_9  and  C10_10 
REMARK    8  A    between atoms: C10_10  and  N1_12 
REMARK    9  A    between atoms: N1_12  and  C12_13 
REMARK   10  A    between atoms: C12_13  and  O1_14 
REMARK   11  A    between atoms: C12_13  and  O2_16 
REMARK   12  A    between atoms: O2_16  and  C13_17 
REMARK   13  A    between atoms: C19_23  and  O3_24 
REMARK   14  A    between atoms: O3_24  and  C20_25 
REMARK   15  A    between atoms: C24_30  and  O5_31 
REMARK   16  A    between atoms: O5_31  and  C25_32 
REMARK   17  A    between atoms: C30_38  and  C31_39 
REMARK   18  A    between atoms: C31_39  and  C32_40 
REMARK   19  A    between atoms: C32_40  and  O7_41 
REMARK   20  A    between atoms: C32_40  and  O8_43 
ROOT
HETATM    1  C12 UNL     1      -2.019  -0.696   0.364  1.00  0.00     0.336 C 
ENDROOT
BRANCH   1   2
HETATM    2  N1  UNL     1      -1.002  -1.571  -0.009  1.00  0.00    -0.395 NA
BRANCH   2   3
HETATM    3  C10 UNL     1      -0.001  -2.435  -0.373  1.00  0.00     0.186 C 
HETATM    4  C11 UNL     1       0.112  -3.598   0.698  1.00  0.00     0.052 C 
BRANCH   3   5
HETATM    5  C9  UNL     1       1.275  -1.649  -0.252  1.00  0.00     0.012 C 
BRANCH   5   6
HETATM    6  C8  UNL     1       2.507  -1.843  -0.317  1.00  0.00     0.006 C 
BRANCH   6   7
HETATM    7  C6  UNL     1       3.441  -0.714  -0.089  1.00  0.00    -0.062 C 
HETATM    8  C7  UNL     1       2.976   0.609   0.382  1.00  0.00     0.048 C 
BRANCH   7   9
HETATM    9  C5  UNL     1       4.789  -0.930  -0.105  1.00  0.00     0.007 C 
HETATM   10  C4  UNL     1       5.678   0.107   0.374  1.00  0.00     0.001 C 
BRANCH  10  11
HETATM   11  C3  UNL     1       6.720   0.685   0.621  1.00  0.00     0.010 C 
BRANCH  11  12
HETATM   12  C2  UNL     1       8.367   0.142   0.289  1.00  0.00    -0.046 C 
HETATM   13  C1  UNL     1       8.767   1.267   0.776  1.00  0.00     0.023 C 
BRANCH  12  14
HETATM   14  C29 UNL     1       7.936  -1.064  -0.231  1.00  0.00     0.007 C 
HETATM   15  C30 UNL     1       8.568  -1.598  -1.268  1.00  0.00    -0.021 C 
BRANCH  15  16
HETATM   16  C31 UNL     1       9.754  -0.958  -1.964  1.00  0.00     0.087 C 
BRANCH  16  17
HETATM   17  C32 UNL     1      10.889  -1.396  -1.114  1.00  0.00     0.259 C 
BRANCH  17  18
HETATM   18  O7  UNL     1      12.129  -1.038  -1.721  1.00  0.00    -0.371 OA
ATOM     19  H7  UNL     1      12.856  -1.318  -1.177  1.00  0.00     0.212 HD
ENDBRANCH  17  18
BRANCH  17  20
HETATM   20  O8  UNL     1      11.108  -1.962  -0.010  1.00  0.00    -0.366 OA
HETATM   21  C33 UNL     1      11.653  -2.471   1.019  1.00  0.00     0.204 C 
ENDBRANCH  17  20
ENDBRANCH  16  17
ENDBRANCH  15  16
ENDBRANCH  12  14
ENDBRANCH  11  12
ENDBRANCH  10  11
ENDBRANCH   7   9
ENDBRANCH   6   7
ENDBRANCH   5   6
ENDBRANCH   3   5
ENDBRANCH   2   3
ENDBRANCH   1   2
BRANCH   1  22
HETATM   22  O1  UNL     1      -2.581  -0.670   1.553  1.00  0.00    -0.316 OA
ATOM     23  H1  UNL     1      -3.275  -0.073   1.807  1.00  0.00     0.222 HD
ENDBRANCH   1  22
BRANCH   1  24
HETATM   24  O2  UNL     1      -2.501   0.187  -0.496  1.00  0.00    -0.299 OA
BRANCH  24  25
HETATM   25  C13 UNL     1      -3.422   1.149  -0.646  1.00  0.00     0.151 C 
HETATM   26  C14 UNL     1      -3.040   2.503  -0.111  1.00  0.00     0.012 C 
HETATM   27  C15 UNL     1      -1.613   2.775  -0.656  1.00  0.00     0.012 C 
HETATM   28  C16 UNL     1      -3.935   3.605  -0.517  1.00  0.00     0.014 C 
HETATM   29  C17 UNL     1      -5.240   3.154  -1.102  1.00  0.00     0.018 C 
HETATM   30  C18 UNL     1      -6.110   4.245  -1.520  1.00  0.00     0.013 C 
HETATM   31  C19 UNL     1      -5.711   2.013  -0.271  1.00  0.00     0.086 C 
HETATM   32  C22 UNL     1      -7.056   1.530  -0.484  1.00  0.00     0.042 C 
HETATM   33  C27 UNL     1      -4.882   0.806  -0.686  1.00  0.00     0.042 C 
HETATM   34  C23 UNL     1      -6.984   0.120  -0.020  1.00  0.00     0.036 C 
HETATM   35  C24 UNL     1      -5.447  -0.188   0.212  1.00  0.00     0.145 C 
HETATM   36  C28 UNL     1      -5.198   0.278  -2.073  1.00  0.00     0.024 C 
BRANCH  31  37
HETATM   37  O3  UNL     1      -5.304   2.146   1.086  1.00  0.00    -0.309 OA
BRANCH  37  38
HETATM   38  C20 UNL     1      -5.758   3.039   1.982  1.00  0.00     0.255 C 
HETATM   39  C21 UNL     1      -5.163   3.160   3.361  1.00  0.00     0.126 C 
HETATM   40  O4  UNL     1      -6.664   3.780   1.678  1.00  0.00    -0.266 OA
ENDBRANCH  37  38
ENDBRANCH  31  37
BRANCH  35  41
HETATM   41  O5  UNL     1      -5.310  -1.552  -0.282  1.00  0.00    -0.315 OA
BRANCH  41  42
HETATM   42  C25 UNL     1      -5.414  -2.557   0.676  1.00  0.00     0.255 C 
HETATM   43  C26 UNL     1      -5.266  -4.001   0.450  1.00  0.00     0.126 C 
HETATM   44  O6  UNL     1      -5.650  -2.180   1.850  1.00  0.00    -0.266 OA
ENDBRANCH  41  42
ENDBRANCH  35  41
ENDBRANCH  24  25
ENDBRANCH   1  24
TORSDOF 20
