REMARK  20 active torsions:
REMARK  status: ('A' for Active; 'I' for Inactive)
REMARK    1  A    between atoms: N1_1  and  C1_4 
REMARK    2  A    between atoms: N4_13  and  C5_14 
REMARK    3  A    between atoms: C5_14  and  C6_15 
REMARK    4  A    between atoms: C6_15  and  N5_16 
REMARK    5  A    between atoms: C6_15  and  C15_45 
REMARK    6  A    between atoms: N5_16  and  C7_18 
REMARK    7  A    between atoms: C7_18  and  C8_19 
REMARK    8  A    between atoms: C7_18  and  C12_36 
REMARK    9  A    between atoms: C8_19  and  O2_20 
REMARK   10  A    between atoms: C8_19  and  N6_22 
REMARK   11  A    between atoms: N6_22  and  C9_23 
REMARK   12  A    between atoms: N10_30  and  C10_31 
REMARK   13  A    between atoms: C11_33  and  O4_34 
REMARK   14  A    between atoms: C12_36  and  O5_37 
REMARK   15  A    between atoms: C12_36  and  C13_39 
REMARK   16  A    between atoms: C13_39  and  O6_40 
REMARK   17  A    between atoms: C13_39  and  C14_42 
REMARK   18  A    between atoms: C14_42  and  O7_43 
REMARK   19  A    between atoms: C15_45  and  O8_46 
REMARK   20  A    between atoms: C15_45  and  O9_48 
ROOT
HETATM    1  C7  UNL     1       0.901  -0.680   0.064  1.00  0.00     0.199 C 
ENDROOT
BRANCH   1   2
HETATM    2  N5  UNL     1      -0.377  -1.047  -0.154  1.00  0.00    -0.394 N 
ATOM      3  H5  UNL     1      -0.482  -1.693  -0.936  1.00  0.00     0.155 HD
BRANCH   2   4
HETATM    4  C6  UNL     1      -1.571  -0.734   0.457  1.00  0.00     0.172 C 
BRANCH   4   5
HETATM    5  C5  UNL     1      -2.599  -0.650  -0.702  1.00  0.00     0.102 C 
BRANCH   5   6
HETATM    6  N4  UNL     1      -3.910  -0.329  -0.308  1.00  0.00    -0.304 N 
HETATM    7  C4  UNL     1      -4.905  -1.165   0.010  1.00  0.00     0.190 A 
HETATM    8  N3  UNL     1      -6.020  -0.496   0.311  1.00  0.00    -0.344 N 
HETATM    9  C3  UNL     1      -5.788   0.808   0.198  1.00  0.00     0.148 A 
ATOM     10  H3  UNL     1      -6.908  -0.918   0.584  1.00  0.00     0.167 HD
HETATM   11  C2  UNL     1      -6.540   1.956   0.376  1.00  0.00     0.290 A 
HETATM   12  C16 UNL     1      -4.457   0.920  -0.191  1.00  0.00     0.160 A 
HETATM   13  N2  UNL     1      -5.913   3.118   0.153  1.00  0.00    -0.154 N 
HETATM   14  O1  UNL     1      -7.733   1.846   0.727  1.00  0.00    -0.265 OA
HETATM   15  C1  UNL     1      -4.640   3.238  -0.220  1.00  0.00     0.680 A 
ATOM     16  H2  UNL     1      -6.451   3.976   0.278  1.00  0.00     0.187 HD
HETATM   17  N11 UNL     1      -3.900   2.127  -0.395  1.00  0.00    -0.174 N 
ATOM     18  H11 UNL     1      -2.923   2.200  -0.680  1.00  0.00     0.186 HD
BRANCH  15  19
HETATM   19  N1  UNL     1      -4.058   4.397  -0.429  1.00  0.00    -0.234 N 
ATOM     20  H12 UNL     1      -4.619   5.239  -0.296  1.00  0.00     0.174 HD
ATOM     21  H11 UNL     1      -3.083   4.489  -0.715  1.00  0.00     0.174 HD
ENDBRANCH  15  19
ENDBRANCH   5   6
ENDBRANCH   4   5
BRANCH   4  22
HETATM   22  C15 UNL     1      -2.068  -1.622   1.568  1.00  0.00     0.281 C 
BRANCH  22  23
HETATM   23  O8  UNL     1      -2.284  -2.925   1.229  1.00  0.00    -0.369 OA
ATOM     24  H8  UNL     1      -2.597  -3.485   1.930  1.00  0.00     0.212 HD
ENDBRANCH  22  23
BRANCH  22  25
HETATM   25  O9  UNL     1      -1.247  -1.415   2.661  1.00  0.00    -0.369 OA
ATOM     26  H9  UNL     1      -1.560  -1.975   3.362  1.00  0.00     0.212 HD
ENDBRANCH  22  25
ENDBRANCH   4  22
ENDBRANCH   2   4
ENDBRANCH   1   2
BRANCH   1  27
HETATM   27  C8  UNL     1       1.159   0.797  -0.117  1.00  0.00     0.219 C 
BRANCH  27  28
HETATM   28  O2  UNL     1       0.174   1.562   0.356  1.00  0.00    -0.337 OA
ATOM     29  H2  UNL     1       0.336   2.491   0.242  1.00  0.00     0.220 HD
ENDBRANCH  27  28
BRANCH  27  30
HETATM   30  N6  UNL     1       2.165   1.441  -0.649  1.00  0.00    -0.345 NA
BRANCH  30  31
HETATM   31  C9  UNL     1       3.082   2.026  -1.130  1.00  0.00     0.298 A 
HETATM   32  N7  UNL     1       3.134   2.906  -2.195  1.00  0.00    -0.242 N 
HETATM   33  N8  UNL     1       4.346   3.332  -2.371  1.00  0.00    -0.224 N 
ATOM     34  H7  UNL     1       2.332   3.181  -2.762  1.00  0.00     0.192 HD
HETATM   35  N9  UNL     1       5.122   2.784  -1.476  1.00  0.00    -0.220 N 
ATOM     36  H8  UNL     1       4.645   3.989  -3.092  1.00  0.00     0.210 HD
HETATM   37  N10 UNL     1       4.392   1.994  -0.717  1.00  0.00    -0.198 N 
ATOM     38  H9  UNL     1       6.125   2.941  -1.381  1.00  0.00     0.210 HD
BRANCH  37  39
HETATM   39  C10 UNL     1       4.954   1.236   0.373  1.00  0.00     0.308 A 
HETATM   40  O3  UNL     1       4.928   1.779   1.663  1.00  0.00    -0.326 OA
HETATM   41  C11 UNL     1       6.169   1.668   1.037  1.00  0.00     0.310 A 
BRANCH  41  42
HETATM   42  O4  UNL     1       7.018   0.694   1.508  1.00  0.00    -0.367 OA
ATOM     43  H4  UNL     1       7.814   0.977   1.943  1.00  0.00     0.212 HD
ENDBRANCH  41  42
ENDBRANCH  37  39
ENDBRANCH  30  31
ENDBRANCH  27  30
ENDBRANCH   1  27
BRANCH   1  44
HETATM   44  C12 UNL     1       1.813  -1.327  -0.981  1.00  0.00     0.180 C 
BRANCH  44  45
HETATM   45  O5  UNL     1       1.509  -0.953  -2.274  1.00  0.00    -0.390 OA
ATOM     46  H5  UNL     1       2.075  -1.355  -2.923  1.00  0.00     0.210 HD
ENDBRANCH  44  45
BRANCH  44  47
HETATM   47  C13 UNL     1       1.789  -2.829  -0.890  1.00  0.00     0.172 C 
BRANCH  47  48
HETATM   48  O6  UNL     1       2.757  -3.422  -1.695  1.00  0.00    -0.391 OA
ATOM     49  H6  UNL     1       2.742  -4.370  -1.638  1.00  0.00     0.210 HD
ENDBRANCH  47  48
BRANCH  47  50
HETATM   50  C14 UNL     1       1.688  -3.391   0.485  1.00  0.00     0.198 C 
BRANCH  50  51
HETATM   51  O7  UNL     1       2.821  -3.276   1.254  1.00  0.00    -0.398 OA
ATOM     52  H7  UNL     1       2.757  -3.635   2.131  1.00  0.00     0.209 HD
ENDBRANCH  50  51
ENDBRANCH  47  50
ENDBRANCH  44  47
ENDBRANCH   1  44
TORSDOF 20
