REMARK  1 active torsions:
REMARK  status: ('A' for Active; 'I' for Inactive)
REMARK    1  A    between atoms: O1_3  and  C2_4 
ROOT
HETATM    1  N1  UNL     1       4.128   0.244  -1.658  1.00  0.00    -0.164 NA
HETATM    2  C1  UNL     1       3.303   0.192  -0.848  1.00  0.00     0.230 C 
HETATM    3  O1  UNL     1       2.336   0.151   0.112  1.00  0.00    -0.249 OA
ENDROOT
BRANCH   3   4
HETATM    4  C2  UNL     1       1.012  -0.001  -0.266  1.00  0.00     0.340 C 
HETATM    5  C3  UNL     1       0.187   1.194   0.226  1.00  0.00     0.063 C 
HETATM    6  C4  UNL     1      -1.277   0.934  -0.060  1.00  0.00     0.006 C 
HETATM    7  C5  UNL     1      -1.740  -0.349   0.600  1.00  0.00     0.028 C 
HETATM    8  C6  UNL     1      -0.878  -1.464   0.015  1.00  0.00     0.235 C 
HETATM    9  N2  UNL     1       0.487  -1.185   0.410  1.00  0.00    -0.048 N 
ATOM     10  H22 UNL     1       1.090  -1.995   0.264  1.00  0.00     0.280 HD
ATOM     11  H21 UNL     1       0.572  -1.104   1.423  1.00  0.00     0.280 HD
ENDBRANCH   3   4
TORSDOF 1
