REMARK  2 active torsions:
REMARK  status: ('A' for Active; 'I' for Inactive)
REMARK    1  A    between atoms: C2_3  and  C3_4 
REMARK    2  A    between atoms: C3_4  and  C4_5 
ROOT
HETATM    1  N1  UNL     1       3.048   1.616   0.967  1.00  0.00    -0.197 NA
HETATM    2  C1  UNL     1       2.622   0.569   0.744  1.00  0.00     0.059 C 
HETATM    3  C2  UNL     1       2.095  -0.787   0.455  1.00  0.00     0.124 C 
ENDROOT
BRANCH   3   4
HETATM    4  C3  UNL     1       1.150  -0.649  -0.719  1.00  0.00     0.020 C 
BRANCH   4   5
HETATM    5  C4  UNL     1       0.058   0.291  -0.321  1.00  0.00     0.014 C 
HETATM    6  C5  UNL     1      -0.674  -0.265   0.865  1.00  0.00     0.034 C 
HETATM    7  C6  UNL     1      -2.129  -0.033   0.609  1.00  0.00     0.232 C 
HETATM    8  N2  UNL     1      -2.227   0.736  -0.595  1.00  0.00    -0.075 N 
HETATM    9  C7  UNL     1      -1.002   0.503  -1.366  1.00  0.00     0.237 C 
ATOM     10  H22 UNL     1      -3.075   0.538  -1.126  1.00  0.00     0.277 HD
ATOM     11  H21 UNL     1      -2.406   1.725  -0.422  1.00  0.00     0.277 HD
ENDBRANCH   4   5
ENDBRANCH   3   4
TORSDOF 2
