REMARK  6 active torsions:
REMARK  status: ('A' for Active; 'I' for Inactive)
REMARK       I    between atoms: C1_2  and  N1_3 
REMARK    1  A    between atoms: C1_2  and  C8_14 
REMARK    2  A    between atoms: N1_3  and  N2_5 
REMARK    3  A    between atoms: C2_7  and  C3_8 
REMARK    4  A    between atoms: C3_8  and  C4_9 
REMARK    5  A    between atoms: C10_16  and  N3_17 
REMARK    6  A    between atoms: C13_22  and  O4_23 
ROOT
HETATM    1  O1  UNL     1      -1.876  -1.388  -1.071  1.00  0.00    -0.266 OA
HETATM    2  C1  UNL     1      -1.944  -0.335  -0.332  1.00  0.00     0.272 C 
HETATM    3  N1  UNL     1      -0.707   0.169   0.094  1.00  0.00    -0.266 N 
ATOM      4  H1  UNL     1      -0.683   1.002   0.683  1.00  0.00     0.190 HD
ENDROOT
BRANCH   2   5
HETATM    5  C8  UNL     1      -3.267   0.177  -0.047  1.00  0.00     0.069 A 
HETATM    6  C9  UNL     1      -4.354  -0.522  -0.602  1.00  0.00     0.056 A 
HETATM    7  C10 UNL     1      -5.650  -0.129  -0.399  1.00  0.00     0.104 A 
HETATM    8  C11 UNL     1      -5.875   0.998   0.383  1.00  0.00     0.039 A 
HETATM    9  C12 UNL     1      -4.837   1.701   0.938  1.00  0.00     0.040 A 
HETATM   10  C13 UNL     1      -3.518   1.294   0.726  1.00  0.00     0.081 A 
BRANCH   7  11
HETATM   11  N3  UNL     1      -6.724  -0.858  -0.974  1.00  0.00    -0.116 N 
HETATM   12  O2  UNL     1      -6.470  -1.855  -1.663  1.00  0.00    -0.532 OA
HETATM   13  O3  UNL     1      -8.020  -0.490  -0.789  1.00  0.00    -0.532 OA
ENDBRANCH   7  11
BRANCH  10  14
HETATM   14  O4  UNL     1      -2.492   2.021   1.298  1.00  0.00    -0.360 OA
ATOM     15  H4  UNL     1      -2.665   2.789   1.830  1.00  0.00     0.217 HD
ENDBRANCH  10  14
ENDBRANCH   2   5
BRANCH   3  16
HETATM   16  N2  UNL     1       0.511  -0.454  -0.276  1.00  0.00    -0.313 N 
HETATM   17  C2  UNL     1       1.468  -0.494   0.564  1.00  0.00     0.081 C 
ATOM     18  H2  UNL     1       0.620  -0.865  -1.203  1.00  0.00     0.185 HD
BRANCH  17  19
HETATM   19  C3  UNL     1       2.785  -1.124   0.276  1.00  0.00     0.061 C 
BRANCH  19  20
HETATM   20  C4  UNL     1       3.653  -0.246  -0.594  1.00  0.00     0.052 C 
HETATM   21  C5  UNL     1       4.940  -0.897  -0.856  1.00  0.00     0.016 C 
HETATM   22  C6  UNL     1       6.079  -0.260  -0.238  1.00  0.00     0.011 C 
HETATM   23  C7  UNL     1       5.739   0.653   0.862  1.00  0.00     0.074 C 
HETATM   24  S1  UNL     1       4.078   1.245   0.348  1.00  0.00    -0.164 SA
ENDBRANCH  19  20
ENDBRANCH  17  19
ENDBRANCH   3  16
TORSDOF 6
