REMARK  6 active torsions:
REMARK  status: ('A' for Active; 'I' for Inactive)
REMARK    1  A    between atoms: C3_4  and  O1_5 
REMARK    2  A    between atoms: O1_5  and  C4_6 
REMARK    3  A    between atoms: C4_6  and  C5_7 
REMARK    4  A    between atoms: C11_15  and  N3_16 
REMARK    5  A    between atoms: C12_21  and  O2_22 
REMARK    6  A    between atoms: O2_22  and  C13_23 
ROOT
HETATM    1  N1  UNL     1      -1.523  -2.497  -1.774  1.00  0.00    -0.191 NA
HETATM    2  C1  UNL     1      -1.221  -1.749  -0.958  1.00  0.00     0.108 C 
HETATM    3  C2  UNL     1      -0.829  -0.804   0.053  1.00  0.00     0.147 A 
HETATM    4  C3  UNL     1       0.451  -0.879   0.634  1.00  0.00     0.182 A 
HETATM    5  N2  UNL     1       0.787   0.017   1.575  1.00  0.00    -0.169 N 
ATOM      6  H2  UNL     1       1.712  -0.027   2.003  1.00  0.00     0.186 HD
HETATM    7  C11 UNL     1      -0.058   0.952   1.954  1.00  0.00     0.679 A 
HETATM    8  N4  UNL     1      -1.280   1.021   1.397  1.00  0.00    -0.169 N 
ATOM      9  H4  UNL     1      -1.913   1.757   1.711  1.00  0.00     0.186 HD
HETATM   10  C12 UNL     1      -1.711   0.174   0.451  1.00  0.00     0.183 A 
ENDROOT
BRANCH   4  11
HETATM   11  O1  UNL     1       1.262  -1.852   0.208  1.00  0.00    -0.334 OA
BRANCH  11  12
HETATM   12  C4  UNL     1       2.440  -2.450   0.284  1.00  0.00     0.182 C 
BRANCH  12  13
HETATM   13  C5  UNL     1       3.710  -1.688  -0.051  1.00  0.00     0.010 C 
HETATM   14  C6  UNL     1       3.661  -1.161  -1.439  1.00  0.00     0.007 C 
HETATM   15  C7  UNL     1       3.826   0.327  -1.558  1.00  0.00     0.000 C 
HETATM   16  C8  UNL     1       4.999   0.709  -0.650  1.00  0.00     0.000 C 
HETATM   17  C9  UNL     1       4.397   0.598   0.756  1.00  0.00     0.000 C 
HETATM   18  C10 UNL     1       4.160  -0.860   1.052  1.00  0.00     0.007 C 
ENDBRANCH  12  13
ENDBRANCH  11  12
ENDBRANCH   4  11
BRANCH  10  19
HETATM   19  O2  UNL     1      -2.954   0.215  -0.141  1.00  0.00    -0.329 OA
BRANCH  19  20
HETATM   20  C13 UNL     1      -3.927   1.131   0.157  1.00  0.00     0.130 C 
HETATM   21  C14 UNL     1      -4.343   1.810  -1.144  1.00  0.00     0.032 C 
HETATM   22  C15 UNL     1      -5.479   0.999  -1.702  1.00  0.00     0.002 C 
HETATM   23  C16 UNL     1      -5.925   0.051  -0.613  1.00  0.00     0.002 C 
HETATM   24  C17 UNL     1      -5.225   0.503   0.644  1.00  0.00     0.032 C 
ENDBRANCH  19  20
ENDBRANCH  10  19
BRANCH   7  25
HETATM   25  N3  UNL     1       0.280   1.822   2.873  1.00  0.00    -0.234 N 
ATOM     26  H32 UNL     1       1.207   1.770   3.295  1.00  0.00     0.174 HD
ATOM     27  H31 UNL     1      -0.375   2.547   3.167  1.00  0.00     0.174 HD
ENDBRANCH   7  25
TORSDOF 6
