REMARK  3 active torsions:
REMARK  status: ('A' for Active; 'I' for Inactive)
REMARK    1  A    between atoms: N1_5  and  C5_6 
REMARK    2  A    between atoms: C5_6  and  C6_7 
REMARK       I    between atoms: N2_14  and  C12_15 
REMARK       I    between atoms: C12_15  and  N3_17 
REMARK    3  A    between atoms: N3_17  and  C13_19 
ROOT
HETATM    1  C6  UNL     1      -0.798  -0.332  -0.129  1.00  0.00     0.182 C 
HETATM    2  O1  UNL     1      -0.827  -1.698  -0.034  1.00  0.00    -0.377 OA
HETATM    3  C7  UNL     1       0.435  -2.212  -0.163  1.00  0.00     0.194 C 
HETATM    4  C8  UNL     1       1.380  -1.707   0.929  1.00  0.00     0.113 C 
HETATM    5  C9  UNL     1       0.706  -1.849   2.285  1.00  0.00     0.030 C 
HETATM    6  C10 UNL     1      -0.344  -0.765   2.216  1.00  0.00     0.030 C 
HETATM    7  C11 UNL     1       0.044   0.135   1.072  1.00  0.00     0.123 C 
HETATM    8  N2  UNL     1       1.425  -0.279   0.788  1.00  0.00    -0.320 N 
HETATM    9  C12 UNL     1       2.530   0.543   0.448  1.00  0.00     0.323 C 
HETATM   10  O2  UNL     1       2.299   1.766   0.397  1.00  0.00    -0.247 OA
HETATM   11  N3  UNL     1       3.780  -0.026   0.195  1.00  0.00    -0.306 N 
ATOM     12  H3  UNL     1       3.848  -1.041   0.270  1.00  0.00     0.171 HD
ENDROOT
BRANCH   1  13
HETATM   13  C5  UNL     1      -2.088   0.381  -0.044  1.00  0.00     0.097 C 
BRANCH  13  14
HETATM   14  N1  UNL     1      -3.073   0.127  -0.964  1.00  0.00    -0.371 N 
HETATM   15  C4  UNL     1      -3.766  -1.080  -1.047  1.00  0.00     0.128 C 
HETATM   16  C3  UNL     1      -5.213  -0.627  -0.777  1.00  0.00     0.029 C 
HETATM   17  C2  UNL     1      -5.233   0.827  -1.231  1.00  0.00     0.022 C 
HETATM   18  C1  UNL     1      -5.574   1.737  -0.070  1.00  0.00     0.015 C 
HETATM   19  C18 UNL     1      -3.790   1.127  -1.623  1.00  0.00     0.067 C 
ENDBRANCH  13  14
ENDBRANCH   1  13
BRANCH  11  20
HETATM   20  C13 UNL     1       4.959   0.667  -0.155  1.00  0.00     0.073 A 
HETATM   21  C14 UNL     1       5.065   2.008  -0.309  1.00  0.00     0.119 A 
HETATM   22  N4  UNL     1       6.263   2.573  -0.654  1.00  0.00    -0.373 N 
HETATM   23  C15 UNL     1       7.366   1.850  -0.852  1.00  0.00     0.089 A 
ATOM     24  H4  UNL     1       6.314   3.586  -0.764  1.00  0.00     0.164 HD
HETATM   25  C16 UNL     1       7.333   0.467  -0.712  1.00  0.00     0.043 A 
HETATM   26  C17 UNL     1       6.127  -0.095  -0.365  1.00  0.00     0.063 A 
HETATM   27 CL1  UNL     1       6.042  -1.824  -0.183  1.00  0.00    -0.082 Cl
ENDBRANCH  11  20
TORSDOF 3
