REMARK  8 active torsions:
REMARK  status: ('A' for Active; 'I' for Inactive)
REMARK    1  A    between atoms: N3_9  and  C5_10 
REMARK    2  A    between atoms: C7_17  and  C8_18 
REMARK    3  A    between atoms: C8_18  and  N6_19 
REMARK    4  A    between atoms: C8_18  and  C9_23 
REMARK    5  A    between atoms: C9_23  and  O4_24 
REMARK    6  A    between atoms: C9_23  and  C10_26 
REMARK    7  A    between atoms: C10_26  and  O5_27 
REMARK    8  A    between atoms: C10_26  and  C11_29 
ROOT
HETATM    1  C5  UNL     1      -0.859  -0.050   1.095  1.00  0.00     0.351 C 
HETATM    2  N4  UNL     1      -1.280  -1.260   1.744  1.00  0.00    -0.299 N 
ATOM      3  H4  UNL     1      -2.252  -1.357   2.039  1.00  0.00     0.168 HD
HETATM    4  C6  UNL     1      -0.361  -2.336   1.986  1.00  0.00     0.321 C 
HETATM    5  O3  UNL     1      -0.644  -3.228   2.816  1.00  0.00    -0.247 OA
HETATM    6  N5  UNL     1       0.830  -2.269   1.221  1.00  0.00    -0.314 N 
ATOM      7  H5  UNL     1       1.531  -3.006   1.301  1.00  0.00     0.166 HD
HETATM    8  C7  UNL     1       1.051  -1.152   0.325  1.00  0.00     0.262 C 
HETATM    9  O7  UNL     1       0.419  -0.027   0.635  1.00  0.00    -0.322 OA
ENDROOT
BRANCH   8  10
HETATM   10  C8  UNL     1       2.517  -1.111   0.023  1.00  0.00     0.263 C 
BRANCH  10  11
HETATM   11  N6  UNL     1       2.848  -2.527  -0.335  1.00  0.00    -0.068 N 
ATOM     12  H63 UNL     1       2.583  -3.213   0.372  1.00  0.00     0.275 HD
ATOM     13  H62 UNL     1       2.275  -2.916  -1.084  1.00  0.00     0.275 HD
ATOM     14  H61 UNL     1       3.847  -2.499  -0.541  1.00  0.00     0.275 HD
ENDBRANCH  10  11
BRANCH  10  15
HETATM   15  C9  UNL     1       3.422  -0.723   1.171  1.00  0.00     0.190 C 
BRANCH  15  16
HETATM   16  O4  UNL     1       4.751  -0.972   0.635  1.00  0.00    -0.390 OA
ATOM     17  H4  UNL     1       5.319  -0.728   1.356  1.00  0.00     0.210 HD
ENDBRANCH  15  16
BRANCH  15  18
HETATM   18  C10 UNL     1       3.444   0.763   1.382  1.00  0.00     0.237 C 
BRANCH  18  19
HETATM   19  O5  UNL     1       2.353   1.324   1.963  1.00  0.00    -0.384 OA
ATOM     20  H5  UNL     1       2.367   2.264   2.097  1.00  0.00     0.210 HD
ENDBRANCH  18  19
BRANCH  18  21
HETATM   21  C11 UNL     1       3.707   1.477   0.086  1.00  0.00     0.262 C 
HETATM   22  N7  UNL     1       2.887   2.544  -0.355  1.00  0.00    -0.060 NA
HETATM   23  O6  UNL     1       4.686   1.090  -0.593  1.00  0.00    -0.274 OA
ENDBRANCH  18  21
ENDBRANCH  15  18
ENDBRANCH  10  15
ENDBRANCH   8  10
BRANCH   1  24
HETATM   24  N3  UNL     1      -1.879   0.309   0.133  1.00  0.00    -0.204 N 
HETATM   25  C4  UNL     1      -2.215   1.590  -0.131  1.00  0.00     0.339 A 
HETATM   26  N2  UNL     1      -3.164   1.928  -1.026  1.00  0.00    -0.255 N 
HETATM   27  O2  UNL     1      -1.625   2.531   0.478  1.00  0.00    -0.246 OA
HETATM   28  C2  UNL     1      -3.812   0.939  -1.694  1.00  0.00     0.336 A 
HETATM   29  C3  UNL     1      -3.477   3.318  -1.263  1.00  0.00     0.166 C 
HETATM   30  N1  UNL     1      -3.506  -0.328  -1.457  1.00  0.00    -0.255 N 
HETATM   31  O1  UNL     1      -4.704   1.252  -2.536  1.00  0.00    -0.246 OA
HETATM   32  C1  UNL     1      -4.205  -1.387  -2.176  1.00  0.00     0.166 C 
HETATM   33  C12 UNL     1      -2.542  -0.639  -0.546  1.00  0.00     0.339 A 
HETATM   34  O8  UNL     1      -2.305  -1.843  -0.374  1.00  0.00    -0.246 OA
ENDBRANCH   1  24
TORSDOF 8
