REMARK  12 active torsions:
REMARK  status: ('A' for Active; 'I' for Inactive)
REMARK       I    between atoms: C1_4  and  N2_5 
REMARK       I    between atoms: C1_4  and  N11_42 
REMARK    1  A    between atoms: N2_5  and  N3_7 
REMARK       I    between atoms: N3_7  and  C2_9 
REMARK       I    between atoms: C2_9  and  N7_29 
REMARK    2  A    between atoms: N4_10  and  C3_12 
REMARK    3  A    between atoms: C5_14  and  N5_15 
REMARK    4  A    between atoms: C6_18  and  O3_19 
REMARK    5  A    between atoms: O3_19  and  C7_20 
REMARK    6  A    between atoms: C7_20  and  C8_21 
REMARK    7  A    between atoms: C8_21  and  O4_22 
REMARK    8  A    between atoms: C10_25  and  N6_26 
REMARK    9  A    between atoms: N7_29  and  N8_31 
REMARK   10  A    between atoms: C11_33  and  C12_34 
REMARK   11  A    between atoms: N10_39  and  O7_40 
REMARK   12  A    between atoms: N11_42  and  N12_44 
ROOT
HETATM    1  N3  UNL     1      -2.184   2.387  -0.084  1.00  0.00    -0.116 N 
ATOM      2  H3  UNL     1      -2.946   2.429   0.593  1.00  0.00     0.206 HD
HETATM    3  C2  UNL     1      -1.252   1.318  -0.002  1.00  0.00     0.712 C 
HETATM    4  N4  UNL     1      -0.070   1.512  -0.303  1.00  0.00    -0.187 N 
ATOM      5  H4  UNL     1       0.105   2.475  -0.590  1.00  0.00     0.184 HD
HETATM    6  N7  UNL     1      -1.761   0.037   0.454  1.00  0.00    -0.131 N 
ATOM      7  H7  UNL     1      -1.128  -0.641   0.878  1.00  0.00     0.205 HD
ENDROOT
BRANCH   1   8
HETATM    8  N2  UNL     1      -2.094   3.378  -1.056  1.00  0.00    -0.117 N 
HETATM    9  C1  UNL     1      -2.679   4.633  -0.840  1.00  0.00     0.710 C 
HETATM   10  N1  UNL     1      -1.998   5.564  -0.288  1.00  0.00    -0.232 N 
HETATM   11  N11 UNL     1      -4.008   4.876  -1.228  1.00  0.00    -0.071 N 
ATOM     12  H12 UNL     1      -1.034   5.388  -0.006  1.00  0.00     0.174 HD
ATOM     13  H11 UNL     1      -2.424   6.477  -0.131  1.00  0.00     0.174 HD
ATOM     14  H11 UNL     1      -4.776   4.577  -0.628  1.00  0.00     0.212 HD
ATOM     15  H2  UNL     1      -1.601   3.191  -1.929  1.00  0.00     0.206 HD
BRANCH  11  16
HETATM   16  N12 UNL     1      -4.278   5.524  -2.429  1.00  0.00    -0.024 N 
HETATM   17  O8  UNL     1      -4.918   6.605  -2.371  1.00  0.00    -0.516 OA
HETATM   18  O9  UNL     1      -3.888   5.054  -3.659  1.00  0.00    -0.516 OA
ENDBRANCH  11  16
ENDBRANCH   1   8
BRANCH   4  19
HETATM   19  C3  UNL     1       1.075   0.732  -0.344  1.00  0.00     0.085 A 
HETATM   20  C4  UNL     1       1.205  -0.369  -1.167  1.00  0.00     0.071 A 
HETATM   21  C5  UNL     1       2.342  -1.132  -1.213  1.00  0.00     0.138 A 
HETATM   22  C6  UNL     1       3.453  -0.809  -0.394  1.00  0.00     0.104 A 
HETATM   23  C9  UNL     1       3.335   0.283   0.427  1.00  0.00     0.077 A 
HETATM   24  C10 UNL     1       2.149   1.042   0.445  1.00  0.00     0.132 A 
BRANCH  21  25
HETATM   25  N5  UNL     1       2.426  -2.257  -2.079  1.00  0.00    -0.113 N 
HETATM   26  O1  UNL     1       3.127  -3.234  -1.718  1.00  0.00    -0.532 OA
HETATM   27  O2  UNL     1       1.780  -2.305  -3.269  1.00  0.00    -0.532 OA
ENDBRANCH  21  25
BRANCH  22  28
HETATM   28  O3  UNL     1       4.518  -1.597  -0.503  1.00  0.00    -0.346 OA
BRANCH  28  29
HETATM   29  C7  UNL     1       5.744  -1.867  -0.079  1.00  0.00     0.201 C 
BRANCH  29  30
HETATM   30  C8  UNL     1       5.914  -2.312   1.349  1.00  0.00     0.190 C 
BRANCH  30  31
HETATM   31  O4  UNL     1       5.488  -1.407   2.261  1.00  0.00    -0.399 OA
ATOM     32  H4  UNL     1       5.595  -1.688   3.162  1.00  0.00     0.209 HD
ENDBRANCH  30  31
ENDBRANCH  29  30
ENDBRANCH  28  29
ENDBRANCH  22  28
BRANCH  24  33
HETATM   33  N6  UNL     1       2.090   2.157   1.305  1.00  0.00    -0.113 N 
HETATM   34  O5  UNL     1       3.172   2.731   1.589  1.00  0.00    -0.532 OA
HETATM   35  O6  UNL     1       0.886   2.576   1.795  1.00  0.00    -0.532 OA
ENDBRANCH  24  33
ENDBRANCH   4  19
BRANCH   6  36
HETATM   36  N8  UNL     1      -3.061  -0.255   0.318  1.00  0.00    -0.295 N 
HETATM   37  C11 UNL     1      -3.876  -1.174   0.374  1.00  0.00     0.141 C 
ATOM     38  H8  UNL     1      -3.560   0.602   0.080  1.00  0.00     0.186 HD
BRANCH  37  39
HETATM   39  C12 UNL     1      -3.656  -2.571   0.674  1.00  0.00     0.095 A 
HETATM   40  C13 UNL     1      -2.478  -3.222   0.928  1.00  0.00     0.122 A 
HETATM   41  N9  UNL     1      -2.794  -4.530   1.168  1.00  0.00    -0.358 N 
HETATM   42  C14 UNL     1      -4.110  -4.680   1.065  1.00  0.00     0.213 A 
ATOM     43  H9  UNL     1      -2.128  -5.270   1.390  1.00  0.00     0.166 HD
HETATM   44  N10 UNL     1      -4.652  -3.497   0.765  1.00  0.00    -0.218 N 
BRANCH  44  45
HETATM   45  O7  UNL     1      -6.020  -3.298   0.586  1.00  0.00    -0.282 OA
ATOM     46  H7  UNL     1      -6.714  -3.943   0.649  1.00  0.00     0.245 HD
ENDBRANCH  44  45
ENDBRANCH  37  39
ENDBRANCH   6  36
TORSDOF 12
