REMARK  12 active torsions:
REMARK  status: ('A' for Active; 'I' for Inactive)
REMARK    1  A    between atoms: N1_3  and  O2_4 
REMARK    2  A    between atoms: C2_6  and  C3_7 
REMARK    3  A    between atoms: C3_7  and  C4_8 
REMARK    4  A    between atoms: C4_8  and  C5_9 
REMARK    5  A    between atoms: C5_9  and  C6_10 
REMARK    6  A    between atoms: C6_10  and  C7_11 
REMARK    7  A    between atoms: C7_11  and  C8_12 
REMARK    8  A    between atoms: C8_12  and  C9_13 
REMARK    9  A    between atoms: C9_13  and  C10_14 
REMARK   10  A    between atoms: C12_18  and  O3_19 
REMARK   11  A    between atoms: N3_24  and  S1_25 
REMARK   12  A    between atoms: N4_32  and  O7_33 
ROOT
HETATM    1  O1  UNL     1      -1.910  -3.084  -0.994  1.00  0.00    -0.242 OA
HETATM    2  C1  UNL     1      -2.494  -2.001  -0.819  1.00  0.00     0.368 C 
HETATM    3  N1  UNL     1      -1.917  -0.795  -1.390  1.00  0.00    -0.203 N 
HETATM    4  C2  UNL     1      -2.122   0.420  -0.635  1.00  0.00     0.127 C 
HETATM    5  C14 UNL     1      -3.646   0.508  -0.531  1.00  0.00     0.051 C 
HETATM    6  C15 UNL     1      -4.165   1.852  -0.163  1.00  0.00     0.118 C 
HETATM    7  N3  UNL     1      -5.613   1.789  -0.395  1.00  0.00    -0.191 NA
HETATM    8  C16 UNL     1      -6.189   0.897   0.555  1.00  0.00     0.112 C 
HETATM    9  C17 UNL     1      -5.710  -0.525   0.378  1.00  0.00     0.044 C 
HETATM   10  C18 UNL     1      -4.181  -0.573   0.343  1.00  0.00     0.128 C 
HETATM   11  N4  UNL     1      -3.721  -1.862  -0.080  1.00  0.00    -0.203 N 
ENDROOT
BRANCH   4  12
HETATM   12  C3  UNL     1      -1.472   0.453   0.664  1.00  0.00     0.028 C 
BRANCH  12  13
HETATM   13  C4  UNL     1       0.004   0.352   0.761  1.00  0.00     0.002 C 
BRANCH  13  14
HETATM   14  C5  UNL     1       0.686  -0.884   0.338  1.00  0.00     0.000 C 
BRANCH  14  15
HETATM   15  C6  UNL     1       2.204  -0.765   0.588  1.00  0.00     0.000 C 
BRANCH  15  16
HETATM   16  C7  UNL     1       2.833   0.360  -0.163  1.00  0.00     0.000 C 
BRANCH  16  17
HETATM   17  C8  UNL     1       4.333   0.429   0.100  1.00  0.00     0.005 C 
BRANCH  17  18
HETATM   18  C9  UNL     1       5.039  -0.834  -0.317  1.00  0.00     0.040 C 
BRANCH  18  19
HETATM   19  C10 UNL     1       6.487  -0.640  -0.011  1.00  0.00    -0.039 A 
HETATM   20  C11 UNL     1       7.147  -0.951   1.171  1.00  0.00     0.097 A 
HETATM   21  N2  UNL     1       8.444  -0.619   1.035  1.00  0.00    -0.347 N 
HETATM   22  C12 UNL     1       8.672  -0.106  -0.177  1.00  0.00     0.140 A 
ATOM     23  H2  UNL     1       9.154  -0.742   1.757  1.00  0.00     0.167 HD
HETATM   24  C13 UNL     1       7.474  -0.108  -0.842  1.00  0.00     0.064 A 
BRANCH  22  25
HETATM   25  O3  UNL     1       9.886   0.335  -0.645  1.00  0.00    -0.346 OA
ATOM     26  H3  UNL     1      10.048   0.700  -1.507  1.00  0.00     0.219 HD
ENDBRANCH  22  25
ENDBRANCH  18  19
ENDBRANCH  17  18
ENDBRANCH  16  17
ENDBRANCH  15  16
ENDBRANCH  14  15
ENDBRANCH  13  14
ENDBRANCH  12  13
ENDBRANCH   4  12
BRANCH   3  27
HETATM   27  O2  UNL     1      -1.305  -0.842  -2.566  1.00  0.00    -0.283 OA
ATOM     28  H2  UNL     1      -0.928  -0.054  -2.939  1.00  0.00     0.245 HD
ENDBRANCH   3  27
BRANCH  11  29
HETATM   29  O7  UNL     1      -4.410  -2.991   0.198  1.00  0.00    -0.283 OA
ATOM     30  H7  UNL     1      -5.220  -2.899   0.686  1.00  0.00     0.245 HD
ENDBRANCH  11  29
BRANCH   7  31
HETATM   31  S1  UNL     1      -6.329   3.325  -0.446  1.00  0.00     0.185 S 
HETATM   32  O4  UNL     1      -6.040   4.141   0.797  1.00  0.00    -0.582 OA
HETATM   33  O5  UNL     1      -7.783   3.189  -0.699  1.00  0.00    -0.582 OA
HETATM   34  O6  UNL     1      -5.649   4.184  -1.733  1.00  0.00    -0.582 OA
ENDBRANCH   7  31
TORSDOF 12
