REMARK  7 active torsions:
REMARK  status: ('A' for Active; 'I' for Inactive)
REMARK    1  A    between atoms: C3_6  and  C4_7 
REMARK    2  A    between atoms: C7_15  and  N3_16 
REMARK       I    between atoms: N3_16  and  C8_18 
REMARK    3  A    between atoms: C8_18  and  C9_20 
REMARK    4  A    between atoms: C9_20  and  C10_22 
REMARK    5  A    between atoms: C13_28  and  N5_29 
REMARK    6  A    between atoms: N8_38  and  C16_39 
REMARK    7  A    between atoms: C16_39  and  C17_40 
ROOT
HETATM    1  C10 UNL     1      -1.944  -0.527  -0.538  1.00  0.00     0.178 A 
HETATM    2  N4  UNL     1      -3.156  -0.944  -0.866  1.00  0.00    -0.322 N 
ATOM      3  H4  UNL     1      -3.426  -1.271  -1.793  1.00  0.00     0.169 HD
HETATM    4  C11 UNL     1      -4.021  -0.873   0.243  1.00  0.00     0.143 A 
HETATM    5  C12 UNL     1      -5.407  -1.214   0.034  1.00  0.00     0.083 A 
HETATM    6  S1  UNL     1      -6.160  -0.750  -1.474  1.00  0.00    -0.049 SA
HETATM    7  C13 UNL     1      -7.820  -1.084  -1.539  1.00  0.00     0.145 A 
HETATM    8  N6  UNL     1      -8.319  -1.652  -0.434  1.00  0.00    -0.302 N 
ATOM      9  H6  UNL     1      -9.316  -1.867  -0.434  1.00  0.00     0.171 HD
HETATM   10  C14 UNL     1      -7.637  -1.961   0.661  1.00  0.00     0.273 A 
HETATM   11  O4  UNL     1      -8.336  -2.501   1.595  1.00  0.00    -0.266 OA
HETATM   12  C15 UNL     1      -6.272  -1.758   0.881  1.00  0.00     0.135 A 
HETATM   13  N7  UNL     1      -5.829  -2.324   2.136  1.00  0.00    -0.095 NA
HETATM   14  N8  UNL     1      -3.279  -0.402   1.213  1.00  0.00    -0.270 N 
HETATM   15  N9  UNL     1      -2.014  -0.195   0.734  1.00  0.00    -0.278 N 
ATOM     16  H9  UNL     1      -1.235   0.166   1.285  1.00  0.00     0.189 HD
ENDROOT
BRANCH   1  17
HETATM   17  C9  UNL     1      -0.827  -0.484  -1.473  1.00  0.00     0.284 C 
HETATM   18  O3  UNL     1      -0.951  -0.846  -2.666  1.00  0.00    -0.278 OA
BRANCH  17  19
HETATM   19  C8  UNL     1       0.469  -0.007  -1.011  1.00  0.00     0.297 C 
HETATM   20  N3  UNL     1       1.585   0.056  -1.886  1.00  0.00    -0.333 N 
ATOM     21  H3  UNL     1       1.469  -0.239  -2.855  1.00  0.00     0.165 HD
HETATM   22  O2  UNL     1       0.633   0.361   0.172  1.00  0.00    -0.264 OA
BRANCH  20  23
HETATM   23  C7  UNL     1       2.886   0.527  -1.447  1.00  0.00     0.190 C 
HETATM   24  N2  UNL     1       3.842  -0.460  -1.665  1.00  0.00    -0.387 N 
HETATM   25  C6  UNL     1       5.111  -0.446  -1.125  1.00  0.00     0.198 C 
ATOM     26  H2  UNL     1       3.588  -1.246  -2.264  1.00  0.00     0.156 HD
HETATM   27  C2  UNL     1       5.379   0.135   0.209  1.00  0.00     0.207 C 
HETATM   28  C5  UNL     1       6.216   0.105  -1.935  1.00  0.00     0.185 C 
HETATM   29  C1  UNL     1       4.895  -0.863   1.265  1.00  0.00     0.062 C 
HETATM   30  N1  UNL     1       6.844   0.111   0.315  1.00  0.00    -0.041 N 
HETATM   31  S4  UNL     1       4.850   1.790   0.533  1.00  0.00    -0.056 SA
HETATM   32  C3  UNL     1       7.373   0.019  -1.027  1.00  0.00     0.291 C 
ATOM     33  H12 UNL     1       7.219   0.903   0.837  1.00  0.00     0.280 HD
ATOM     34  H11 UNL     1       7.187  -0.627   0.930  1.00  0.00     0.280 HD
HETATM   35  S3  UNL     1       4.181   2.881  -1.133  1.00  0.00    -0.091 SA
HETATM   36  C19 UNL     1       3.129   1.840  -2.151  1.00  0.00     0.132 C 
HETATM   37  O1  UNL     1       6.182   0.516  -3.046  1.00  0.00    -0.293 OA
BRANCH  32  38
HETATM   38  C4  UNL     1       8.502   0.936  -1.328  1.00  0.00     0.216 C 
HETATM   39 CL1  UNL     1       8.124   2.652  -1.152  1.00  0.00    -0.105 Cl
HETATM   40 CL2  UNL     1       9.230   0.591  -2.924  1.00  0.00    -0.105 Cl
ENDBRANCH  32  38
ENDBRANCH  20  23
ENDBRANCH  17  19
ENDBRANCH   1  17
BRANCH  14  41
HETATM   41  C16 UNL     1      -3.569  -0.022   2.549  1.00  0.00     0.193 C 
BRANCH  41  42
HETATM   42  C17 UNL     1      -3.974   1.455   2.637  1.00  0.00     0.205 C 
HETATM   43  O5  UNL     1      -2.976   2.311   2.184  1.00  0.00    -0.364 OA
HETATM   44  C18 UNL     1      -3.357   3.302   3.076  1.00  0.00     0.246 C 
HETATM   45  S2  UNL     1      -3.711   2.040   4.333  1.00  0.00    -0.110 SA
ENDBRANCH  41  42
ENDBRANCH  14  41
BRANCH   7  46
HETATM   46  N5  UNL     1      -8.542  -0.810  -2.572  1.00  0.00    -0.380 N 
ATOM     47  H52 UNL     1      -8.162  -0.377  -3.414  1.00  0.00     0.158 HD
ATOM     48  H51 UNL     1      -9.541  -1.011  -2.611  1.00  0.00     0.158 HD
ENDBRANCH   7  46
TORSDOF 7
