REMARK  6 active torsions:
REMARK  status: ('A' for Active; 'I' for Inactive)
REMARK    1  A    between atoms: C2_2  and  C3_3 
REMARK    2  A    between atoms: C3_3  and  C4_4 
REMARK    3  A    between atoms: C3_3  and  C5_9 
REMARK    4  A    between atoms: C4_4  and  N1_5 
REMARK    5  A    between atoms: C5_9  and  C6_10 
REMARK    6  A    between atoms: C10_14  and  C11_15 
ROOT
HETATM    1  C6  UNL     1      -1.038   0.196   1.002  1.00  0.00    -0.057 A 
HETATM    2  C7  UNL     1       0.003   1.065   0.751  1.00  0.00     0.008 A 
HETATM    3  C8  UNL     1       1.252   0.578   0.343  1.00  0.00     0.013 A 
HETATM    4  C9  UNL     1       1.507  -0.765   0.172  1.00  0.00    -0.015 A 
HETATM    5  C10 UNL     1       2.738  -1.206  -0.237  1.00  0.00    -0.015 A 
HETATM    6  C17 UNL     1       2.905  -2.596  -0.399  1.00  0.00     0.013 A 
HETATM    7  C18 UNL     1       1.860  -3.460  -0.149  1.00  0.00     0.002 A 
HETATM    8  C19 UNL     1       0.641  -2.994   0.260  1.00  0.00     0.012 A 
HETATM    9  C20 UNL     1       0.452  -1.640   0.426  1.00  0.00    -0.025 A 
HETATM   10  C21 UNL     1      -0.784  -1.143   0.831  1.00  0.00     0.019 A 
ENDROOT
BRANCH   1  11
HETATM   11  C5  UNL     1      -2.355   0.739   1.443  1.00  0.00     0.045 C 
BRANCH  11  12
HETATM   12  C3  UNL     1      -3.215   1.086   0.283  1.00  0.00     0.015 C 
BRANCH  12  13
HETATM   13  C2  UNL     1      -4.558   1.651   0.751  1.00  0.00     0.002 C 
HETATM   14  C1  UNL     1      -5.306   2.188  -0.455  1.00  0.00     0.005 C 
ENDBRANCH  12  13
BRANCH  12  15
HETATM   15  C4  UNL     1      -3.460  -0.016  -0.700  1.00  0.00     0.234 C 
BRANCH  15  16
HETATM   16  N1  UNL     1      -4.249  -1.110  -0.130  1.00  0.00    -0.079 N 
ATOM     17  H13 UNL     1      -3.818  -1.468   0.723  1.00  0.00     0.274 HD
ATOM     18  H12 UNL     1      -5.126  -0.765   0.261  1.00  0.00     0.274 HD
ATOM     19  H11 UNL     1      -4.416  -1.861  -0.800  1.00  0.00     0.274 HD
ENDBRANCH  15  16
ENDBRANCH  12  15
ENDBRANCH  11  12
ENDBRANCH   1  11
BRANCH   5  20
HETATM   20  C11 UNL     1       3.866  -0.320  -0.467  1.00  0.00    -0.025 A 
HETATM   21  C12 UNL     1       4.445  -0.394  -1.717  1.00  0.00     0.012 A 
HETATM   22  C13 UNL     1       5.550   0.349  -2.090  1.00  0.00     0.001 A 
HETATM   23  C14 UNL     1       6.071   1.195  -1.138  1.00  0.00     0.000 A 
HETATM   24  C15 UNL     1       5.510   1.287   0.120  1.00  0.00     0.001 A 
HETATM   25  C16 UNL     1       4.418   0.533   0.444  1.00  0.00     0.012 A 
ENDBRANCH   5  20
TORSDOF 6
