REMARK  4 active torsions:
REMARK  status: ('A' for Active; 'I' for Inactive)
REMARK    1  A    between atoms: C2_2  and  O2_4 
REMARK    2  A    between atoms: O2_4  and  C3_5 
REMARK    3  A    between atoms: C13_15  and  O3_16 
REMARK    4  A    between atoms: C13_15  and  C14_18 
ROOT
HETATM    1  C14 UNL     1      -4.554  -1.046  -0.041  1.00  0.00    -0.050 C 
HETATM    2  C15 UNL     1      -5.381  -1.735   0.509  1.00  0.00     0.008 C 
HETATM    3 CL1  UNL     1      -6.546  -2.734   1.291  1.00  0.00    -0.023 Cl
ENDROOT
BRANCH   1   4
HETATM    4  C13 UNL     1      -3.571  -0.197  -0.714  1.00  0.00     0.130 C 
HETATM    5  C11 UNL     1      -2.136  -0.611  -0.360  1.00  0.00     0.007 C 
HETATM    6  C10 UNL     1      -1.324  -0.783  -1.602  1.00  0.00     0.014 C 
HETATM    7  C12 UNL     1      -2.240  -1.971   0.295  1.00  0.00     0.020 C 
HETATM    8  C18 UNL     1      -1.699   0.490   0.516  1.00  0.00    -0.025 C 
HETATM    9  C9  UNL     1       0.090  -0.370  -1.564  1.00  0.00     0.007 C 
HETATM   10  C8  UNL     1       0.484   0.700  -0.606  1.00  0.00     0.005 C 
HETATM   11  C6  UNL     1      -0.215   0.677   0.700  1.00  0.00    -0.031 C 
HETATM   12  C20 UNL     1       1.992   0.730  -0.504  1.00  0.00    -0.017 C 
HETATM   13  C5  UNL     1       0.348  -0.263   1.726  1.00  0.00     0.013 C 
HETATM   14  C7  UNL     1      -0.091   2.089   1.309  1.00  0.00     0.016 C 
HETATM   15  C4  UNL     1       1.594  -0.974   1.312  1.00  0.00     0.034 C 
HETATM   16  C3  UNL     1       2.569  -0.138   0.552  1.00  0.00     0.140 C 
HETATM   17  C21 UNL     1       2.609   0.280  -1.841  1.00  0.00     0.018 C 
HETATM   18  C22 UNL     1       2.529   2.145  -0.323  1.00  0.00     0.018 C 
HETATM   19  C17 UNL     1      -2.245   1.702  -0.260  1.00  0.00     0.014 C 
HETATM   20  C19 UNL     1      -2.356   0.550   1.854  1.00  0.00     0.017 C 
HETATM   21  C16 UNL     1      -3.704   1.254  -0.386  1.00  0.00     0.053 C 
BRANCH  16  22
HETATM   22  O2  UNL     1       3.567  -1.033   0.044  1.00  0.00    -0.316 OA
BRANCH  22  23
HETATM   23  C2  UNL     1       4.869  -1.053   0.460  1.00  0.00     0.255 C 
HETATM   24  C1  UNL     1       5.843  -2.026  -0.132  1.00  0.00     0.126 C 
HETATM   25  O1  UNL     1       5.239  -0.250   1.339  1.00  0.00    -0.266 OA
ENDBRANCH  22  23
ENDBRANCH  16  22
BRANCH   4  26
HETATM   26  O3  UNL     1      -3.824  -0.331  -2.076  1.00  0.00    -0.377 OA
ATOM     27  H3  UNL     1      -4.712  -0.075  -2.295  1.00  0.00     0.211 HD
ENDBRANCH   4  26
ENDBRANCH   1   4
TORSDOF 4
