REMARK  13 active torsions:
REMARK  status: ('A' for Active; 'I' for Inactive)
REMARK    1  A    between atoms: C2_2  and  C3_3 
REMARK    2  A    between atoms: C3_3  and  C4_4 
REMARK    3  A    between atoms: C4_4  and  C5_5 
REMARK    4  A    between atoms: C5_5  and  O2_7 
REMARK    5  A    between atoms: O2_7  and  C6_8 
REMARK    6  A    between atoms: C7_9  and  O3_10 
REMARK    7  A    between atoms: C13_17  and  N1_18 
REMARK    8  A    between atoms: N2_20  and  C14_22 
REMARK    9  A    between atoms: C14_22  and  O5_27 
REMARK   10  A    between atoms: N3_23  and  O4_25 
REMARK   11  A    between atoms: C19_34  and  C21_36 
REMARK   12  A    between atoms: C21_36  and  C22_37 
REMARK   13  A    between atoms: C25_40  and  O8_41 
ROOT
HETATM    1  C6  UNL     1       1.341   0.064  -0.169  1.00  0.00     0.222 C 
HETATM    2  C7  UNL     1       1.466   1.537  -0.201  1.00  0.00     0.160 C 
HETATM    3  C8  UNL     1       0.486   2.364   0.502  1.00  0.00     0.053 C 
HETATM    4  C9  UNL     1       0.608   2.463   1.989  1.00  0.00    -0.009 C 
HETATM    5  C10 UNL     1       1.703   1.776   2.672  1.00  0.00     0.010 C 
HETATM    6  C11 UNL     1      -0.712   1.874   2.510  1.00  0.00     0.007 C 
HETATM    7  C12 UNL     1      -1.626   2.503   1.468  1.00  0.00     0.036 C 
HETATM    8  C13 UNL     1      -0.962   2.203   0.132  1.00  0.00     0.081 C 
HETATM    9  C16 UNL     1      -1.441   1.124  -0.664  1.00  0.00     0.190 C 
HETATM   10  O6  UNL     1      -0.415   0.709  -1.565  1.00  0.00    -0.342 OA
HETATM   11  C17 UNL     1       0.161  -0.429  -0.972  1.00  0.00     0.191 C 
HETATM   12  C18 UNL     1       0.556  -1.450  -1.993  1.00  0.00     0.082 C 
HETATM   13  O7  UNL     1      -0.749  -0.922  -0.040  1.00  0.00    -0.339 OA
HETATM   14  C19 UNL     1      -1.903  -0.204  -0.290  1.00  0.00     0.095 C 
HETATM   15  C20 UNL     1      -2.395  -0.827  -1.633  1.00  0.00     0.049 C 
ENDROOT
BRANCH  14  16
HETATM   16  C21 UNL     1      -3.015  -0.437   0.618  1.00  0.00     0.099 C 
BRANCH  16  17
HETATM   17  C22 UNL     1      -3.237  -1.902   0.808  1.00  0.00     0.029 A 
HETATM   18  C23 UNL     1      -4.103  -2.673   0.107  1.00  0.00     0.031 A 
HETATM   19  C24 UNL     1      -4.188  -4.019   0.387  1.00  0.00     0.059 A 
HETATM   20  C25 UNL     1      -3.375  -4.520   1.381  1.00  0.00     0.156 A 
HETATM   21  N4  UNL     1      -2.535  -3.747   2.055  1.00  0.00    -0.280 N 
HETATM   22  N5  UNL     1      -2.463  -2.469   1.780  1.00  0.00    -0.303 N 
ATOM     23  H4  UNL     1      -1.946  -4.147   2.786  1.00  0.00     0.189 HD
ATOM     24  H5  UNL     1      -1.813  -1.883   2.304  1.00  0.00     0.186 HD
BRANCH  20  25
HETATM   25  O8  UNL     1      -3.445  -5.865   1.677  1.00  0.00    -0.340 OA
HETATM   26  C26 UNL     1      -2.648  -6.423   2.671  1.00  0.00     0.211 C 
ENDBRANCH  20  25
ENDBRANCH  16  17
ENDBRANCH  14  16
BRANCH   8  27
HETATM   27  N1  UNL     1      -1.317   3.454  -0.625  1.00  0.00    -0.320 N 
HETATM   28  N2  UNL     1      -2.526   3.842  -0.603  1.00  0.00    -0.267 N 
ATOM     29  H2  UNL     1      -3.217   3.304  -0.080  1.00  0.00     0.190 HD
ATOM     30  H1  UNL     1      -0.608   3.975  -1.141  1.00  0.00     0.181 HD
BRANCH  28  31
HETATM   31  C14 UNL     1      -2.929   5.007  -1.291  1.00  0.00     0.258 C 
HETATM   32  N3  UNL     1      -3.025   6.138  -0.671  1.00  0.00    -0.231 N 
ATOM     33  H3  UNL     1      -3.319   6.961  -1.197  1.00  0.00     0.198 HD
BRANCH  32  34
HETATM   34  O4  UNL     1      -2.748   6.276   0.664  1.00  0.00    -0.287 OA
ATOM     35  H4  UNL     1      -2.819   7.107   1.119  1.00  0.00     0.244 HD
ENDBRANCH  32  34
BRANCH  31  36
HETATM   36  O5  UNL     1      -3.243   5.015  -2.652  1.00  0.00    -0.325 OA
HETATM   37  C15 UNL     1      -3.812   6.155  -3.270  1.00  0.00     0.213 C 
ENDBRANCH  31  36
ENDBRANCH  28  31
ENDBRANCH   8  27
BRANCH   1  38
HETATM   38  O2  UNL     1       2.529  -0.437  -0.760  1.00  0.00    -0.308 OA
BRANCH  38  39
HETATM   39  C5  UNL     1       3.426  -1.270  -0.096  1.00  0.00     0.259 C 
HETATM   40  O1  UNL     1       3.150  -1.577   1.073  1.00  0.00    -0.265 OA
BRANCH  39  41
HETATM   41  C4  UNL     1       4.657  -1.783  -0.723  1.00  0.00     0.111 C 
BRANCH  41  42
HETATM   42  C3  UNL     1       5.401  -2.651   0.263  1.00  0.00     0.009 C 
BRANCH  42  43
HETATM   43  C2  UNL     1       6.670  -3.211  -0.307  1.00  0.00    -0.004 C 
HETATM   44  C1  UNL     1       7.560  -2.045  -0.699  1.00  0.00     0.005 C 
ENDBRANCH  42  43
ENDBRANCH  41  42
ENDBRANCH  39  41
ENDBRANCH  38  39
ENDBRANCH   1  38
BRANCH   2  45
HETATM   45  O3  UNL     1       1.591   1.946  -1.535  1.00  0.00    -0.392 OA
ATOM     46  H3  UNL     1       1.671   2.892  -1.556  1.00  0.00     0.210 HD
ENDBRANCH   2  45
TORSDOF 13
