REMARK  14 active torsions:
REMARK  status: ('A' for Active; 'I' for Inactive)
REMARK    1  A    between atoms: C2_2  and  C3_4 
REMARK    2  A    between atoms: C3_4  and  N1_5 
REMARK    3  A    between atoms: C3_4  and  C18_41 
REMARK       I    between atoms: N1_5  and  C4_7 
REMARK    4  A    between atoms: C4_7  and  C5_9 
REMARK    5  A    between atoms: C5_9  and  C6_11 
REMARK    6  A    between atoms: C6_11  and  N2_12 
REMARK    7  A    between atoms: C6_11  and  C7_16 
REMARK    8  A    between atoms: C7_16  and  N3_17 
REMARK    9  A    between atoms: C7_16  and  C11_27 
REMARK       I    between atoms: N3_17  and  C8_19 
REMARK   10  A    between atoms: C8_19  and  C9_21 
REMARK   11  A    between atoms: C9_21  and  C10_22 
REMARK   12  A    between atoms: C10_22  and  N4_23 
REMARK   13  A    between atoms: C11_27  and  O6_29 
REMARK   14  A    between atoms: O6_29  and  C12_30 
REMARK       I    between atoms: N5_34  and  C16_35 
ROOT
HETATM    1  C7  UNL     1      -0.526   0.916  -0.110  1.00  0.00     0.222 C 
ENDROOT
BRANCH   1   2
HETATM    2  C6  UNL     1       0.333  -0.180   0.482  1.00  0.00     0.294 C 
BRANCH   2   3
HETATM    3  C5  UNL     1       1.559   0.328   1.094  1.00  0.00     0.249 C 
HETATM    4  O3  UNL     1       1.485   1.273   1.953  1.00  0.00    -0.285 OA
BRANCH   3   5
HETATM    5  C4  UNL     1       2.851  -0.216   0.748  1.00  0.00     0.290 C 
HETATM    6  N1  UNL     1       4.034   0.284   1.348  1.00  0.00    -0.335 N 
ATOM      7  H1  UNL     1       3.950   1.038   2.030  1.00  0.00     0.164 HD
HETATM    8  O2  UNL     1       2.962  -1.134  -0.081  1.00  0.00    -0.264 OA
BRANCH   6   9
HETATM    9  C3  UNL     1       5.354  -0.221   1.041  1.00  0.00     0.243 C 
BRANCH   9  10
HETATM   10  C2  UNL     1       6.031  -0.776   2.228  1.00  0.00     0.154 C 
HETATM   11  C1  UNL     1       7.395  -1.345   2.060  1.00  0.00     0.093 C 
HETATM   12  O1  UNL     1       5.529  -0.790   3.338  1.00  0.00    -0.296 OA
ENDBRANCH   9  10
BRANCH   9  13
HETATM   13  C18 UNL     1       6.163   0.882   0.499  1.00  0.00     0.261 C 
HETATM   14  N8  UNL     1       7.501   0.663   0.109  1.00  0.00    -0.060 NA
HETATM   15  O7  UNL     1       5.669   2.020   0.381  1.00  0.00    -0.274 OA
ENDBRANCH   9  13
ENDBRANCH   6   9
ENDBRANCH   3   5
ENDBRANCH   2   3
BRANCH   2  16
HETATM   16  N2  UNL     1       0.581  -1.229  -0.436  1.00  0.00    -0.065 N 
ATOM     17  H23 UNL     1       1.255  -0.944  -1.146  1.00  0.00     0.275 HD
ATOM     18  H22 UNL     1       1.113  -1.982   0.001  1.00  0.00     0.275 HD
ATOM     19  H21 UNL     1      -0.275  -1.584  -0.863  1.00  0.00     0.275 HD
ENDBRANCH   2  16
ENDBRANCH   1   2
BRANCH   1  20
HETATM   20  N3  UNL     1       0.157   1.654  -1.140  1.00  0.00    -0.345 N 
HETATM   21  C8  UNL     1       0.365   3.063  -1.047  1.00  0.00     0.220 C 
HETATM   22  O4  UNL     1      -0.048   3.724  -0.042  1.00  0.00    -0.274 OA
ATOM     23  H3  UNL     1       0.502   1.156  -1.960  1.00  0.00     0.163 HD
BRANCH  21  24
HETATM   24  C9  UNL     1       1.064   3.836  -2.094  1.00  0.00     0.130 C 
BRANCH  24  25
HETATM   25  C10 UNL     1       1.155   5.293  -1.774  1.00  0.00     0.238 C 
BRANCH  25  26
HETATM   26  N4  UNL     1       1.868   5.562  -0.548  1.00  0.00    -0.079 N 
ATOM     27  H43 UNL     1       1.460   5.044   0.230  1.00  0.00     0.274 HD
ATOM     28  H42 UNL     1       2.794   5.136  -0.566  1.00  0.00     0.274 HD
ATOM     29  H41 UNL     1       1.930   6.556  -0.330  1.00  0.00     0.274 HD
ENDBRANCH  25  26
ENDBRANCH  24  25
ENDBRANCH  21  24
ENDBRANCH   1  20
BRANCH   1  30
HETATM   30  C11 UNL     1      -1.793   0.335  -0.631  1.00  0.00     0.284 C 
HETATM   31  O5  UNL     1      -2.175   0.493  -1.821  1.00  0.00    -0.263 OA
BRANCH  30  32
HETATM   32  O6  UNL     1      -2.635  -0.417   0.161  1.00  0.00    -0.313 OA
BRANCH  32  33
HETATM   33  C12 UNL     1      -3.841  -0.998  -0.248  1.00  0.00     0.150 C 
HETATM   34  C13 UNL     1      -5.040  -0.416   0.473  1.00  0.00     0.036 C 
HETATM   35  C14 UNL     1      -6.231  -0.656  -0.466  1.00  0.00     0.022 C 
HETATM   36  C15 UNL     1      -6.328  -2.125  -0.812  1.00  0.00     0.125 C 
HETATM   37  N5  UNL     1      -5.273  -2.909  -0.219  1.00  0.00    -0.353 N 
HETATM   38  C16 UNL     1      -5.594  -4.191   0.336  1.00  0.00     0.184 C 
HETATM   39  C17 UNL     1      -3.892  -2.479  -0.147  1.00  0.00     0.158 C 
HETATM   40  N6  UNL     1      -6.409  -4.265   1.331  1.00  0.00    -0.374 N 
HETATM   41  N7  UNL     1      -5.029  -5.400  -0.189  1.00  0.00    -0.064 NA
ATOM     42  H62 UNL     1      -6.811  -3.405   1.704  1.00  0.00     0.158 HD
ATOM     43  H61 UNL     1      -6.637  -5.177   1.726  1.00  0.00     0.158 HD
ENDBRANCH  32  33
ENDBRANCH  30  32
ENDBRANCH   1  30
TORSDOF 14
