REMARK  2 active torsions:
REMARK  status: ('A' for Active; 'I' for Inactive)
REMARK    1  A    between atoms: C2_2  and  C3_3 
REMARK       I    between atoms: C3_3  and  N1_5 
REMARK    2  A    between atoms: N1_5  and  C4_7 
ROOT
HETATM    1  C4  UNL     1       0.993   0.078  -0.542  1.00  0.00     0.098 A 
HETATM    2  S1  UNL     1      -0.072   0.638  -1.851  1.00  0.00    -0.075 SA
HETATM    3  C5  UNL     1      -1.477   0.879  -0.989  1.00  0.00    -0.007 A 
HETATM    4  C6  UNL     1      -1.138   0.533   0.301  1.00  0.00    -0.021 A 
HETATM    5  C7  UNL     1       0.143   0.123   0.505  1.00  0.00     0.085 A 
HETATM    6  C8  UNL     1       0.594  -0.266   1.866  1.00  0.00     0.103 C 
HETATM    7  N2  UNL     1       0.909  -0.565   2.959  1.00  0.00    -0.191 NA
HETATM    8  C9  UNL     1      -2.278   0.671   1.319  1.00  0.00     0.041 C 
HETATM    9  C10 UNL     1      -3.514   0.104   0.748  1.00  0.00     0.005 C 
HETATM   10  C11 UNL     1      -3.722   0.159  -0.712  1.00  0.00     0.005 C 
HETATM   11  C12 UNL     1      -2.908   1.335  -1.263  1.00  0.00     0.047 C 
ENDROOT
BRANCH   1  12
HETATM   12  N1  UNL     1       2.334  -0.264  -0.786  1.00  0.00    -0.317 N 
HETATM   13  C3  UNL     1       3.384  -0.718  -0.019  1.00  0.00     0.245 C 
HETATM   14  O1  UNL     1       3.446  -0.973   1.194  1.00  0.00    -0.268 OA
ATOM     15  H1  UNL     1       2.591  -0.148  -1.766  1.00  0.00     0.169 HD
BRANCH  13  16
HETATM   16  C2  UNL     1       4.702  -0.970  -0.692  1.00  0.00     0.064 C 
HETATM   17  C1  UNL     1       5.703  -1.395  -0.002  1.00  0.00     0.017 C 
ENDBRANCH  13  16
ENDBRANCH   1  12
TORSDOF 2
