REMARK  10 active torsions:
REMARK  status: ('A' for Active; 'I' for Inactive)
REMARK    1  A    between atoms: C7_8  and  O1_10 
REMARK    2  A    between atoms: C11_14  and  C12_16 
REMARK    3  A    between atoms: C12_16  and  C13_17 
REMARK    4  A    between atoms: C13_17  and  N1_18 
REMARK       I    between atoms: N1_18  and  C14_20 
REMARK       I    between atoms: N3_22  and  C15_24 
REMARK    5  A    between atoms: C15_24  and  C16_26 
REMARK    6  A    between atoms: C16_26  and  O3_27 
REMARK    7  A    between atoms: O3_27  and  C17_28 
REMARK    8  A    between atoms: C17_28  and  C18_30 
REMARK    9  A    between atoms: C18_30  and  N4_31 
REMARK   10  A    between atoms: N4_31  and  C21_34 
ROOT
HETATM    1  N1  UNL     1      -0.626   1.724  -0.088  1.00  0.00    -0.364 N 
ATOM      2  H1  UNL     1      -1.111   2.614   0.026  1.00  0.00     0.162 HD
HETATM    3  C14 UNL     1       0.782   1.661  -0.054  1.00  0.00     0.190 C 
HETATM    4  N2  UNL     1       1.472   2.536   0.821  1.00  0.00    -0.063 NA
HETATM    5  N3  UNL     1       1.473   0.853  -0.774  1.00  0.00    -0.299 N 
ATOM      6  H3  UNL     1       0.963   0.229  -1.400  1.00  0.00     0.171 HD
HETATM    7  C15 UNL     1       2.866   0.759  -0.770  1.00  0.00     0.248 C 
HETATM    8  O2  UNL     1       3.517   1.106  -1.778  1.00  0.00    -0.271 OA
ENDROOT
BRANCH   1   9
HETATM    9  C13 UNL     1      -1.367   0.496  -0.288  1.00  0.00     0.124 C 
BRANCH   9  10
HETATM   10  C12 UNL     1      -2.835   0.729  -0.299  1.00  0.00     0.042 C 
BRANCH  10  11
HETATM   11  C11 UNL     1      -3.707  -0.457  -0.511  1.00  0.00     0.037 C 
HETATM   12  C2  UNL     1      -3.617  -1.554   0.476  1.00  0.00    -0.028 C 
HETATM   13  C1  UNL     1      -3.182  -1.206   1.863  1.00  0.00     0.016 C 
HETATM   14  C3  UNL     1      -2.646  -2.687   0.074  1.00  0.00     0.016 C 
HETATM   15  C4  UNL     1      -4.925  -2.367   0.554  1.00  0.00     0.026 C 
HETATM   16  C5  UNL     1      -6.001  -1.407   0.926  1.00  0.00     0.066 C 
HETATM   17 BR1  UNL     1      -7.602  -2.432   1.331  1.00  0.00    -0.091 Br
HETATM   18  C6  UNL     1      -6.235  -0.566  -0.306  1.00  0.00     0.047 A 
HETATM   19  C7  UNL     1      -5.926   0.937  -0.174  1.00  0.00     0.069 A 
HETATM   20  C9  UNL     1      -5.059   0.037  -0.899  1.00  0.00     0.013 A 
HETATM   21  C8  UNL     1      -5.941   1.405   1.221  1.00  0.00     0.047 C 
HETATM   22  C10 UNL     1      -5.148   0.268  -2.429  1.00  0.00     0.020 C 
HETATM   23 BR2  UNL     1      -2.908  -1.281  -2.135  1.00  0.00    -0.084 Br
BRANCH  19  24
HETATM   24  O1  UNL     1      -6.886   1.687  -0.918  1.00  0.00    -0.389 OA
ATOM     25  H1  UNL     1      -6.695   2.614  -0.837  1.00  0.00     0.210 HD
ENDBRANCH  19  24
ENDBRANCH  10  11
ENDBRANCH   9  10
ENDBRANCH   1   9
BRANCH   7  26
HETATM   26  C16 UNL     1       3.579   0.254   0.412  1.00  0.00     0.281 C 
BRANCH  26  27
HETATM   27  O3  UNL     1       4.981   0.255   0.278  1.00  0.00    -0.311 OA
BRANCH  27  28
HETATM   28  C17 UNL     1       5.747   1.385   0.087  1.00  0.00     0.285 C 
HETATM   29  O4  UNL     1       5.212   2.504   0.026  1.00  0.00    -0.263 OA
BRANCH  28  30
HETATM   30  C18 UNL     1       7.232   1.235  -0.044  1.00  0.00     0.348 C 
BRANCH  30  31
HETATM   31  N4  UNL     1       7.609  -0.153   0.060  1.00  0.00    -0.054 N 
HETATM   32  C19 UNL     1       6.952  -0.889  -1.016  1.00  0.00     0.274 C 
HETATM   33  C20 UNL     1       7.263  -0.710   1.363  1.00  0.00     0.274 C 
BRANCH  31  34
HETATM   34  C21 UNL     1       9.048  -0.244  -0.076  1.00  0.00     0.350 C 
HETATM   35 CL1  UNL     1       9.564   0.288  -1.693  1.00  0.00    -0.101 Cl
ENDBRANCH  31  34
ENDBRANCH  30  31
ENDBRANCH  28  30
ENDBRANCH  27  28
ENDBRANCH  26  27
ENDBRANCH   7  26
TORSDOF 10
