REMARK  2 active torsions:
REMARK  status: ('A' for Active; 'I' for Inactive)
REMARK    1  A    between atoms: C4_7  and  N3_8 
REMARK    2  A    between atoms: N3_8  and  C5_10 
ROOT
HETATM    1  C1  UNL     1      -0.179  -3.950   0.136  1.00  0.00     0.111 A 
HETATM    2  C2  UNL     1      -1.503  -3.763   0.450  1.00  0.00     0.068 A 
HETATM    3  C3  UNL     1      -1.717  -2.378   0.560  1.00  0.00     0.125 A 
HETATM    4  N1  UNL     1      -0.553  -1.769   0.318  1.00  0.00    -0.252 N 
HETATM    5  N2  UNL     1       0.349  -2.749   0.067  1.00  0.00    -0.306 N 
ATOM      6  H2  UNL     1       1.330  -2.573  -0.151  1.00  0.00     0.186 HD
HETATM    7  C4  UNL     1      -0.344  -0.348   0.375  1.00  0.00     0.216 A 
HETATM    8  C11 UNL     1      -1.594   0.426   0.594  1.00  0.00     0.075 A 
HETATM    9  C12 UNL     1      -1.920   1.340  -0.610  1.00  0.00     0.014 C 
HETATM   10  C13 UNL     1      -3.066   2.223  -0.196  1.00  0.00     0.001 C 
HETATM   11  C14 UNL     1      -4.313   1.369  -0.092  1.00  0.00     0.006 C 
HETATM   12  C15 UNL     1      -4.064   0.437   1.109  1.00  0.00     0.053 C 
HETATM   13  C16 UNL     1      -2.815  -0.342   0.848  1.00  0.00    -0.004 A 
HETATM   14  N4  UNL     1      -2.869  -1.611   0.831  1.00  0.00    -0.348 N 
ATOM     15  H4  UNL     1      -3.756  -2.081   1.015  1.00  0.00     0.167 HD
ENDROOT
BRANCH   7  16
HETATM   16  N3  UNL     1       0.340   0.166  -0.725  1.00  0.00    -0.373 N 
ATOM     17  H3  UNL     1      -0.191   0.311  -1.584  1.00  0.00     0.161 HD
BRANCH  16  18
HETATM   18  C5  UNL     1       1.686   0.495  -0.742  1.00  0.00    -0.016 C 
HETATM   19  C6  UNL     1       2.225   1.454   0.282  1.00  0.00     0.052 C 
HETATM   20  C7  UNL     1       3.709   1.602   0.047  1.00  0.00     0.006 C 
HETATM   21  C8  UNL     1       4.439   0.334   0.408  1.00  0.00     0.001 C 
HETATM   22  C9  UNL     1       3.611  -0.889   0.123  1.00  0.00     0.006 C 
HETATM   23  C10 UNL     1       2.727  -0.528  -1.067  1.00  0.00     0.052 C 
ENDBRANCH  16  18
ENDBRANCH   7  16
TORSDOF 2
