REMARK  13 active torsions:
REMARK  status: ('A' for Active; 'I' for Inactive)
REMARK    1  A    between atoms: O1_2  and  N1_3 
REMARK    2  A    between atoms: N1_3  and  C2_4 
REMARK    3  A    between atoms: N1_3  and  C15_42 
REMARK    4  A    between atoms: C2_4  and  C3_5 
REMARK    5  A    between atoms: N4_13  and  C7_14 
REMARK    6  A    between atoms: C8_18  and  O2_19 
REMARK    7  A    between atoms: C9_21  and  C10_22 
REMARK    8  A    between atoms: C10_22  and  N8_23 
REMARK    9  A    between atoms: C12_29  and  N11_30 
REMARK   10  A    between atoms: C15_42  and  C16_43 
REMARK   11  A    between atoms: C15_42  and  C17_46 
REMARK   12  A    between atoms: C16_43  and  O3_44 
REMARK   13  A    between atoms: C17_46  and  O4_47 
ROOT
HETATM    1  C3  UNL     1      -0.915  -0.488   0.675  1.00  0.00     0.059 A 
HETATM    2  N2  UNL     1      -1.758   0.533   0.685  1.00  0.00    -0.339 N 
ATOM      3  H2  UNL     1      -2.719   0.475   1.021  1.00  0.00     0.167 HD
HETATM    4  C4  UNL     1      -1.191   1.669   0.194  1.00  0.00     0.137 A 
HETATM    5  C5  UNL     1       0.092   1.315  -0.148  1.00  0.00     0.040 A 
HETATM    6  C6  UNL     1       0.717   2.455  -0.659  1.00  0.00     0.123 A 
HETATM    7  N3  UNL     1      -0.205   3.402  -0.585  1.00  0.00    -0.305 N 
ATOM      8  H3  UNL     1      -0.051   4.364  -0.885  1.00  0.00     0.186 HD
HETATM    9  N4  UNL     1      -1.329   2.974  -0.088  1.00  0.00    -0.250 N 
HETATM   10  C9  UNL     1       0.303  -0.003   0.133  1.00  0.00     0.025 A 
ENDROOT
BRANCH  10  11
HETATM   11  C10 UNL     1       1.445  -0.815  -0.029  1.00  0.00     0.134 C 
BRANCH  11  12
HETATM   12  N8  UNL     1       2.628  -0.811   0.777  1.00  0.00    -0.233 N 
HETATM   13  N9  UNL     1       2.893  -1.295   1.960  1.00  0.00    -0.234 N 
HETATM   14  N10 UNL     1       4.193  -1.131   2.250  1.00  0.00    -0.279 N 
ATOM     15  H9  UNL     1       2.209  -1.735   2.576  1.00  0.00     0.209 HD
HETATM   16  C11 UNL     1       4.793  -0.525   1.233  1.00  0.00     0.140 A 
ATOM     17  H10 UNL     1       4.648  -1.425   3.114  1.00  0.00     0.189 HD
HETATM   18  C12 UNL     1       6.116  -0.200   0.969  1.00  0.00     0.147 A 
HETATM   19  C14 UNL     1       3.803  -0.315   0.304  1.00  0.00     0.175 A 
HETATM   20  N12 UNL     1       6.385   0.334  -0.255  1.00  0.00    -0.175 N 
HETATM   21  C13 UNL     1       5.378   0.534  -1.158  1.00  0.00     0.679 A 
ATOM     22  H12 UNL     1       7.343   0.586  -0.499  1.00  0.00     0.186 HD
HETATM   23  N13 UNL     1       5.701   0.960  -2.359  1.00  0.00    -0.234 N 
HETATM   24  N14 UNL     1       4.111   0.222  -0.890  1.00  0.00    -0.172 N 
ATOM     25 2H13 UNL     1       6.671   1.199  -2.564  1.00  0.00     0.174 HD
ATOM     26 1H13 UNL     1       4.950   1.109  -3.033  1.00  0.00     0.174 HD
ATOM     27  H14 UNL     1       3.382   0.389  -1.583  1.00  0.00     0.186 HD
BRANCH  18  28
HETATM   28  N11 UNL     1       7.041  -0.421   1.817  1.00  0.00    -0.383 N 
ATOM     29 2H11 UNL     1       6.840  -0.821   2.733  1.00  0.00     0.157 HD
ATOM     30 1H11 UNL     1       8.013  -0.182   1.623  1.00  0.00     0.157 HD
ENDBRANCH  18  28
ENDBRANCH  11  12
ENDBRANCH  10  11
BRANCH   1  31
HETATM   31  C2  UNL     1      -1.005  -1.830   1.239  1.00  0.00     0.120 C 
BRANCH  31  32
HETATM   32  N1  UNL     1      -1.740  -2.867   0.644  1.00  0.00    -0.163 NA
BRANCH  32  33
HETATM   33  O1  UNL     1      -1.015  -3.376  -0.457  1.00  0.00    -0.304 OA
HETATM   34  C1  UNL     1      -0.279  -4.472  -0.124  1.00  0.00     0.230 C 
ENDBRANCH  32  33
BRANCH  32  35
HETATM   35  C15 UNL     1      -3.053  -2.605   0.088  1.00  0.00     0.138 C 
BRANCH  35  36
HETATM   36  C16 UNL     1      -3.065  -3.326  -1.290  1.00  0.00     0.188 C 
BRANCH  36  37
HETATM   37  O3  UNL     1      -4.258  -3.211  -1.937  1.00  0.00    -0.399 OA
ATOM     38  H3  UNL     1      -4.265  -3.651  -2.779  1.00  0.00     0.209 HD
ENDBRANCH  36  37
ENDBRANCH  35  36
BRANCH  35  39
HETATM   39  C17 UNL     1      -4.048  -3.373   0.967  1.00  0.00     0.188 C 
BRANCH  39  40
HETATM   40  O4  UNL     1      -3.648  -4.722   0.859  1.00  0.00    -0.399 OA
ATOM     41  H4  UNL     1      -4.264  -5.198   1.403  1.00  0.00     0.209 HD
ENDBRANCH  39  40
ENDBRANCH  35  39
ENDBRANCH  32  35
ENDBRANCH  31  32
ENDBRANCH   1  31
BRANCH   9  42
HETATM   42  C7  UNL     1      -2.485   3.801   0.294  1.00  0.00     0.265 C 
HETATM   43  N5  UNL     1      -2.010   4.594   1.496  1.00  0.00    -0.098 NA
HETATM   44  N6  UNL     1      -1.611   5.800   0.906  1.00  0.00    -0.035 NA
HETATM   45  N7  UNL     1      -2.801   6.085   0.186  1.00  0.00    -0.094 NA
HETATM   46  C8  UNL     1      -2.879   4.863  -0.646  1.00  0.00     0.270 C 
BRANCH  46  47
HETATM   47  O2  UNL     1      -2.111   5.013  -1.780  1.00  0.00    -0.375 OA
ATOM     48  H2  UNL     1      -2.365   5.698  -2.387  1.00  0.00     0.211 HD
ENDBRANCH  46  47
ENDBRANCH   9  42
TORSDOF 13
