REMARK  6 active torsions:
REMARK  status: ('A' for Active; 'I' for Inactive)
REMARK    1  A    between atoms: C2_3  and  O1_4 
REMARK    2  A    between atoms: O1_4  and  C3_5 
REMARK    3  A    between atoms: C3_5  and  C4_6 
REMARK    4  A    between atoms: C4_6  and  N2_7 
REMARK    5  A    between atoms: C6_12  and  N4_13 
REMARK    6  A    between atoms: C11_21  and  N6_22 
ROOT
HETATM    1  N2  UNL     1      -0.276  -1.773  -0.932  1.00  0.00    -0.202 N 
ATOM      2  H2  UNL     1      -0.254  -1.018  -1.617  1.00  0.00     0.183 HD
HETATM    3  C5  UNL     1      -1.267  -1.586  -0.261  1.00  0.00     0.712 A 
HETATM    4  N3  UNL     1      -2.054  -0.501  -0.553  1.00  0.00    -0.021 N 
ATOM      5  H3  UNL     1      -1.770   0.100  -1.326  1.00  0.00     0.203 HD
HETATM    6  C6  UNL     1      -3.158  -0.185   0.105  1.00  0.00     0.709 A 
HETATM    7  N5  UNL     1      -3.547  -0.972   1.132  1.00  0.00    -0.021 N 
ATOM      8  H5  UNL     1      -4.393  -0.755   1.658  1.00  0.00     0.203 HD
HETATM    9  C11 UNL     1      -2.810  -2.036   1.448  1.00  0.00     0.706 A 
HETATM   10  N7  UNL     1      -1.669  -2.349   0.756  1.00  0.00    -0.018 N 
HETATM   11  C12 UNL     1      -0.968  -3.535   1.201  1.00  0.00     0.195 C 
ENDROOT
BRANCH   1  12
HETATM   12  C4  UNL     1       0.827  -2.542  -1.184  1.00  0.00     0.105 C 
BRANCH  12  13
HETATM   13  C3  UNL     1       2.142  -2.064  -0.599  1.00  0.00     0.224 C 
BRANCH  13  14
HETATM   14  O1  UNL     1       2.413  -0.793  -1.122  1.00  0.00    -0.317 OA
BRANCH  14  15
HETATM   15  C2  UNL     1       3.546  -0.060  -0.791  1.00  0.00     0.229 A 
HETATM   16  N1  UNL     1       3.819   1.157  -1.281  1.00  0.00    -0.283 N 
HETATM   17  C1  UNL     1       2.892   1.755  -2.207  1.00  0.00     0.163 C 
HETATM   18  C15 UNL     1       4.928   1.846  -0.941  1.00  0.00     0.278 A 
HETATM   19  C14 UNL     1       5.809   1.292  -0.068  1.00  0.00     0.155 A 
HETATM   20  O3  UNL     1       5.185   2.988  -1.401  1.00  0.00    -0.266 OA
HETATM   21  C13 UNL     1       5.549   0.032   0.453  1.00  0.00     0.149 A 
HETATM   22  N10 UNL     1       6.992   2.014   0.303  1.00  0.00    -0.093 NA
HETATM   23  N8  UNL     1       4.424  -0.600   0.072  1.00  0.00    -0.308 N 
HETATM   24  N9  UNL     1       6.454  -0.569   1.367  1.00  0.00    -0.080 NA
ATOM     25  H8  UNL     1       4.230  -1.526   0.453  1.00  0.00     0.170 HD
ENDBRANCH  14  15
ENDBRANCH  13  14
ENDBRANCH  12  13
ENDBRANCH   1  12
BRANCH   6  26
HETATM   26  N4  UNL     1      -3.979   0.930  -0.202  1.00  0.00    -0.213 N 
HETATM   27  C7  UNL     1      -3.628   2.214   0.368  1.00  0.00     0.167 C 
HETATM   28  C8  UNL     1      -4.465   3.260  -0.342  1.00  0.00     0.188 C 
HETATM   29  O2  UNL     1      -5.814   3.047  -0.182  1.00  0.00    -0.388 OA
HETATM   30  C9  UNL     1      -6.215   1.737  -0.333  1.00  0.00     0.188 C 
HETATM   31  C10 UNL     1      -5.157   0.883  -1.042  1.00  0.00     0.167 C 
ENDBRANCH   6  26
BRANCH   9  32
HETATM   32  N6  UNL     1      -3.185  -2.780   2.423  1.00  0.00    -0.233 N 
ATOM     33  H62 UNL     1      -4.034  -2.547   2.938  1.00  0.00     0.174 HD
ATOM     34  H61 UNL     1      -2.621  -3.595   2.665  1.00  0.00     0.174 HD
ENDBRANCH   9  32
TORSDOF 6
