REMARK  6 active torsions:
REMARK  status: ('A' for Active; 'I' for Inactive)
REMARK    1  A    between atoms: C2_2  and  N1_3 
REMARK       I    between atoms: N1_3  and  C3_5 
REMARK    2  A    between atoms: C3_5  and  C4_7 
REMARK    3  A    between atoms: C4_7  and  S1_8 
REMARK    4  A    between atoms: S1_8  and  C5_9 
REMARK    5  A    between atoms: C8_13  and  C9_14 
REMARK       I    between atoms: C9_14  and  N2_16 
REMARK    6  A    between atoms: N2_16  and  C10_18 
ROOT
HETATM    1  C5  UNL     1       1.407   0.703  -0.862  1.00  0.00     0.058 A 
HETATM    2  S2  UNL     1       2.552   1.963  -0.600  1.00  0.00    -0.086 SA
HETATM    3  C6  UNL     1       1.516   3.140   0.015  1.00  0.00    -0.009 A 
HETATM    4  C7  UNL     1       0.288   2.546   0.011  1.00  0.00    -0.027 A 
HETATM    5  C8  UNL     1       0.227   1.258  -0.454  1.00  0.00     0.063 A 
HETATM    6  C17 UNL     1      -0.924   3.305   0.540  1.00  0.00     0.041 C 
HETATM    7  C18 UNL     1      -1.176   4.515  -0.294  1.00  0.00     0.005 C 
HETATM    8  C19 UNL     1      -0.283   5.649   0.220  1.00  0.00     0.001 C 
HETATM    9  C20 UNL     1       1.123   5.523  -0.342  1.00  0.00     0.005 C 
HETATM   10  C21 UNL     1       1.918   4.532   0.458  1.00  0.00     0.046 C 
ENDROOT
BRANCH   5  11
HETATM   11  C9  UNL     1      -1.070   0.511  -0.510  1.00  0.00     0.254 C 
HETATM   12  O2  UNL     1      -2.118   1.115  -0.957  1.00  0.00    -0.268 OA
HETATM   13  N2  UNL     1      -1.203  -0.814  -0.095  1.00  0.00    -0.352 N 
ATOM     14  H2  UNL     1      -0.392  -1.312   0.272  1.00  0.00     0.163 HD
BRANCH  13  15
HETATM   15  C10 UNL     1      -2.497  -1.497  -0.181  1.00  0.00     0.084 C 
HETATM   16  C11 UNL     1      -2.394  -2.928  -0.537  1.00  0.00     0.025 C 
HETATM   17  C12 UNL     1      -3.395  -3.807   0.191  1.00  0.00     0.002 C 
HETATM   18  C13 UNL     1      -4.801  -3.407  -0.119  1.00  0.00     0.000 C 
HETATM   19  C14 UNL     1      -5.318  -2.547   1.021  1.00  0.00     0.000 C 
HETATM   20  C15 UNL     1      -4.736  -1.156   0.870  1.00  0.00     0.002 C 
HETATM   21  C16 UNL     1      -3.235  -1.270   1.137  1.00  0.00     0.025 C 
ENDBRANCH  13  15
ENDBRANCH   5  11
BRANCH   1  22
HETATM   22  S1  UNL     1       1.740  -0.917  -1.609  1.00  0.00    -0.112 SA
BRANCH  22  23
HETATM   23  C4  UNL     1       2.429  -1.978  -0.321  1.00  0.00     0.182 C 
BRANCH  23  24
HETATM   24  C3  UNL     1       3.807  -1.577   0.090  1.00  0.00     0.227 C 
HETATM   25  N1  UNL     1       4.945  -2.304  -0.312  1.00  0.00    -0.361 N 
ATOM     26  H1  UNL     1       4.840  -3.131  -0.899  1.00  0.00     0.162 HD
HETATM   27  O1  UNL     1       3.956  -0.569   0.811  1.00  0.00    -0.273 OA
BRANCH  25  28
HETATM   28  C2  UNL     1       6.254  -1.881   0.105  1.00  0.00     0.118 C 
HETATM   29  C1  UNL     1       7.296  -2.854  -0.432  1.00  0.00     0.026 C 
ENDBRANCH  25  28
ENDBRANCH  23  24
ENDBRANCH  22  23
ENDBRANCH   1  22
TORSDOF 6
