REMARK  7 active torsions:
REMARK  status: ('A' for Active; 'I' for Inactive)
REMARK    1  A    between atoms: C4_4  and  C5_5 
REMARK    2  A    between atoms: C5_5  and  O2_7 
REMARK    3  A    between atoms: O2_7  and  C6_8 
REMARK    4  A    between atoms: C6_8  and  C7_9 
REMARK    5  A    between atoms: C16_20  and  O5_21 
REMARK    6  A    between atoms: C22_28  and  O6_29 
REMARK    7  A    between atoms: C26_35  and  O7_37 
ROOT
HETATM    1  C7  UNL     1       2.696  -1.829  -0.693  1.00  0.00     0.155 C 
HETATM    2  C8  UNL     1       1.903  -0.551  -0.492  1.00  0.00     0.106 C 
HETATM    3  C9  UNL     1       0.704  -1.512  -0.443  1.00  0.00     0.207 C 
HETATM    4  O3  UNL     1       1.459  -2.375  -1.163  1.00  0.00    -0.344 OA
HETATM    5  O4  UNL     1      -0.449  -1.016  -1.021  1.00  0.00    -0.334 OA
HETATM    6  C10 UNL     1      -1.512  -1.218  -0.094  1.00  0.00     0.133 C 
HETATM    7  C11 UNL     1      -2.607  -0.239  -0.254  1.00  0.00     0.031 C 
HETATM    8  C12 UNL     1      -2.134   0.811  -1.275  1.00  0.00     0.009 C 
HETATM    9  C13 UNL     1      -3.382   1.504  -1.705  1.00  0.00     0.012 C 
HETATM   10  C14 UNL     1      -4.083   2.153  -0.588  1.00  0.00    -0.014 C 
HETATM   11  C15 UNL     1      -5.558   2.384  -0.930  1.00  0.00     0.018 C 
HETATM   12  C16 UNL     1      -3.448   3.514  -0.272  1.00  0.00     0.127 C 
HETATM   13  C17 UNL     1      -2.942   2.874   1.018  1.00  0.00     0.038 C 
HETATM   14  C18 UNL     1      -3.827   1.696   0.776  1.00  0.00     0.003 C 
HETATM   15  C19 UNL     1      -3.230   0.332   0.945  1.00  0.00    -0.002 C 
HETATM   16  C20 UNL     1      -2.414   0.362   2.210  1.00  0.00     0.009 C 
HETATM   17  C21 UNL     1      -1.535  -0.889   2.379  1.00  0.00     0.045 C 
HETATM   18  C22 UNL     1      -0.760  -0.922   1.161  1.00  0.00     0.133 C 
HETATM   19  C23 UNL     1       0.405  -1.844   1.007  1.00  0.00     0.193 C 
HETATM   20  F1  UNL     1       1.388  -1.437   1.868  1.00  0.00    -0.234 F 
HETATM   21  C24 UNL     1       0.005  -3.274   1.159  1.00  0.00     0.055 C 
HETATM   22  C25 UNL     1      -0.913  -3.660   0.047  1.00  0.00     0.044 C 
HETATM   23  C26 UNL     1      -1.935  -2.619  -0.320  1.00  0.00     0.089 C 
HETATM   24  C27 UNL     1      -3.247  -3.056   0.258  1.00  0.00     0.049 C 
ENDROOT
BRANCH   1  25
HETATM   25  C6  UNL     1       3.709  -1.697  -1.781  1.00  0.00     0.211 C 
BRANCH  25  26
HETATM   26  O2  UNL     1       4.962  -1.281  -1.500  1.00  0.00    -0.316 OA
BRANCH  26  27
HETATM   27  C5  UNL     1       5.388  -0.099  -1.001  1.00  0.00     0.283 C 
HETATM   28  O1  UNL     1       4.574   0.803  -0.735  1.00  0.00    -0.260 OA
BRANCH  27  29
HETATM   29  C4  UNL     1       6.799   0.211  -0.738  1.00  0.00     0.084 C 
HETATM   30  C2  UNL     1       7.219   1.349  -0.256  1.00  0.00    -0.082 C 
HETATM   31  C1  UNL     1       8.713   1.474  -0.057  1.00  0.00     0.043 C 
HETATM   32  C3  UNL     1       6.398   2.504   0.107  1.00  0.00     0.043 C 
ENDBRANCH  27  29
ENDBRANCH  26  27
ENDBRANCH  25  26
ENDBRANCH   1  25
BRANCH  18  33
HETATM   33  O6  UNL     1      -0.212   0.378   0.975  1.00  0.00    -0.383 OA
ATOM     34  H6  UNL     1       0.267   0.566   1.774  1.00  0.00     0.210 HD
ENDBRANCH  18  33
BRANCH  23  35
HETATM   35  O7  UNL     1      -2.103  -2.735  -1.730  1.00  0.00    -0.387 OA
ATOM     36  H7  UNL     1      -2.374  -3.634  -1.875  1.00  0.00     0.210 HD
ENDBRANCH  23  35
BRANCH  12  37
HETATM   37  O5  UNL     1      -4.357   4.539  -0.093  1.00  0.00    -0.395 OA
ATOM     38  H5  UNL     1      -3.964   5.381   0.103  1.00  0.00     0.210 HD
ENDBRANCH  12  37
TORSDOF 7
