REMARK  2 active torsions:
REMARK  status: ('A' for Active; 'I' for Inactive)
REMARK    1  A    between atoms: C5_7  and  C6_8 
REMARK       I    between atoms: C6_8  and  N3_10 
REMARK    2  A    between atoms: N3_10  and  C7_12 
ROOT
HETATM    1  N1  UNL     1       5.292  -0.261  -3.259  1.00  0.00    -0.172 NA
HETATM    2  C1  UNL     1       4.901   0.023  -2.193  1.00  0.00     0.179 C 
HETATM    3  N2  UNL     1       4.437   0.339  -0.928  1.00  0.00    -0.319 N 
HETATM    4  C2  UNL     1       5.345   0.381   0.182  1.00  0.00     0.134 C 
HETATM    5  C3  UNL     1       4.793  -0.565   1.255  1.00  0.00     0.021 C 
HETATM    6  C4  UNL     1       3.376  -0.143   1.573  1.00  0.00     0.017 C 
HETATM    7  C5  UNL     1       2.548  -0.330   0.344  1.00  0.00     0.096 C 
HETATM    8  C17 UNL     1       3.047   0.627  -0.711  1.00  0.00     0.148 C 
ENDROOT
BRANCH   7   9
HETATM    9  C6  UNL     1       1.085  -0.175   0.595  1.00  0.00     0.224 C 
HETATM   10  O1  UNL     1       0.772   0.086   1.788  1.00  0.00    -0.273 OA
HETATM   11  N3  UNL     1       0.126  -0.314  -0.440  1.00  0.00    -0.351 N 
ATOM     12  H3  UNL     1       0.473  -0.527  -1.375  1.00  0.00     0.163 HD
BRANCH  11  13
HETATM   13  C7  UNL     1      -1.288  -0.180  -0.280  1.00  0.00     0.034 C 
HETATM   14  C8  UNL     1      -1.622   1.209   0.210  1.00  0.00     0.035 C 
HETATM   15  C9  UNL     1      -3.122   1.402   0.260  1.00  0.00    -0.012 C 
HETATM   16  C10 UNL     1      -3.662   0.422   1.273  1.00  0.00     0.009 C 
HETATM   17  C14 UNL     1      -3.699   1.205  -1.107  1.00  0.00     0.009 C 
HETATM   18  C11 UNL     1      -3.351  -0.974   0.768  1.00  0.00    -0.012 C 
HETATM   19  C12 UNL     1      -4.039  -1.177  -0.557  1.00  0.00     0.009 C 
HETATM   20  C16 UNL     1      -1.864  -1.194   0.690  1.00  0.00     0.035 C 
HETATM   21  C13 UNL     1      -3.457  -0.220  -1.556  1.00  0.00    -0.012 C 
HETATM   22  C15 UNL     1      -1.973  -0.444  -1.613  1.00  0.00     0.035 C 
ENDBRANCH  11  13
ENDBRANCH   7   9
TORSDOF 2
