REMARK  4 active torsions:
REMARK  status: ('A' for Active; 'I' for Inactive)
REMARK    1  A    between atoms: N1_2  and  C2_4 
REMARK    2  A    between atoms: C2_4  and  C5_7 
REMARK    3  A    between atoms: C6_8  and  C7_9 
REMARK    4  A    between atoms: N2_14  and  C12_15 
ROOT
HETATM    1  C7  UNL     1       1.311  -0.977   0.648  1.00  0.00     0.204 C 
HETATM    2  C8  UNL     1       0.435  -0.821  -0.570  1.00  0.00     0.083 C 
HETATM    3  C9  UNL     1      -0.373  -0.024   0.403  1.00  0.00     0.071 C 
HETATM    4  C10 UNL     1      -1.442  -0.788   1.117  1.00  0.00     0.082 C 
HETATM    5  C11 UNL     1      -2.755  -0.804   0.338  1.00  0.00     0.061 C 
HETATM    6  N2  UNL     1      -3.075   0.475  -0.134  1.00  0.00    -0.389 N 
HETATM    7  C17 UNL     1      -2.087   1.060  -0.979  1.00  0.00     0.125 C 
HETATM    8  C18 UNL     1      -0.862   1.315  -0.110  1.00  0.00     0.058 C 
HETATM    9  O1  UNL     1       0.746   0.143   1.200  1.00  0.00    -0.362 OA
ENDROOT
BRANCH   1  10
HETATM   10  C6  UNL     1       2.744  -0.714   0.373  1.00  0.00    -0.072 C 
HETATM   11  C5  UNL     1       3.904  -0.502   0.125  1.00  0.00    -0.073 C 
BRANCH  11  12
HETATM   12  C2  UNL     1       5.332  -0.258  -0.201  1.00  0.00     0.082 C 
HETATM   13  C3  UNL     1       6.150  -1.501  -0.022  1.00  0.00     0.052 C 
HETATM   14  C4  UNL     1       5.366   0.165  -1.649  1.00  0.00     0.052 C 
BRANCH  12  15
HETATM   15  N1  UNL     1       5.800   0.754   0.690  1.00  0.00    -0.408 N 
HETATM   16  C1  UNL     1       7.149   1.175   0.481  1.00  0.00     0.141 C 
ATOM     17  H1  UNL     1       5.213   1.149   1.424  1.00  0.00     0.154 HD
ENDBRANCH  12  15
ENDBRANCH  11  12
ENDBRANCH   1  10
BRANCH   6  18
HETATM   18  C12 UNL     1      -4.399   0.903  -0.247  1.00  0.00     0.083 C 
HETATM   19  C13 UNL     1      -5.258   0.101  -1.195  1.00  0.00     0.025 C 
HETATM   20  C14 UNL     1      -6.204  -0.700  -0.316  1.00  0.00     0.002 C 
HETATM   21  C15 UNL     1      -6.520   0.312   0.763  1.00  0.00     0.002 C 
HETATM   22  C16 UNL     1      -5.164   0.928   1.039  1.00  0.00     0.025 C 
ENDBRANCH   6  18
TORSDOF 4
