REMARK  7 active torsions:
REMARK  status: ('A' for Active; 'I' for Inactive)
REMARK    1  A    between atoms: C2_2  and  C4_4 
REMARK    2  A    between atoms: C2_2  and  C6_12 
REMARK       I    between atoms: C4_4  and  N1_6 
REMARK    3  A    between atoms: N1_6  and  S1_8 
REMARK    4  A    between atoms: C17_23  and  O4_24 
REMARK    5  A    between atoms: C20_28  and  C21_29 
REMARK    6  A    between atoms: N2_30  and  N3_32 
REMARK       I    between atoms: N3_32  and  C22_34 
REMARK    7  A    between atoms: C22_34  and  C23_36 
ROOT
HETATM    1  C6  UNL     1       1.720  -0.076  -0.655  1.00  0.00     0.011 C 
HETATM    2  C7  UNL     1       1.449   1.369  -0.224  1.00  0.00     0.007 C 
HETATM    3  C8  UNL     1      -0.000   1.309   0.134  1.00  0.00     0.011 C 
HETATM    4  C9  UNL     1      -0.632   0.215  -0.700  1.00  0.00    -0.024 C 
HETATM    5  C10 UNL     1      -1.356   0.955  -1.827  1.00  0.00     0.017 C 
HETATM    6  C11 UNL     1       0.493  -0.654  -1.200  1.00  0.00    -0.031 C 
HETATM    7  C12 UNL     1       0.397  -0.745  -2.688  1.00  0.00     0.016 C 
HETATM    8  C13 UNL     1       0.359  -2.107  -0.718  1.00  0.00     0.011 C 
HETATM    9  C14 UNL     1      -0.068  -2.262   0.691  1.00  0.00     0.007 C 
HETATM   10  C15 UNL     1      -1.079  -1.325   1.208  1.00  0.00     0.002 C 
HETATM   11  C16 UNL     1      -2.178  -1.914   2.053  1.00  0.00     0.037 C 
HETATM   12  C17 UNL     1      -3.181  -2.718   1.296  1.00  0.00     0.118 C 
HETATM   13  C18 UNL     1      -3.143  -2.552  -0.168  1.00  0.00     0.033 C 
HETATM   14  C19 UNL     1      -2.704  -1.238  -0.710  1.00  0.00     0.018 C 
HETATM   15  C20 UNL     1      -1.698  -0.476   0.098  1.00  0.00     0.005 C 
ENDROOT
BRANCH   1  16
HETATM   16  C2  UNL     1       3.000  -0.029  -1.389  1.00  0.00     0.039 C 
HETATM   17  C1  UNL     1       3.027   0.838  -2.602  1.00  0.00     0.025 C 
HETATM   18  C3  UNL     1       3.703  -1.307  -1.679  1.00  0.00     0.025 C 
BRANCH  16  19
HETATM   19  C4  UNL     1       3.934   0.653  -0.393  1.00  0.00     0.239 C 
HETATM   20  O1  UNL     1       4.499   1.741  -0.654  1.00  0.00    -0.272 OA
HETATM   21  N1  UNL     1       4.189   0.065   0.868  1.00  0.00    -0.254 N 
ATOM     22  H1  UNL     1       3.743  -0.820   1.111  1.00  0.00     0.181 HD
BRANCH  21  23
HETATM   23  S1  UNL     1       5.245   0.827   1.999  1.00  0.00     0.229 S 
HETATM   24  C5  UNL     1       4.498   2.375   2.525  1.00  0.00     0.186 C 
HETATM   25  O2  UNL     1       6.554   1.199   1.333  1.00  0.00    -0.206 OA
HETATM   26  O3  UNL     1       5.567  -0.052   3.153  1.00  0.00    -0.206 OA
ENDBRANCH  21  23
ENDBRANCH  16  19
ENDBRANCH   1  16
BRANCH  15  27
HETATM   27  C21 UNL     1      -2.465   0.585   0.841  1.00  0.00     0.091 C 
HETATM   28  N2  UNL     1      -3.708   0.814   0.602  1.00  0.00    -0.312 N 
ATOM     29  H2  UNL     1      -4.165   0.250  -0.114  1.00  0.00     0.185 HD
BRANCH  28  30
HETATM   30  N3  UNL     1      -4.468   1.771   1.248  1.00  0.00    -0.265 N 
HETATM   31  C22 UNL     1      -4.642   3.074   0.723  1.00  0.00     0.297 C 
HETATM   32  O5  UNL     1      -4.110   3.420  -0.357  1.00  0.00    -0.263 OA
ATOM     33  H3  UNL     1      -4.918   1.531   2.131  1.00  0.00     0.190 HD
BRANCH  31  34
HETATM   34  C23 UNL     1      -5.455   4.064   1.432  1.00  0.00     0.334 C 
HETATM   35  O6  UNL     1      -6.034   3.779   2.524  1.00  0.00    -0.296 OA
ENDBRANCH  31  34
ENDBRANCH  28  30
ENDBRANCH  15  27
BRANCH  12  36
HETATM   36  O4  UNL     1      -4.502  -2.500   1.759  1.00  0.00    -0.396 OA
ATOM     37  H4  UNL     1      -5.141  -3.012   1.277  1.00  0.00     0.210 HD
ENDBRANCH  12  36
TORSDOF 7
