REMARK  8 active torsions:
REMARK  status: ('A' for Active; 'I' for Inactive)
REMARK    1  A    between atoms: C2_2  and  O1_3 
REMARK    2  A    between atoms: O1_3  and  C3_4 
REMARK    3  A    between atoms: C3_4  and  C4_6 
REMARK    4  A    between atoms: C5_7  and  N1_8 
REMARK    5  A    between atoms: C10_13  and  C11_14 
REMARK       I    between atoms: C11_14  and  N2_16 
REMARK    6  A    between atoms: N2_16  and  C12_18 
REMARK    7  A    between atoms: C20_29  and  C21_30 
REMARK    8  A    between atoms: C21_30  and  C22_32 
ROOT
HETATM    1  N1  UNL     1       0.046   0.424  -0.402  1.00  0.00    -0.374 N 
HETATM    2  C6  UNL     1       0.446   0.994  -1.680  1.00  0.00     0.123 C 
HETATM    3  C7  UNL     1       1.139   2.331  -1.536  1.00  0.00     0.020 C 
HETATM    4  C8  UNL     1       1.303   2.798  -0.133  1.00  0.00     0.002 C 
HETATM    5  C9  UNL     1       2.425   2.209   0.637  1.00  0.00     0.014 C 
HETATM    6  C10 UNL     1       2.914   0.878   0.218  1.00  0.00     0.080 C 
HETATM    7  C18 UNL     1       2.110  -0.287   0.722  1.00  0.00     0.034 C 
HETATM    8  C19 UNL     1       0.643  -0.005   0.822  1.00  0.00     0.124 C 
ENDROOT
BRANCH   1   9
HETATM    9  C5  UNL     1      -1.392   0.239  -0.331  1.00  0.00     0.091 A 
HETATM   10  C4  UNL     1      -2.154  -0.843  -0.706  1.00  0.00     0.098 A 
HETATM   11  C26 UNL     1      -3.479  -0.746  -0.526  1.00  0.00     0.086 A 
HETATM   12  C20 UNL     1      -3.960   0.412   0.011  1.00  0.00     0.079 A 
HETATM   13  N3  UNL     1      -4.437  -1.797  -0.867  1.00  0.00    -0.100 NA
HETATM   14  S1  UNL     1      -2.566   1.343   0.256  1.00  0.00    -0.066 SA
BRANCH  10  15
HETATM   15  C3  UNL     1      -1.501  -2.041  -1.279  1.00  0.00     0.298 C 
HETATM   16  O2  UNL     1      -0.267  -2.080  -1.425  1.00  0.00    -0.259 OA
BRANCH  15  17
HETATM   17  O1  UNL     1      -2.269  -3.116  -1.651  1.00  0.00    -0.318 OA
BRANCH  17  18
HETATM   18  C2  UNL     1      -1.661  -4.265  -2.198  1.00  0.00     0.174 C 
HETATM   19  C1  UNL     1      -2.788  -5.250  -2.495  1.00  0.00     0.034 C 
ENDBRANCH  17  18
ENDBRANCH  15  17
ENDBRANCH  10  15
BRANCH  12  20
HETATM   20  C21 UNL     1      -5.354   0.800   0.320  1.00  0.00     0.175 C 
HETATM   21  O4  UNL     1      -6.280  -0.014   0.075  1.00  0.00    -0.291 OA
BRANCH  20  22
HETATM   22  C22 UNL     1      -5.686   2.099   0.902  1.00  0.00     0.015 C 
HETATM   23  C23 UNL     1      -7.174   2.202   1.101  1.00  0.00     0.023 C 
HETATM   24  C24 UNL     1      -4.995   2.362   2.217  1.00  0.00     0.023 C 
HETATM   25  C25 UNL     1      -5.267   3.175  -0.096  1.00  0.00     0.023 C 
ENDBRANCH  20  22
ENDBRANCH  12  20
ENDBRANCH   1   9
BRANCH   6  26
HETATM   26  C11 UNL     1       4.314   0.701   0.778  1.00  0.00     0.226 C 
HETATM   27  O3  UNL     1       4.753   1.654   1.438  1.00  0.00    -0.273 OA
HETATM   28  N2  UNL     1       5.040  -0.463   0.555  1.00  0.00    -0.324 N 
ATOM     29  H2  UNL     1       4.568  -1.174  -0.004  1.00  0.00     0.169 HD
BRANCH  28  30
HETATM   30  C12 UNL     1       6.343  -0.800   0.995  1.00  0.00     0.073 A 
HETATM   31  C13 UNL     1       7.149   0.007   1.757  1.00  0.00     0.036 A 
HETATM   32  C14 UNL     1       8.419  -0.426   2.136  1.00  0.00     0.044 A 
HETATM   33  C15 UNL     1       8.873  -1.664   1.748  1.00  0.00     0.119 A 
HETATM   34  F1  UNL     1      10.103  -2.079   2.117  1.00  0.00    -0.206 F 
HETATM   35  C16 UNL     1       8.083  -2.494   0.981  1.00  0.00     0.086 A 
HETATM   36  C17 UNL     1       6.834  -2.062   0.612  1.00  0.00     0.145 A 
HETATM   37  F2  UNL     1       6.054  -2.891  -0.149  1.00  0.00    -0.204 F 
ENDBRANCH  28  30
ENDBRANCH   6  26
TORSDOF 8
