REMARK  3 active torsions:
REMARK  status: ('A' for Active; 'I' for Inactive)
REMARK    1  A    between atoms: C12_13  and  C13_14 
REMARK    2  A    between atoms: C13_14  and  C15_16 
REMARK    3  A    between atoms: C16_20  and  O4_21 
ROOT
HETATM    1  C1  UNL     1      -5.390  -0.320   0.432  1.00  0.00     0.010 C 
HETATM    2  C2  UNL     1      -4.073  -0.214   1.220  1.00  0.00    -0.012 C 
HETATM    3  C3  UNL     1      -3.859   1.245   1.489  1.00  0.00     0.005 C 
HETATM    4  C4  UNL     1      -2.371   1.616   1.630  1.00  0.00     0.009 C 
HETATM    5  C5  UNL     1      -1.790   1.277   0.328  1.00  0.00     0.035 C 
HETATM    6  C6  UNL     1      -0.440   1.784  -0.032  1.00  0.00     0.044 C 
HETATM    7  C7  UNL     1      -0.635   3.211  -0.580  1.00  0.00     0.015 C 
HETATM    8  C8  UNL     1       0.345   0.906  -0.947  1.00  0.00     0.269 C 
HETATM    9  O1  UNL     1       1.532   0.475  -0.529  1.00  0.00    -0.317 OA
HETATM   10  C9  UNL     1       1.909  -0.220   0.469  1.00  0.00     0.240 C 
HETATM   11  C10 UNL     1       1.991  -1.664  -0.003  1.00  0.00     0.045 C 
HETATM   12  C11 UNL     1       3.175  -2.155   0.250  1.00  0.00     0.007 C 
HETATM   13  C12 UNL     1       3.940  -1.066   0.901  1.00  0.00     0.160 C 
HETATM   14  O3  UNL     1       3.268   0.097   0.739  1.00  0.00    -0.338 OA
HETATM   15  C16 UNL     1       1.228  -0.277   1.783  1.00  0.00     0.361 C 
HETATM   16  O5  UNL     1      -0.156  -0.325   1.733  1.00  0.00    -0.201 OA
HETATM   17  O6  UNL     1      -0.644  -0.836   0.684  1.00  0.00    -0.223 OA
HETATM   18  C17 UNL     1      -1.787  -0.202   0.155  1.00  0.00     0.135 C 
HETATM   19  C18 UNL     1      -2.966  -0.952   0.588  1.00  0.00     0.031 C 
HETATM   20  C19 UNL     1      -3.348  -1.725  -0.684  1.00  0.00     0.011 C 
HETATM   21  C20 UNL     1      -2.004  -1.839  -1.436  1.00  0.00     0.041 C 
HETATM   22  C21 UNL     1      -1.581  -0.373  -1.342  1.00  0.00     0.095 C 
HETATM   23  C22 UNL     1      -2.486   0.385  -2.234  1.00  0.00     0.049 C 
HETATM   24  O7  UNL     1      -0.306  -0.104  -1.603  1.00  0.00    -0.347 OA
ENDROOT
BRANCH  15  25
HETATM   25  O4  UNL     1       1.616  -1.392   2.535  1.00  0.00    -0.364 OA
ATOM     26  H4  UNL     1       1.179  -1.429   3.378  1.00  0.00     0.213 HD
ENDBRANCH  15  25
BRANCH  13  27
HETATM   27  C13 UNL     1       5.343  -1.080   0.351  1.00  0.00     0.104 C 
HETATM   28  C14 UNL     1       5.387  -0.868  -1.140  1.00  0.00     0.022 C 
BRANCH  27  29
HETATM   29  C15 UNL     1       6.201  -0.051   0.977  1.00  0.00     0.237 C 
HETATM   30  N1  UNL     1       5.912   1.339   0.914  1.00  0.00    -0.062 NA
HETATM   31  O2  UNL     1       7.236  -0.388   1.598  1.00  0.00    -0.276 OA
ENDBRANCH  27  29
ENDBRANCH  13  27
TORSDOF 3
