REMARK  5 active torsions:
REMARK  status: ('A' for Active; 'I' for Inactive)
REMARK    1  A    between atoms: O1_1  and  C1_3 
REMARK    2  A    between atoms: N1_8  and  C4_9 
REMARK    3  A    between atoms: C4_9  and  N2_10 
REMARK    4  A    between atoms: N3_13  and  C7_14 
REMARK    5  A    between atoms: C12_21  and  C13_22 
ROOT
HETATM    1  N2  UNL     1       2.310  -0.600  -0.315  1.00  0.00    -0.373 N 
HETATM    2  C5  UNL     1       2.068   0.612  -0.937  1.00  0.00     0.143 C 
HETATM    3  C6  UNL     1       0.570   0.673  -1.423  1.00  0.00     0.143 C 
HETATM    4  N3  UNL     1      -0.214   0.667  -0.235  1.00  0.00    -0.377 N 
HETATM    5  C18 UNL     1       0.173  -0.299   0.781  1.00  0.00     0.143 C 
HETATM    6  C19 UNL     1       1.097  -1.284   0.075  1.00  0.00     0.143 C 
ENDROOT
BRANCH   4   7
HETATM    7  C7  UNL     1      -1.263   1.548   0.002  1.00  0.00     0.044 A 
HETATM    8  C8  UNL     1      -0.897   2.880   0.161  1.00  0.00     0.054 A 
HETATM    9  C9  UNL     1      -1.804   3.838   0.538  1.00  0.00     0.037 A 
HETATM   10 CL1  UNL     1      -1.337   5.498   0.723  1.00  0.00    -0.084 Cl
HETATM   11  C10 UNL     1      -3.083   3.453   0.758  1.00  0.00     0.048 A 
HETATM   12  C11 UNL     1      -3.432   2.109   0.590  1.00  0.00     0.048 A 
HETATM   13 CL2  UNL     1      -5.170   1.811   0.823  1.00  0.00    -0.083 Cl
HETATM   14  C12 UNL     1      -2.547   1.114   0.210  1.00  0.00     0.015 A 
BRANCH  14  15
HETATM   15  C13 UNL     1      -3.050  -0.192  -0.100  1.00  0.00    -0.066 C 
HETATM   16  C14 UNL     1      -3.865  -0.964   0.878  1.00  0.00     0.035 C 
HETATM   17  C15 UNL     1      -4.486  -2.056   0.034  1.00  0.00     0.005 C 
HETATM   18  C16 UNL     1      -3.798  -2.021  -1.313  1.00  0.00     0.005 C 
HETATM   19  C17 UNL     1      -2.548  -1.118  -1.104  1.00  0.00     0.035 C 
ENDBRANCH  14  15
ENDBRANCH   4   7
BRANCH   1  20
HETATM   20  C4  UNL     1       3.308  -0.894   0.599  1.00  0.00     0.190 C 
BRANCH  20  21
HETATM   21  N1  UNL     1       4.698  -1.028   0.123  1.00  0.00    -0.273 N 
HETATM   22  C1  UNL     1       5.618  -0.088   0.167  1.00  0.00     0.155 A 
HETATM   23  C2  UNL     1       6.861  -0.368  -0.308  1.00  0.00     0.109 A 
HETATM   24  S1  UNL     1       6.701  -1.986  -0.818  1.00  0.00    -0.068 SA
HETATM   25  C3  UNL     1       5.073  -2.222  -0.401  1.00  0.00     0.152 A 
HETATM   26  S2  UNL     1       4.124  -3.570  -0.576  1.00  0.00    -0.052 SA
BRANCH  22  27
HETATM   27  O1  UNL     1       5.358   1.220   0.694  1.00  0.00    -0.345 OA
ATOM     28  H1  UNL     1       4.490   1.416   1.026  1.00  0.00     0.219 HD
ENDBRANCH  22  27
ENDBRANCH  20  21
ENDBRANCH   1  20
TORSDOF 5
