REMARK  12 active torsions:
REMARK  status: ('A' for Active; 'I' for Inactive)
REMARK    1  A    between atoms: C2_2  and  C4_4 
REMARK    2  A    between atoms: C4_4  and  N1_5 
REMARK    3  A    between atoms: C4_4  and  C13_27 
REMARK       I    between atoms: N1_5  and  C5_7 
REMARK    4  A    between atoms: C5_7  and  C6_9 
REMARK    5  A    between atoms: C6_9  and  C7_10 
REMARK    6  A    between atoms: C6_9  and  N6_20 
REMARK    7  A    between atoms: C7_10  and  C8_11 
REMARK       I    between atoms: C13_27  and  N7_29 
REMARK    8  A    between atoms: N7_29  and  C14_31 
REMARK    9  A    between atoms: C14_31  and  C15_32 
REMARK   10  A    between atoms: C15_32  and  C16_33 
REMARK   11  A    between atoms: C15_32  and  C23_40 
REMARK   12  A    between atoms: C16_33  and  C17_34 
REMARK       I    between atoms: C23_40  and  N8_42 
ROOT
HETATM    1  C4  UNL     1       1.988  -1.229  -1.090  1.00  0.00     0.180 C 
ENDROOT
BRANCH   1   2
HETATM    2  C2  UNL     1       2.306  -2.673  -0.799  1.00  0.00     0.009 C 
HETATM    3  C1  UNL     1       2.115  -2.931   0.659  1.00  0.00     0.012 C 
HETATM    4  C3  UNL     1       3.756  -2.884  -1.159  1.00  0.00     0.012 C 
ENDBRANCH   1   2
BRANCH   1   5
HETATM    5  N1  UNL     1       2.871  -0.405  -0.316  1.00  0.00    -0.346 N 
HETATM    6  C5  UNL     1       3.743   0.606  -0.822  1.00  0.00     0.241 C 
HETATM    7  O1  UNL     1       3.709   0.776  -2.056  1.00  0.00    -0.271 OA
ATOM      8  H1  UNL     1       2.876  -0.556   0.693  1.00  0.00     0.163 HD
BRANCH   6   9
HETATM    9  C6  UNL     1       4.613   1.373   0.131  1.00  0.00     0.182 C 
BRANCH   9  10
HETATM   10  C7  UNL     1       5.428   0.384   0.919  1.00  0.00     0.114 C 
BRANCH  10  11
HETATM   11  C8  UNL     1       6.323   0.997   1.924  1.00  0.00     0.115 A 
HETATM   12  N2  UNL     1       7.587   1.397   1.779  1.00  0.00    -0.272 N 
HETATM   13  N3  UNL     1       8.000   1.869   2.929  1.00  0.00    -0.227 N 
ATOM     14  H2  UNL     1       8.137   1.344   0.921  1.00  0.00     0.190 HD
HETATM   15  N4  UNL     1       7.034   1.785   3.819  1.00  0.00    -0.227 N 
ATOM     16  H3  UNL     1       8.931   2.245   3.108  1.00  0.00     0.210 HD
HETATM   17  N5  UNL     1       5.995   1.249   3.210  1.00  0.00    -0.272 N 
ATOM     18  H4  UNL     1       7.080   2.079   4.795  1.00  0.00     0.210 HD
ATOM     19  H5  UNL     1       5.090   1.056   3.640  1.00  0.00     0.190 HD
ENDBRANCH  10  11
ENDBRANCH   9  10
BRANCH   9  20
HETATM   20  N6  UNL     1       5.268   2.420  -0.483  1.00  0.00    -0.374 N 
HETATM   21  C9  UNL     1       4.446   3.484  -0.992  1.00  0.00     0.129 C 
HETATM   22  C10 UNL     1       5.486   4.515  -1.469  1.00  0.00     0.105 C 
HETATM   23  C11 UNL     1       6.569   3.644  -2.011  1.00  0.00     0.276 C 
HETATM   24  F1  UNL     1       6.501   3.659  -3.389  1.00  0.00    -0.200 F 
HETATM   25  F2  UNL     1       7.846   4.065  -1.674  1.00  0.00    -0.200 F 
HETATM   26  C12 UNL     1       6.284   2.256  -1.437  1.00  0.00     0.137 C 
ENDBRANCH   9  20
ENDBRANCH   6   9
ENDBRANCH   1   5
BRANCH   1  27
HETATM   27  C13 UNL     1       0.550  -0.888  -0.763  1.00  0.00     0.241 C 
HETATM   28  O2  UNL     1       0.339   0.111  -0.056  1.00  0.00    -0.271 OA
HETATM   29  N7  UNL     1      -0.514  -1.673  -1.240  1.00  0.00    -0.355 N 
ATOM     30  H7  UNL     1      -0.239  -2.471  -1.813  1.00  0.00     0.162 HD
BRANCH  29  31
HETATM   31  C14 UNL     1      -1.911  -1.525  -1.046  1.00  0.00     0.162 C 
BRANCH  31  32
HETATM   32  C15 UNL     1      -2.487  -1.597   0.304  1.00  0.00     0.006 C 
BRANCH  32  33
HETATM   33  C16 UNL     1      -2.235  -2.867   1.060  1.00  0.00     0.046 C 
BRANCH  33  34
HETATM   34  C17 UNL     1      -2.728  -4.144   0.538  1.00  0.00    -0.010 C 
HETATM   35  C18 UNL     1      -4.226  -4.234   0.321  1.00  0.00     0.005 C 
HETATM   36  C19 UNL     1      -4.542  -5.736   0.372  1.00  0.00     0.000 C 
HETATM   37  C20 UNL     1      -3.781  -6.478  -0.692  1.00  0.00     0.000 C 
HETATM   38  C21 UNL     1      -2.284  -6.304  -0.467  1.00  0.00     0.000 C 
HETATM   39  C22 UNL     1      -2.040  -4.776  -0.629  1.00  0.00     0.005 C 
ENDBRANCH  33  34
ENDBRANCH  32  33
BRANCH  32  40
HETATM   40  C23 UNL     1      -2.403  -0.432   1.197  1.00  0.00     0.247 C 
HETATM   41  O3  UNL     1      -1.742  -0.567   2.286  1.00  0.00    -0.268 OA
HETATM   42  N8  UNL     1      -2.995   0.796   0.933  1.00  0.00    -0.348 N 
HETATM   43  C24 UNL     1      -2.821   1.910   1.883  1.00  0.00     0.127 C 
HETATM   44  C32 UNL     1      -3.810   1.058  -0.209  1.00  0.00     0.127 C 
HETATM   45  C25 UNL     1      -2.908   3.188   1.092  1.00  0.00     0.029 C 
HETATM   46  C26 UNL     1      -4.288   3.381   0.566  1.00  0.00    -0.037 C 
HETATM   47  C27 UNL     1      -4.225   4.373  -0.572  1.00  0.00     0.010 C 
HETATM   48  C30 UNL     1      -5.250   4.025   1.523  1.00  0.00     0.010 C 
HETATM   49  C31 UNL     1      -4.910   2.069   0.117  1.00  0.00     0.029 C 
HETATM   50  C28 UNL     1      -4.180   5.701   0.149  1.00  0.00     0.001 C 
HETATM   51  C29 UNL     1      -5.041   5.496   1.368  1.00  0.00     0.001 C 
ENDBRANCH  32  40
ENDBRANCH  31  32
ENDBRANCH  29  31
ENDBRANCH   1  27
TORSDOF 12
