REMARK  2 active torsions:
REMARK  status: ('A' for Active; 'I' for Inactive)
REMARK    1  A    between atoms: C6_6  and  C7_7 
REMARK    2  A    between atoms: C7_7  and  C8_8 
ROOT
HETATM    1  C8  UNL     1      -0.367  -1.490   1.590  1.00  0.00    -0.025 A 
HETATM    2  C9  UNL     1      -0.579  -2.861   1.692  1.00  0.00     0.098 A 
HETATM    3  N1  UNL     1      -1.747  -3.173   1.104  1.00  0.00    -0.351 N 
ATOM      4  H1  UNL     1      -2.135  -4.114   1.042  1.00  0.00     0.166 HD
HETATM    5  C10 UNL     1      -2.334  -2.059   0.606  1.00  0.00     0.116 A 
HETATM    6  N2  UNL     1      -3.490  -1.841  -0.057  1.00  0.00    -0.341 N 
ATOM      7  H2  UNL     1      -4.094  -2.637  -0.262  1.00  0.00     0.167 HD
HETATM    8  C11 UNL     1      -3.878  -0.616  -0.458  1.00  0.00     0.044 A 
HETATM    9  C12 UNL     1      -5.073  -0.414  -1.139  1.00  0.00     0.030 A 
HETATM   10  C13 UNL     1      -5.478   0.839  -1.553  1.00  0.00     0.002 A 
HETATM   11  C14 UNL     1      -4.646   1.908  -1.268  1.00  0.00     0.001 A 
HETATM   12  C15 UNL     1      -3.465   1.699  -0.594  1.00  0.00     0.014 A 
HETATM   13  C16 UNL     1      -3.053   0.450  -0.176  1.00  0.00    -0.009 A 
HETATM   14  C17 UNL     1      -1.863   0.237   0.504  1.00  0.00     0.029 A 
HETATM   15  C18 UNL     1      -1.472  -1.022   0.912  1.00  0.00     0.017 A 
ENDROOT
BRANCH   1  16
HETATM   16  C7  UNL     1       0.819  -0.761   2.104  1.00  0.00     0.079 C 
BRANCH  16  17
HETATM   17  C6  UNL     1       1.823  -0.431   1.084  1.00  0.00    -0.053 A 
HETATM   18  C5  UNL     1       1.851   0.785   0.460  1.00  0.00     0.019 A 
HETATM   19  C4  UNL     1       2.807   1.095  -0.509  1.00  0.00    -0.025 A 
HETATM   20  C3  UNL     1       2.854   2.316  -1.148  1.00  0.00     0.012 A 
HETATM   21  C21 UNL     1       3.751   0.142  -0.846  1.00  0.00    -0.026 A 
HETATM   22  C2  UNL     1       3.798   2.623  -2.104  1.00  0.00     0.001 A 
HETATM   23  C1  UNL     1       4.725   1.656  -2.420  1.00  0.00     0.001 A 
HETATM   24  C22 UNL     1       4.704   0.430  -1.800  1.00  0.00     0.012 A 
HETATM   25  C20 UNL     1       3.723  -1.070  -0.225  1.00  0.00     0.013 A 
HETATM   26  C19 UNL     1       2.768  -1.367   0.738  1.00  0.00     0.008 A 
ENDBRANCH  16  17
ENDBRANCH   1  16
TORSDOF 2
