REMARK  9 active torsions:
REMARK  status: ('A' for Active; 'I' for Inactive)
REMARK    1  A    between atoms: C2_2  and  O1_4 
REMARK    2  A    between atoms: O1_4  and  C4_5 
REMARK    3  A    between atoms: C6_9  and  N1_10 
REMARK       I    between atoms: N1_10  and  C7_12 
REMARK    4  A    between atoms: C7_12  and  C8_14 
REMARK    5  A    between atoms: C8_14  and  O3_15 
REMARK    6  A    between atoms: C8_14  and  N2_17 
REMARK    7  A    between atoms: N2_17  and  C9_18 
REMARK    8  A    between atoms: C16_26  and  O4_27 
REMARK    9  A    between atoms: O4_27  and  S2_28 
ROOT
HETATM    1  N1  UNL     1      -0.601   0.451  -0.847  1.00  0.00    -0.311 N 
ATOM      2  H1  UNL     1      -0.805   0.742  -1.803  1.00  0.00     0.170 HD
HETATM    3  C7  UNL     1       0.734   0.216  -0.439  1.00  0.00     0.311 C 
HETATM    4  O2  UNL     1       0.975  -0.113   0.728  1.00  0.00    -0.262 OA
ENDROOT
BRANCH   1   5
HETATM    5  C6  UNL     1      -1.663   0.274   0.102  1.00  0.00     0.116 A 
HETATM    6  S1  UNL     1      -1.571  -0.153   1.748  1.00  0.00    -0.054 SA
HETATM    7  C5  UNL     1      -3.239  -0.230   2.101  1.00  0.00     0.113 A 
HETATM    8  C4  UNL     1      -3.834   0.086   0.910  1.00  0.00     0.135 A 
HETATM    9 CL1  UNL     1      -3.987  -0.646   3.659  1.00  0.00    -0.073 Cl
HETATM   10  C16 UNL     1      -3.008   0.350  -0.138  1.00  0.00     0.158 A 
BRANCH   8  11
HETATM   11  O1  UNL     1      -5.266   0.116   0.842  1.00  0.00    -0.342 OA
BRANCH  11  12
HETATM   12  C2  UNL     1      -6.014   1.272   1.080  1.00  0.00     0.121 C 
HETATM   13  C1  UNL     1      -6.829   1.690  -0.136  1.00  0.00     0.040 C 
HETATM   14  C3  UNL     1      -6.913   1.165   2.300  1.00  0.00     0.040 C 
ENDBRANCH  11  12
ENDBRANCH   8  11
BRANCH  10  15
HETATM   15  O4  UNL     1      -3.506   0.690  -1.439  1.00  0.00    -0.227 OA
BRANCH  15  16
HETATM   16  S2  UNL     1      -3.829  -0.509  -2.588  1.00  0.00     0.266 S 
HETATM   17  C17 UNL     1      -5.137  -1.609  -2.082  1.00  0.00     0.194 C 
HETATM   18  O5  UNL     1      -2.619  -1.331  -2.901  1.00  0.00    -0.199 OA
HETATM   19  O6  UNL     1      -4.284   0.102  -3.888  1.00  0.00    -0.199 OA
ENDBRANCH  15  16
ENDBRANCH  10  15
ENDBRANCH   1   5
BRANCH   3  20
HETATM   20  C8  UNL     1       1.833   0.363  -1.455  1.00  0.00     0.279 C 
BRANCH  20  21
HETATM   21  O3  UNL     1       1.389   0.817  -2.590  1.00  0.00    -0.332 OA
ATOM     22  H3  UNL     1       2.083   0.910  -3.232  1.00  0.00     0.220 HD
ENDBRANCH  20  21
BRANCH  20  23
HETATM   23  N2  UNL     1       3.138   0.059  -1.253  1.00  0.00    -0.413 NA
BRANCH  23  24
HETATM   24  C9  UNL     1       4.442  -0.246  -1.050  1.00  0.00     0.198 C 
HETATM   25  C10 UNL     1       5.333   0.984  -0.723  1.00  0.00     0.312 C 
HETATM   26  N3  UNL     1       6.627   0.477  -0.248  1.00  0.00     0.091 N 
HETATM   27  C11 UNL     1       6.432   0.216   1.186  1.00  0.00     0.273 C 
HETATM   28  C15 UNL     1       6.971  -0.780  -0.911  1.00  0.00     0.273 C 
HETATM   29  C12 UNL     1       5.164  -0.586   1.349  1.00  0.00     0.038 C 
HETATM   30  C13 UNL     1       4.802  -1.258   0.024  1.00  0.00     0.026 C 
HETATM   31  C14 UNL     1       6.097  -1.917  -0.468  1.00  0.00     0.038 C 
ENDBRANCH  23  24
ENDBRANCH  20  23
ENDBRANCH   3  20
TORSDOF 9
