REMARK  9 active torsions:
REMARK  status: ('A' for Active; 'I' for Inactive)
REMARK    1  A    between atoms: N1_1  and  C1_4 
REMARK    2  A    between atoms: C1_4  and  N2_5 
REMARK    3  A    between atoms: C1_4  and  C9_33 
REMARK    4  A    between atoms: N2_5  and  C2_7 
REMARK    5  A    between atoms: C4_10  and  N3_11 
REMARK    6  A    between atoms: C4_10  and  N7_25 
REMARK       I    between atoms: N3_11  and  C5_13 
REMARK    7  A    between atoms: C5_13  and  C6_15 
REMARK    8  A    between atoms: C11_35  and  C12_36 
REMARK    9  A    between atoms: C15_41  and  O8_42 
ROOT
HETATM    1  C2  UNL     1      -0.271   0.297  -1.113  1.00  0.00     0.217 A 
HETATM    2  C3  UNL     1      -1.091   0.468  -2.317  1.00  0.00     0.207 A 
HETATM    3  O1  UNL     1      -1.207   0.370  -3.527  1.00  0.00    -0.291 OA
HETATM    4  C4  UNL     1      -1.649   0.842  -0.951  1.00  0.00     0.225 A 
ENDROOT
BRANCH   4   5
HETATM    5  N3  UNL     1      -2.660   0.010  -0.355  1.00  0.00    -0.319 N 
HETATM    6  C5  UNL     1      -3.063  -1.238  -0.869  1.00  0.00     0.276 C 
HETATM    7  O2  UNL     1      -2.473  -1.620  -1.924  1.00  0.00    -0.266 OA
ATOM      8  H3  UNL     1      -3.114   0.345   0.494  1.00  0.00     0.166 HD
BRANCH   6   9
HETATM    9  C6  UNL     1      -4.071  -2.110  -0.313  1.00  0.00     0.169 A 
HETATM   10  N4  UNL     1      -4.414  -3.311  -0.864  1.00  0.00    -0.233 N 
HETATM   11  O3  UNL     1      -5.335  -3.856  -0.150  1.00  0.00    -0.155 OA
ATOM     12  H4  UNL     1      -4.005  -3.712  -1.708  1.00  0.00     0.197 HD
HETATM   13  N5  UNL     1      -5.657  -3.131   0.850  1.00  0.00    -0.224 N 
HETATM   14  C7  UNL     1      -4.881  -2.011   0.787  1.00  0.00     0.155 A 
ATOM     15  H5  UNL     1      -6.358  -3.347   1.558  1.00  0.00     0.198 HD
HETATM   16  N6  UNL     1      -4.894  -1.030   1.606  1.00  0.00    -0.382 N 
ATOM     17  H62 UNL     1      -4.314  -0.192   1.559  1.00  0.00     0.157 HD
ATOM     18  H61 UNL     1      -5.497  -0.956   2.425  1.00  0.00     0.157 HD
ENDBRANCH   6   9
ENDBRANCH   4   5
BRANCH   4  19
HETATM   19  N7  UNL     1      -1.866   2.274  -0.860  1.00  0.00    -0.179 N 
HETATM   20  N8  UNL     1      -1.033   3.283  -0.733  1.00  0.00    -0.173 N 
HETATM   21  O4  UNL     1      -1.705   4.406  -0.694  1.00  0.00    -0.137 OA
ATOM     22  H8  UNL     1      -0.018   3.203  -0.674  1.00  0.00     0.219 HD
HETATM   23  N9  UNL     1      -2.976   4.159  -0.792  1.00  0.00    -0.188 N 
HETATM   24  C8  UNL     1      -3.096   2.828  -0.897  1.00  0.00     0.367 A 
ATOM     25  H9  UNL     1      -3.733   4.842  -0.790  1.00  0.00     0.202 HD
HETATM   26  O5  UNL     1      -4.196   2.225  -1.011  1.00  0.00    -0.243 OA
ENDBRANCH   4  19
BRANCH   1  27
HETATM   27  N2  UNL     1       0.808   1.189  -0.798  1.00  0.00    -0.360 N 
ATOM     28  H2  UNL     1       1.051   1.978  -1.398  1.00  0.00     0.162 HD
BRANCH  27  29
HETATM   29  C1  UNL     1       1.532   0.901   0.424  1.00  0.00     0.108 C 
BRANCH  29  30
HETATM   30  N1  UNL     1       1.004   1.200   1.536  1.00  0.00    -0.385 N 
ATOM     31  H12 UNL     1       0.085   1.637   1.603  1.00  0.00     0.157 HD
ATOM     32  H11 UNL     1       1.514   0.997   2.396  1.00  0.00     0.157 HD
ENDBRANCH  29  30
BRANCH  29  33
HETATM   33  C9  UNL     1       2.850   0.274   0.328  1.00  0.00     0.041 A 
HETATM   34  C10 UNL     1       3.579  -0.020   1.451  1.00  0.00     0.036 A 
HETATM   35  C11 UNL     1       4.838  -0.614   1.433  1.00  0.00     0.041 A 
HETATM   36  C13 UNL     1       5.353  -0.914   0.193  1.00  0.00     0.021 A 
HETATM   37  C14 UNL     1       4.627  -0.622  -0.957  1.00  0.00     0.038 A 
HETATM   38  C15 UNL     1       3.390  -0.037  -0.910  1.00  0.00     0.079 A 
BRANCH  35  39
HETATM   39  C12 UNL     1       5.593  -0.917   2.633  1.00  0.00     0.209 C 
HETATM   40  O6  UNL     1       5.109  -0.637   3.768  1.00  0.00    -0.644 OA
HETATM   41  O7  UNL     1       6.839  -1.506   2.610  1.00  0.00    -0.644 OA
ENDBRANCH  35  39
BRANCH  38  42
HETATM   42  O8  UNL     1       2.665   0.254  -2.057  1.00  0.00    -0.360 OA
ATOM     43  H8  UNL     1       3.035   0.041  -2.906  1.00  0.00     0.217 HD
ENDBRANCH  38  42
ENDBRANCH  29  33
ENDBRANCH  27  29
ENDBRANCH   1  27
TORSDOF 9
