REMARK  17 active torsions:
REMARK  status: ('A' for Active; 'I' for Inactive)
REMARK    1  A    between atoms: C2_2  and  C4_4 
REMARK    2  A    between atoms: C6_6  and  C7_7 
REMARK    3  A    between atoms: C7_7  and  O1_8 
REMARK    4  A    between atoms: C7_7  and  C8_10 
REMARK    5  A    between atoms: C8_10  and  O2_12 
REMARK    6  A    between atoms: C10_15  and  O4_16 
REMARK    7  A    between atoms: C11_18  and  C12_19 
REMARK    8  A    between atoms: C12_19  and  C13_20 
REMARK    9  A    between atoms: C14_21  and  C15_22 
REMARK   10  A    between atoms: C14_21  and  C17_26 
REMARK   11  A    between atoms: C15_22  and  C16_23 
REMARK   12  A    between atoms: C16_23  and  O5_24 
REMARK   13  A    between atoms: C17_26  and  O6_27 
REMARK   14  A    between atoms: C17_26  and  C18_29 
REMARK   15  A    between atoms: C20_32  and  O8_33 
REMARK   16  A    between atoms: C21_35  and  O9_36 
REMARK   17  A    between atoms: C24_40  and  O10_42 
ROOT
HETATM    1  C13 UNL     1       0.114   0.313   0.529  1.00  0.00    -0.018 C 
HETATM    2  C14 UNL     1       1.083   0.884   1.199  1.00  0.00    -0.051 C 
ENDROOT
BRANCH   2   3
HETATM    3  C15 UNL     1       1.196   0.675   2.651  1.00  0.00     0.062 C 
BRANCH   3   4
HETATM    4  C16 UNL     1       1.126   2.030   3.345  1.00  0.00     0.168 C 
BRANCH   4   5
HETATM    5  O5  UNL     1      -0.067   2.691   3.100  1.00  0.00    -0.401 OA
ATOM      6  H5  UNL     1      -0.111   3.536   3.533  1.00  0.00     0.209 HD
ENDBRANCH   4   5
ENDBRANCH   3   4
ENDBRANCH   2   3
BRANCH   2   7
HETATM    7  C17 UNL     1       2.041   1.737   0.438  1.00  0.00     0.176 C 
BRANCH   7   8
HETATM    8  O6  UNL     1       1.525   1.964  -0.819  1.00  0.00    -0.389 OA
ATOM      9  H6  UNL     1       2.135   2.507  -1.304  1.00  0.00     0.210 HD
ENDBRANCH   7   8
BRANCH   7  10
HETATM   10  C18 UNL     1       3.454   1.291   0.455  1.00  0.00     0.164 C 
HETATM   11  O7  UNL     1       3.977   1.068   1.716  1.00  0.00    -0.379 OA
HETATM   12  C19 UNL     1       5.066   0.236   1.571  1.00  0.00     0.209 C 
HETATM   13  C20 UNL     1       4.512  -0.801   0.586  1.00  0.00     0.114 C 
HETATM   14  C21 UNL     1       5.594  -1.607  -0.020  1.00  0.00     0.155 C 
HETATM   15  C26 UNL     1       3.660  -0.009  -0.323  1.00  0.00     0.090 C 
HETATM   16  C22 UNL     1       6.156  -1.067  -1.294  1.00  0.00     0.038 C 
HETATM   17  C23 UNL     1       4.991  -0.919  -2.253  1.00  0.00     0.040 C 
HETATM   18  C24 UNL     1       4.100   0.171  -1.708  1.00  0.00     0.063 C 
HETATM   19  C25 UNL     1       4.822   1.486  -1.988  1.00  0.00     0.046 C 
BRANCH  13  20
HETATM   20  O8  UNL     1       3.742  -1.681   1.384  1.00  0.00    -0.384 OA
ATOM     21  H8  UNL     1       3.399  -2.323   0.774  1.00  0.00     0.210 HD
ENDBRANCH  13  20
BRANCH  14  22
HETATM   22  O9  UNL     1       6.647  -1.785   0.876  1.00  0.00    -0.392 OA
ATOM     23  H9  UNL     1       7.342  -2.303   0.487  1.00  0.00     0.210 HD
ENDBRANCH  14  22
BRANCH  18  24
HETATM   24  O10 UNL     1       2.974   0.191  -2.569  1.00  0.00    -0.390 OA
ATOM     25  H10 UNL     1       2.413   0.877  -2.226  1.00  0.00     0.210 HD
ENDBRANCH  18  24
ENDBRANCH   7  10
ENDBRANCH   2   7
BRANCH   1  26
HETATM   26  C12 UNL     1      -0.965  -0.564   0.979  1.00  0.00     0.071 C 
BRANCH  26  27
HETATM   27  C11 UNL     1      -2.343  -0.104   0.651  1.00  0.00     0.121 C 
HETATM   28  C4  UNL     1      -3.463  -0.940   1.112  1.00  0.00     0.034 C 
HETATM   29  C5  UNL     1      -4.536  -0.758   0.027  1.00  0.00     0.080 C 
HETATM   30  C6  UNL     1      -3.877   0.393  -0.730  1.00  0.00     0.197 C 
HETATM   31  O3  UNL     1      -3.834   1.467   0.115  1.00  0.00    -0.320 OA
HETATM   32  O11 UNL     1      -2.553  -0.110  -0.764  1.00  0.00    -0.336 OA
HETATM   33  C10 UNL     1      -2.652   1.335   0.894  1.00  0.00     0.295 C 
BRANCH  28  34
HETATM   34  C2  UNL     1      -3.233  -2.356   1.443  1.00  0.00    -0.015 C 
HETATM   35  C1  UNL     1      -2.790  -3.254   0.346  1.00  0.00     0.010 C 
HETATM   36  C3  UNL     1      -4.565  -2.918   1.965  1.00  0.00     0.010 C 
ENDBRANCH  28  34
BRANCH  30  37
HETATM   37  C7  UNL     1      -4.424   0.634  -2.079  1.00  0.00     0.209 C 
BRANCH  37  38
HETATM   38  O1  UNL     1      -4.414  -0.524  -2.822  1.00  0.00    -0.388 OA
ATOM     39  H1  UNL     1      -4.766  -0.369  -3.691  1.00  0.00     0.210 HD
ENDBRANCH  37  38
BRANCH  37  40
HETATM   40  C8  UNL     1      -5.750   1.314  -2.062  1.00  0.00     0.148 C 
HETATM   41  C9  UNL     1      -6.185   1.597  -3.501  1.00  0.00     0.042 C 
BRANCH  40  42
HETATM   42  O2  UNL     1      -6.694   0.447  -1.518  1.00  0.00    -0.393 OA
ATOM     43  H2  UNL     1      -7.539   0.880  -1.507  1.00  0.00     0.210 HD
ENDBRANCH  40  42
ENDBRANCH  37  40
ENDBRANCH  30  37
BRANCH  33  44
HETATM   44  O4  UNL     1      -1.758   2.201   0.256  1.00  0.00    -0.368 OA
ATOM     45  H4  UNL     1      -0.968   2.113   0.777  1.00  0.00     0.212 HD
ENDBRANCH  33  44
ENDBRANCH  26  27
ENDBRANCH   1  26
TORSDOF 17
