REMARK  5 active torsions:
REMARK  status: ('A' for Active; 'I' for Inactive)
REMARK    1  A    between atoms: C2_2  and  C3_3 
REMARK    2  A    between atoms: C5_5  and  O1_6 
REMARK    3  A    between atoms: C6_8  and  C7_9 
REMARK    4  A    between atoms: N1_11  and  N2_13 
REMARK    5  A    between atoms: N2_13  and  C9_15 
ROOT
HETATM    1  C7  UNL     1       0.687   1.074  -0.696  1.00  0.00     0.035 C 
HETATM    2  C8  UNL     1       0.590   2.234  -1.603  1.00  0.00     0.070 C 
HETATM    3  N1  UNL     1      -0.404   0.711  -0.068  1.00  0.00    -0.290 N 
ATOM      4  H1  UNL     1      -0.378  -0.086   0.568  1.00  0.00     0.187 HD
ENDROOT
BRANCH   3   5
HETATM    5  N2  UNL     1      -1.581   1.391  -0.257  1.00  0.00    -0.132 N 
ATOM      6  H2  UNL     1      -1.526   2.367  -0.550  1.00  0.00     0.205 HD
BRANCH   5   7
HETATM    7  C9  UNL     1      -2.755   0.875  -0.088  1.00  0.00     0.697 A 
HETATM    8  N3  UNL     1      -2.930  -0.402   0.297  1.00  0.00    -0.194 N 
HETATM    9  C10 UNL     1      -4.160  -0.945   0.474  1.00  0.00     0.024 A 
ATOM     10  H3  UNL     1      -2.108  -0.983   0.462  1.00  0.00     0.184 HD
HETATM   11  C11 UNL     1      -4.294  -2.361   0.900  1.00  0.00     0.068 C 
HETATM   12  C12 UNL     1      -5.288  -0.181   0.259  1.00  0.00     0.050 A 
HETATM   13  C13 UNL     1      -5.109   1.122  -0.133  1.00  0.00     0.024 A 
HETATM   14  C14 UNL     1      -6.321   1.963  -0.371  1.00  0.00     0.068 C 
HETATM   15  N4  UNL     1      -3.874   1.609  -0.294  1.00  0.00    -0.194 N 
ATOM     16  H4  UNL     1      -3.770   2.581  -0.586  1.00  0.00     0.184 HD
ENDBRANCH   5   7
ENDBRANCH   3   5
BRANCH   1  17
HETATM   17  C6  UNL     1       1.927   0.335  -0.478  1.00  0.00     0.022 A 
HETATM   18  C5  UNL     1       3.095   0.677  -1.110  1.00  0.00     0.078 A 
HETATM   19  C4  UNL     1       4.274  -0.031  -0.900  1.00  0.00     0.046 A 
HETATM   20  C3  UNL     1       4.248  -1.085  -0.045  1.00  0.00    -0.034 A 
HETATM   21  C16 UNL     1       3.089  -1.471   0.620  1.00  0.00     0.041 A 
HETATM   22  C15 UNL     1       1.932  -0.738   0.383  1.00  0.00     0.040 A 
HETATM   23 CL1  UNL     1       3.035  -2.821   1.720  1.00  0.00    -0.084 Cl
BRANCH  18  24
HETATM   24  O1  UNL     1       3.164   1.735  -1.981  1.00  0.00    -0.360 OA
ATOM     25  H1  UNL     1       2.359   2.218  -2.124  1.00  0.00     0.217 HD
ENDBRANCH  18  24
BRANCH  20  26
HETATM   26  C2  UNL     1       5.458  -1.895   0.236  1.00  0.00     0.036 C 
HETATM   27  C1  UNL     1       6.060  -1.581   1.579  1.00  0.00     0.010 C 
ENDBRANCH  20  26
ENDBRANCH   1  17
TORSDOF 5
