REMARK  3 active torsions:
REMARK  status: ('A' for Active; 'I' for Inactive)
REMARK    1  A    between atoms: S1_2  and  C2_3 
REMARK    2  A    between atoms: C3_4  and  C4_5 
REMARK    3  A    between atoms: C4_5  and  C5_6 
ROOT
HETATM    1  C2  UNL     1      -0.832  -0.177   0.081  1.00  0.00     0.025 A 
HETATM    2  C3  UNL     1      -1.755   0.493   0.901  1.00  0.00     0.037 A 
HETATM    3  C6  UNL     1      -1.350   1.535   1.691  1.00  0.00     0.254 A 
HETATM    4  O3  UNL     1      -2.156   2.162   2.441  1.00  0.00    -0.268 OA
HETATM    5  N1  UNL     1      -0.035   1.876   1.637  1.00  0.00    -0.322 N 
ATOM      6  H1  UNL     1       0.290   2.649   2.218  1.00  0.00     0.169 HD
HETATM    7  C7  UNL     1       0.862   1.241   0.851  1.00  0.00     0.047 A 
HETATM    8  C8  UNL     1       2.168   1.669   0.847  1.00  0.00     0.039 A 
HETATM    9  C9  UNL     1       3.073   1.048   0.042  1.00  0.00    -0.037 A 
HETATM   10  C10 UNL     1       4.491   1.468  -0.006  1.00  0.00     0.050 C 
HETATM   11  C11 UNL     1       2.687   0.013  -0.753  1.00  0.00     0.046 A 
HETATM   12 CL1  UNL     1       3.854  -0.782  -1.789  1.00  0.00    -0.083 Cl
HETATM   13  C12 UNL     1       1.369  -0.480  -0.802  1.00  0.00    -0.026 A 
HETATM   14  C13 UNL     1       0.974  -1.553  -1.705  1.00  0.00     0.051 C 
HETATM   15  C14 UNL     1       0.485   0.174   0.031  1.00  0.00     0.016 A 
ENDROOT
BRANCH   2  16
HETATM   16  C4  UNL     1      -3.172   0.081   0.881  1.00  0.00     0.159 C 
BRANCH  16  17
HETATM   17  C5  UNL     1      -3.843   0.633  -0.340  1.00  0.00     0.177 C 
HETATM   18  O1  UNL     1      -3.870   1.903  -0.481  1.00  0.00    -0.648 OA
HETATM   19  O2  UNL     1      -4.388  -0.249  -1.240  1.00  0.00    -0.648 OA
ENDBRANCH  16  17
ENDBRANCH   2  16
BRANCH   1  20
HETATM   20  S1  UNL     1      -1.481  -1.528  -0.846  1.00  0.00    -0.133 SA
HETATM   21  C1  UNL     1      -1.549  -3.072   0.109  1.00  0.00     0.095 C 
ENDBRANCH   1  20
TORSDOF 3
