REMARK  4 active torsions:
REMARK  status: ('A' for Active; 'I' for Inactive)
REMARK    1  A    between atoms: C3_4  and  N1_5 
REMARK       I    between atoms: N1_5  and  C4_7 
REMARK    2  A    between atoms: C4_7  and  C5_9 
REMARK    3  A    between atoms: C5_9  and  C6_10 
REMARK    4  A    between atoms: C6_10  and  O2_13 
ROOT
HETATM    1  N1  UNL     1       0.254  -0.883  -0.278  1.00  0.00    -0.321 N 
ATOM      2  H1  UNL     1       0.177  -1.795  -0.729  1.00  0.00     0.169 HD
HETATM    3  C4  UNL     1      -0.895  -0.125  -0.020  1.00  0.00     0.225 C 
HETATM    4  O1  UNL     1      -0.803   0.987   0.528  1.00  0.00    -0.273 OA
ENDROOT
BRANCH   1   5
HETATM    5  C3  UNL     1       1.553  -0.364   0.099  1.00  0.00     0.084 A 
HETATM    6  S1  UNL     1       1.941   1.113   0.855  1.00  0.00    -0.075 SA
HETATM    7  C2  UNL     1       3.629   0.950   0.938  1.00  0.00    -0.001 A 
HETATM    8  C1  UNL     1       4.637   1.913   1.504  1.00  0.00     0.057 C 
HETATM    9  C11 UNL     1       3.856  -0.272   0.366  1.00  0.00     0.032 A 
HETATM   10  C9  UNL     1       2.769  -0.952  -0.069  1.00  0.00    -0.010 A 
HETATM   11 BR1  UNL     1       5.692  -0.937   0.221  1.00  0.00    -0.049 Br
HETATM   12  C10 UNL     1       2.877  -2.323  -0.725  1.00  0.00     0.052 C 
ENDBRANCH   1   5
BRANCH   3  13
HETATM   13  C5  UNL     1      -2.224  -0.616  -0.387  1.00  0.00     0.140 C 
BRANCH  13  14
HETATM   14  C6  UNL     1      -3.327   0.354  -0.021  1.00  0.00     0.059 C 
HETATM   15  C7  UNL     1      -3.162   1.675  -0.701  1.00  0.00     0.045 C 
HETATM   16  C8  UNL     1      -4.688  -0.206  -0.362  1.00  0.00     0.045 C 
BRANCH  14  17
HETATM   17  O2  UNL     1      -3.315   0.542   1.377  1.00  0.00    -0.390 OA
ATOM     18  H2  UNL     1      -4.007   1.151   1.607  1.00  0.00     0.210 HD
ENDBRANCH  14  17
ENDBRANCH  13  14
ENDBRANCH   3  13
TORSDOF 4
