REMARK  3 active torsions:
REMARK  status: ('A' for Active; 'I' for Inactive)
REMARK    1  A    between atoms: O1_2  and  C2_3 
REMARK    2  A    between atoms: C3_6  and  N2_7 
REMARK    3  A    between atoms: C9_15  and  N4_16 
ROOT
HETATM    1  N2  UNL     1       1.232  -0.083   0.470  1.00  0.00    -0.280 N 
HETATM    2  C4  UNL     1       0.832   1.145  -0.193  1.00  0.00     0.153 C 
HETATM    3  C5  UNL     1      -0.296   0.797  -1.103  1.00  0.00     0.056 C 
HETATM    4  C6  UNL     1      -1.423   0.052  -0.419  1.00  0.00     0.062 C 
HETATM    5  N3  UNL     1      -2.337  -0.412  -1.401  1.00  0.00    -0.390 N 
ATOM      6  H3  UNL     1      -2.057  -0.505  -2.377  1.00  0.00     0.159 HD
HETATM    7  C7  UNL     1      -3.642  -0.740  -0.987  1.00  0.00     0.058 C 
HETATM    8  C8  UNL     1      -4.327   0.264  -0.111  1.00  0.00     0.077 C 
HETATM    9  C9  UNL     1      -3.368   1.384   0.196  1.00  0.00     0.194 C 
HETATM   10  C10 UNL     1      -2.045   0.895   0.668  1.00  0.00     0.049 C 
HETATM   11  C11 UNL     1      -2.050  -0.333   1.547  1.00  0.00     0.044 C 
HETATM   12  C12 UNL     1      -0.987  -0.917   0.604  1.00  0.00     0.068 C 
HETATM   13  C13 UNL     1      -1.256  -2.359   0.217  1.00  0.00     0.042 C 
HETATM   14  N5  UNL     1       0.291  -0.761   1.158  1.00  0.00    -0.321 N 
ATOM     15  H5  UNL     1       0.507  -1.157   2.073  1.00  0.00     0.181 HD
ENDROOT
BRANCH   1  16
HETATM   16  C3  UNL     1       2.574  -0.506   0.366  1.00  0.00     0.125 A 
HETATM   17  N1  UNL     1       3.482   0.209  -0.336  1.00  0.00    -0.320 N 
HETATM   18  C2  UNL     1       4.755  -0.110  -0.487  1.00  0.00     0.167 A 
ATOM     19  H1  UNL     1       3.157   1.065  -0.786  1.00  0.00     0.169 HD
HETATM   20  C16 UNL     1       5.234  -1.252   0.100  1.00  0.00     0.106 A 
HETATM   21  C15 UNL     1       4.364  -2.033   0.833  1.00  0.00     0.063 A 
HETATM   22 CL2  UNL     1       6.921  -1.701  -0.084  1.00  0.00    -0.078 Cl
HETATM   23  C14 UNL     1       3.042  -1.667   0.968  1.00  0.00     0.076 A 
HETATM   24 CL1  UNL     1       4.940  -3.499   1.597  1.00  0.00    -0.082 Cl
BRANCH  18  25
HETATM   25  O1  UNL     1       5.597   0.723  -1.245  1.00  0.00    -0.339 OA
HETATM   26  C1  UNL     1       5.082   1.893  -1.840  1.00  0.00     0.211 C 
ENDBRANCH  18  25
ENDBRANCH   1  16
BRANCH   9  27
HETATM   27  N4  UNL     1      -4.021   2.269   1.137  1.00  0.00    -0.074 N 
ATOM     28  H43 UNL     1      -4.928   2.601   0.808  1.00  0.00     0.274 HD
ATOM     29  H42 UNL     1      -4.351   1.787   1.973  1.00  0.00     0.274 HD
ATOM     30  H41 UNL     1      -3.372   3.028   1.345  1.00  0.00     0.274 HD
ENDBRANCH   9  27
TORSDOF 3
