REMARK  4 active torsions:
REMARK  status: ('A' for Active; 'I' for Inactive)
REMARK    1  A    between atoms: C2_2  and  C3_3 
REMARK    2  A    between atoms: C3_3  and  O1_4 
REMARK    3  A    between atoms: O1_4  and  C4_5 
REMARK       I    between atoms: C4_5  and  N1_7 
REMARK    4  A    between atoms: N2_9  and  C5_11 
ROOT
HETATM    1  C5  UNL     1       0.366  -1.737  -1.718  1.00  0.00     0.122 A 
HETATM    2  C6  UNL     1      -0.539  -1.508  -0.701  1.00  0.00     0.066 A 
HETATM    3  C7  UNL     1      -1.222  -0.328  -0.944  1.00  0.00     0.035 A 
HETATM    4  C8  UNL     1      -0.706   0.153  -2.139  1.00  0.00     0.163 A 
HETATM    5  N3  UNL     1       0.240  -0.706  -2.580  1.00  0.00    -0.321 N 
ATOM      6  H3  UNL     1       0.779  -0.592  -3.438  1.00  0.00     0.169 HD
HETATM    7  O3  UNL     1      -1.367   1.287  -2.367  1.00  0.00    -0.269 OA
HETATM    8  C9  UNL     1      -2.228   1.545  -1.438  1.00  0.00     0.207 A 
HETATM    9  O4  UNL     1      -3.068   2.570  -1.309  1.00  0.00    -0.250 OA
HETATM   10  C10 UNL     1      -3.863   2.619  -0.261  1.00  0.00     0.290 A 
HETATM   11  O5  UNL     1      -4.634   3.612  -0.195  1.00  0.00    -0.260 OA
HETATM   12  C11 UNL     1      -3.868   1.651   0.718  1.00  0.00     0.090 A 
HETATM   13  C12 UNL     1      -3.010   0.580   0.610  1.00  0.00    -0.040 A 
HETATM   14  C13 UNL     1      -2.953  -0.504   1.619  1.00  0.00     0.049 C 
HETATM   15  C14 UNL     1      -2.183   0.544  -0.495  1.00  0.00     0.044 A 
ENDROOT
BRANCH   1  16
HETATM   16  N2  UNL     1       1.244  -2.851  -1.812  1.00  0.00    -0.281 N 
HETATM   17  N1  UNL     1       2.407  -2.890  -1.360  1.00  0.00    -0.244 N 
HETATM   18  C4  UNL     1       3.053  -1.823  -0.672  1.00  0.00     0.379 C 
ATOM     19  H1  UNL     1       2.935  -3.752  -1.494  1.00  0.00     0.192 HD
HETATM   20  O2  UNL     1       4.016  -2.139   0.067  1.00  0.00    -0.237 OA
ATOM     21  H2  UNL     1       0.896  -3.684  -2.286  1.00  0.00     0.188 HD
BRANCH  18  22
HETATM   22  O1  UNL     1       2.662  -0.509  -0.792  1.00  0.00    -0.299 OA
BRANCH  22  23
HETATM   23  C3  UNL     1       3.331   0.514  -0.089  1.00  0.00     0.207 C 
BRANCH  23  24
HETATM   24  C2  UNL     1       3.235   0.275   1.373  1.00  0.00    -0.011 C 
HETATM   25  C1  UNL     1       4.271   0.109   2.162  1.00  0.00     0.009 C 
ENDBRANCH  23  24
ENDBRANCH  22  23
ENDBRANCH  18  22
ENDBRANCH   1  16
TORSDOF 4
