REMARK  4 active torsions:
REMARK  status: ('A' for Active; 'I' for Inactive)
REMARK    1  A    between atoms: C4_4  and  N1_5 
REMARK    2  A    between atoms: N1_5  and  C5_7 
REMARK    3  A    between atoms: C6_10  and  C7_11 
REMARK    4  A    between atoms: C7_11  and  N3_12 
ROOT
HETATM    1  C5  UNL     1       1.693   0.598   0.197  1.00  0.00     0.134 A 
HETATM    2  N2  UNL     1       2.657   1.481   0.510  1.00  0.00    -0.326 N 
ATOM      3  H2  UNL     1       2.372   2.386   0.885  1.00  0.00     0.169 HD
HETATM    4  C6  UNL     1       3.974   1.248   0.360  1.00  0.00     0.126 A 
HETATM    5  N4  UNL     1       4.297   0.042  -0.139  1.00  0.00    -0.325 N 
ATOM      6  H4  UNL     1       5.284  -0.180  -0.271  1.00  0.00     0.169 HD
HETATM    7  C8  UNL     1       3.383  -0.886  -0.473  1.00  0.00     0.139 A 
HETATM    8  N5  UNL     1       3.497  -2.147  -0.985  1.00  0.00    -0.337 N 
ATOM      9  H5  UNL     1       4.363  -2.633  -1.218  1.00  0.00     0.168 HD
HETATM   10  C9  UNL     1       2.254  -2.621  -1.121  1.00  0.00     0.182 A 
HETATM   11  N6  UNL     1       1.361  -1.721  -0.721  1.00  0.00    -0.346 N 
ATOM     12  H6  UNL     1       0.348  -1.836  -0.724  1.00  0.00     0.167 HD
HETATM   13  C10 UNL     1       2.031  -0.636  -0.314  1.00  0.00     0.122 A 
ENDROOT
BRANCH   1  14
HETATM   14  N1  UNL     1       0.501   0.923   0.379  1.00  0.00    -0.370 N 
ATOM     15  H1  UNL     1       0.407   1.864   0.761  1.00  0.00     0.161 HD
BRANCH  14  16
HETATM   16  C4  UNL     1      -0.740   0.298   0.181  1.00  0.00     0.085 C 
HETATM   17  C3  UNL     1      -1.857   1.358   0.129  1.00  0.00     0.049 C 
HETATM   18  C2  UNL     1      -2.894   0.918  -0.857  1.00  0.00     0.074 C 
HETATM   19  C1  UNL     1      -4.294   1.365  -0.444  1.00  0.00     0.032 C 
HETATM   20  N7  UNL     1      -2.908  -0.478  -1.102  1.00  0.00    -0.417 N 
HETATM   21  C13 UNL     1      -3.217  -1.319  -0.009  1.00  0.00     0.114 C 
ATOM     22  H7  UNL     1      -2.704  -0.859  -2.026  1.00  0.00     0.153 HD
HETATM   23  C12 UNL     1      -2.085  -1.737   0.844  1.00  0.00     0.021 C 
HETATM   24  C11 UNL     1      -1.143  -0.669   1.265  1.00  0.00     0.027 C 
ENDBRANCH  14  16
ENDBRANCH   1  14
BRANCH   4  25
HETATM   25  C7  UNL     1       4.983   2.239   0.715  1.00  0.00     0.167 C 
BRANCH  25  26
HETATM   26  N3  UNL     1       6.216   2.009   0.569  1.00  0.00    -0.232 N 
HETATM   27  F1  UNL     1       6.666   0.841   0.080  1.00  0.00    -0.102 F 
ATOM     28  H3  UNL     1       6.889   2.730   0.829  1.00  0.00     0.199 HD
ENDBRANCH  25  26
ENDBRANCH   4  25
TORSDOF 4
