REMARK  9 active torsions:
REMARK  status: ('A' for Active; 'I' for Inactive)
REMARK    1  A    between atoms: N1_1  and  C1_5 
REMARK    2  A    between atoms: C4_9  and  C5_10 
REMARK    3  A    between atoms: C5_10  and  O2_11 
REMARK    4  A    between atoms: C6_13  and  O3_14 
REMARK    5  A    between atoms: C8_17  and  O4_18 
REMARK    6  A    between atoms: O4_18  and  C9_19 
REMARK    7  A    between atoms: C9_19  and  C10_20 
REMARK    8  A    between atoms: C13_23  and  O5_24 
REMARK    9  A    between atoms: O5_24  and  C14_25 
ROOT
HETATM    1  C1  UNL     1      -2.385   1.417  -1.107  1.00  0.00     0.215 C 
HETATM    2  C2  UNL     1      -2.863   0.363  -2.130  1.00  0.00     0.070 C 
HETATM    3  C3  UNL     1      -4.305   0.350  -2.041  1.00  0.00     0.164 A 
HETATM    4  O1  UNL     1      -5.300  -0.496  -2.098  1.00  0.00    -0.364 OA
HETATM    5  C4  UNL     1      -4.670  -0.574  -0.872  1.00  0.00     0.134 A 
HETATM    6  C6  UNL     1      -4.773   0.329   0.272  1.00  0.00     0.160 C 
HETATM    7  C7  UNL     1      -3.562   0.719   0.996  1.00  0.00     0.069 C 
HETATM    8  C8  UNL     1      -2.258   0.877   0.253  1.00  0.00     0.154 C 
ENDROOT
BRANCH   8   9
HETATM    9  O4  UNL     1      -1.512   1.742   1.027  1.00  0.00    -0.379 OA
BRANCH   9  10
HETATM   10  C9  UNL     1      -0.418   1.306   1.664  1.00  0.00     0.206 C 
BRANCH  10  11
HETATM   11  C10 UNL     1       0.733   0.790   0.888  1.00  0.00    -0.034 A 
HETATM   12  C11 UNL     1       0.912  -0.527   0.572  1.00  0.00     0.012 A 
HETATM   13  C12 UNL     1       2.010  -0.935  -0.131  1.00  0.00     0.038 A 
HETATM   14  C13 UNL     1       2.996  -0.063  -0.563  1.00  0.00     0.076 A 
HETATM   15  C20 UNL     1       2.811   1.267  -0.241  1.00  0.00     0.038 A 
HETATM   16  C21 UNL     1       1.721   1.695   0.460  1.00  0.00     0.012 A 
BRANCH  14  17
HETATM   17  O5  UNL     1       4.107  -0.453  -1.271  1.00  0.00    -0.311 OA
BRANCH  17  18
HETATM   18  C14 UNL     1       5.264  -0.814  -0.598  1.00  0.00     0.076 A 
HETATM   19  C15 UNL     1       5.307  -0.785   0.787  1.00  0.00     0.039 A 
HETATM   20  C16 UNL     1       6.446  -1.140   1.485  1.00  0.00     0.026 A 
HETATM   21  C17 UNL     1       7.580  -1.536   0.815  1.00  0.00     0.034 A 
HETATM   22 CL1  UNL     1       9.007  -1.980   1.716  1.00  0.00    -0.084 Cl
HETATM   23  C18 UNL     1       7.541  -1.566  -0.560  1.00  0.00     0.026 A 
HETATM   24  C19 UNL     1       6.403  -1.212  -1.261  1.00  0.00     0.039 A 
ENDBRANCH  17  18
ENDBRANCH  14  17
ENDBRANCH  10  11
ENDBRANCH   9  10
ENDBRANCH   8   9
BRANCH   1  25
HETATM   25  N1  UNL     1      -1.264   2.109  -1.648  1.00  0.00    -0.072 N 
ATOM     26  H13 UNL     1      -0.516   1.476  -1.933  1.00  0.00     0.274 HD
ATOM     27  H12 UNL     1      -1.462   2.516  -2.562  1.00  0.00     0.274 HD
ATOM     28  H11 UNL     1      -0.948   2.805  -0.972  1.00  0.00     0.274 HD
ENDBRANCH   1  25
BRANCH   6  29
HETATM   29  O3  UNL     1      -5.690  -0.177   1.236  1.00  0.00    -0.392 OA
ATOM     30  H3  UNL     1      -5.757   0.410   1.980  1.00  0.00     0.210 HD
ENDBRANCH   6  29
BRANCH   5  31
HETATM   31  C5  UNL     1      -4.200  -1.937  -0.669  1.00  0.00     0.207 C 
BRANCH  31  32
HETATM   32  O2  UNL     1      -3.597  -2.097   0.571  1.00  0.00    -0.398 OA
ATOM     33  H2  UNL     1      -3.290  -2.986   0.703  1.00  0.00     0.209 HD
ENDBRANCH  31  32
ENDBRANCH   5  31
TORSDOF 9
