REMARK  8 active torsions:
REMARK  status: ('A' for Active; 'I' for Inactive)
REMARK    1  A    between atoms: C2_2  and  O1_3 
REMARK    2  A    between atoms: C2_2  and  C3_5 
REMARK    3  A    between atoms: C3_5  and  C4_6 
REMARK    4  A    between atoms: C4_6  and  C5_7 
REMARK    5  A    between atoms: C5_7  and  O2_8 
REMARK    6  A    between atoms: C11_15  and  N1_16 
REMARK    7  A    between atoms: C14_21  and  N3_22 
REMARK    8  A    between atoms: N3_22  and  C15_23 
ROOT
HETATM    1  N1  UNL     1       0.296  -0.327   0.147  1.00  0.00    -0.319 N 
HETATM    2  C12 UNL     1       0.604   0.957   0.100  1.00  0.00     0.185 A 
HETATM    3  N2  UNL     1       1.955   1.133   0.180  1.00  0.00    -0.345 N 
ATOM      4  H2  UNL     1       2.449   2.025   0.165  1.00  0.00     0.167 HD
HETATM    5  C13 UNL     1       2.506  -0.062   0.281  1.00  0.00     0.136 A 
HETATM    6  C14 UNL     1       3.868  -0.408   0.392  1.00  0.00     0.206 A 
HETATM    7  N4  UNL     1       4.125  -1.755   0.482  1.00  0.00    -0.306 N 
ATOM      8  H4  UNL     1       5.087  -2.082   0.565  1.00  0.00     0.171 HD
HETATM    9  C18 UNL     1       3.125  -2.637   0.462  1.00  0.00     0.182 A 
HETATM   10 CL1  UNL     1       3.549  -4.358   0.582  1.00  0.00    -0.045 Cl
HETATM   11  N5  UNL     1       1.838  -2.267   0.355  1.00  0.00    -0.316 N 
ATOM     12  H5  UNL     1       1.107  -2.978   0.344  1.00  0.00     0.170 HD
HETATM   13  C19 UNL     1       1.505  -0.969   0.263  1.00  0.00     0.143 A 
ENDROOT
BRANCH   1  14
HETATM   14  C11 UNL     1      -0.922  -1.013   0.104  1.00  0.00     0.131 C 
HETATM   15  C5  UNL     1      -2.124  -0.513  -0.616  1.00  0.00     0.083 C 
HETATM   16  C6  UNL     1      -2.935  -1.276   0.418  1.00  0.00     0.028 C 
HETATM   17  C7  UNL     1      -2.861  -2.755   0.148  1.00  0.00     0.008 C 
HETATM   18  C10 UNL     1      -1.792  -1.008   1.371  1.00  0.00     0.019 C 
HETATM   19  C8  UNL     1      -1.982  -3.353   1.216  1.00  0.00     0.001 C 
HETATM   20  C9  UNL     1      -1.586  -2.252   2.165  1.00  0.00     0.007 C 
BRANCH  15  21
HETATM   21  C4  UNL     1      -2.415   0.918  -0.751  1.00  0.00     0.043 C 
BRANCH  21  22
HETATM   22  C3  UNL     1      -3.824   1.232  -1.202  1.00  0.00     0.034 C 
BRANCH  22  23
HETATM   23  C2  UNL     1      -4.043   2.725  -1.318  1.00  0.00     0.114 C 
HETATM   24  C1  UNL     1      -3.816   3.389   0.021  1.00  0.00     0.039 C 
BRANCH  23  25
HETATM   25  O1  UNL     1      -5.383   2.906  -1.716  1.00  0.00    -0.396 OA
ATOM     26  H1  UNL     1      -5.526   2.489  -2.557  1.00  0.00     0.210 HD
ENDBRANCH  23  25
ENDBRANCH  22  23
ENDBRANCH  21  22
ENDBRANCH  15  21
BRANCH  15  27
HETATM   27  O2  UNL     1      -2.312  -1.175  -1.863  1.00  0.00    -0.387 OA
ATOM     28  H2  UNL     1      -2.123  -2.102  -1.776  1.00  0.00     0.210 HD
ENDBRANCH  15  27
ENDBRANCH   1  14
BRANCH   6  29
HETATM   29  N3  UNL     1       4.769   0.366   0.413  1.00  0.00    -0.421 NA
BRANCH  29  30
HETATM   30  C15 UNL     1       5.797   1.200   0.440  1.00  0.00     0.184 C 
HETATM   31  C16 UNL     1       7.002   0.758  -0.427  1.00  0.00     0.114 C 
HETATM   32  S1  UNL     1       6.164   1.431  -1.902  1.00  0.00    -0.163 SA
HETATM   33  C17 UNL     1       5.774   2.448  -0.455  1.00  0.00     0.114 C 
ENDBRANCH  29  30
ENDBRANCH   6  29
TORSDOF 8
