REMARK  14 active torsions:
REMARK  status: ('A' for Active; 'I' for Inactive)
REMARK    1  A    between atoms: C1_2  and  C2_3 
REMARK       I    between atoms: C1_2  and  N1_10 
REMARK    2  A    between atoms: C2_3  and  C3_4 
REMARK    3  A    between atoms: N1_10  and  C9_12 
REMARK    4  A    between atoms: C12_15  and  C13_16 
REMARK    5  A    between atoms: C13_16  and  C14_17 
REMARK    6  A    between atoms: C14_17  and  C15_18 
REMARK    7  A    between atoms: C15_18  and  C16_19 
REMARK    8  A    between atoms: C16_19  and  C17_20 
REMARK    9  A    between atoms: C18_23  and  C19_24 
REMARK   10  A    between atoms: C24_31  and  C25_32 
REMARK   11  A    between atoms: C25_32  and  O2_33 
REMARK   12  A    between atoms: N4_35  and  S1_37 
REMARK   13  A    between atoms: S1_37  and  C26_40 
REMARK   14  A    between atoms: C26_40  and  C27_41 
ROOT
HETATM    1  C17 UNL     1       1.982  -1.011  -0.384  1.00  0.00     0.052 A 
HETATM    2  N2  UNL     1       2.655  -1.582   0.568  1.00  0.00    -0.351 N 
ATOM      3  H2  UNL     1       2.157  -1.932   1.387  1.00  0.00     0.166 HD
HETATM    4  C18 UNL     1       3.957  -1.721   0.505  1.00  0.00     0.081 A 
HETATM    5  C24 UNL     1       4.603  -1.257  -0.576  1.00  0.00     0.087 A 
HETATM    6  S2  UNL     1       3.197  -0.611  -1.486  1.00  0.00    -0.070 SA
ENDROOT
BRANCH   1   7
HETATM    7  C16 UNL     1       0.480  -0.769  -0.462  1.00  0.00     0.065 C 
BRANCH   7   8
HETATM    8  C15 UNL     1       0.178   0.563   0.126  1.00  0.00     0.007 C 
BRANCH   8   9
HETATM    9  C14 UNL     1      -1.296   0.819   0.057  1.00  0.00     0.006 C 
BRANCH   9  10
HETATM   10  C13 UNL     1      -2.138  -0.172   0.800  1.00  0.00     0.058 C 
BRANCH  10  11
HETATM   11  C12 UNL     1      -3.561   0.224   0.641  1.00  0.00     0.026 A 
HETATM   12  C11 UNL     1      -4.372  -0.226  -0.372  1.00  0.00     0.030 A 
HETATM   13  C10 UNL     1      -5.707   0.180  -0.486  1.00  0.00     0.052 A 
HETATM   14  C9  UNL     1      -6.192   1.053   0.455  1.00  0.00     0.122 A 
HETATM   15  N6  UNL     1      -5.367   1.489   1.457  1.00  0.00    -0.285 N 
HETATM   16  N5  UNL     1      -4.125   1.081   1.521  1.00  0.00    -0.303 N 
ATOM     17  H6  UNL     1      -5.723   2.137   2.159  1.00  0.00     0.188 HD
ATOM     18  H5  UNL     1      -3.546   1.432   2.284  1.00  0.00     0.186 HD
BRANCH  14  19
HETATM   19  N1  UNL     1      -7.376   1.495   0.457  1.00  0.00    -0.312 N 
HETATM   20  C1  UNL     1      -8.433   1.247  -0.414  1.00  0.00     0.227 C 
HETATM   21  O1  UNL     1      -8.266   1.237  -1.650  1.00  0.00    -0.273 OA
ATOM     22  H1  UNL     1      -7.592   2.137   1.220  1.00  0.00     0.170 HD
BRANCH  20  23
HETATM   23  C2  UNL     1      -9.782   0.989   0.132  1.00  0.00     0.141 C 
BRANCH  23  24
HETATM   24  C3  UNL     1     -10.754   0.746  -0.954  1.00  0.00    -0.050 A 
HETATM   25  C4  UNL     1     -11.427   1.808  -1.555  1.00  0.00     0.007 A 
HETATM   26  C5  UNL     1     -12.318   1.511  -2.549  1.00  0.00     0.001 A 
HETATM   27  C6  UNL     1     -12.563   0.223  -2.963  1.00  0.00     0.000 A 
HETATM   28  C7  UNL     1     -11.886  -0.806  -2.355  1.00  0.00     0.001 A 
HETATM   29  C8  UNL     1     -10.969  -0.554  -1.338  1.00  0.00     0.007 A 
ENDBRANCH  23  24
ENDBRANCH  20  23
ENDBRANCH  14  19
ENDBRANCH  10  11
ENDBRANCH   9  10
ENDBRANCH   8   9
ENDBRANCH   7   8
ENDBRANCH   1   7
BRANCH   4  30
HETATM   30  C19 UNL     1       4.650  -2.389   1.651  1.00  0.00     0.060 A 
HETATM   31  C20 UNL     1       3.872  -2.825   2.723  1.00  0.00     0.032 A 
HETATM   32  C21 UNL     1       4.423  -3.444   3.814  1.00  0.00     0.004 A 
HETATM   33  C22 UNL     1       5.777  -3.653   3.878  1.00  0.00     0.017 A 
HETATM   34  C23 UNL     1       6.530  -3.204   2.784  1.00  0.00     0.088 A 
HETATM   35  N3  UNL     1       5.922  -2.608   1.754  1.00  0.00    -0.364 N 
ATOM     36  H3  UNL     1       6.512  -2.299   0.981  1.00  0.00     0.165 HD
ENDBRANCH   4  30
BRANCH   5  37
HETATM   37  C25 UNL     1       5.940  -1.159  -1.109  1.00  0.00     0.169 C 
HETATM   38  N4  UNL     1       7.197  -1.518  -0.750  1.00  0.00    -0.263 N 
ATOM     39  H4  UNL     1       7.363  -2.002   0.133  1.00  0.00     0.180 HD
BRANCH  37  40
HETATM   40  O2  UNL     1       5.950  -0.530  -2.312  1.00  0.00    -0.345 OA
ATOM     41  H2  UNL     1       6.830  -0.465  -2.663  1.00  0.00     0.219 HD
ENDBRANCH  37  40
BRANCH  38  42
HETATM   42  S1  UNL     1       8.557  -1.135  -1.839  1.00  0.00     0.236 S 
HETATM   43  O3  UNL     1       8.063  -0.767  -3.192  1.00  0.00    -0.205 OA
HETATM   44  O4  UNL     1       9.426  -2.362  -1.972  1.00  0.00    -0.205 OA
BRANCH  42  45
HETATM   45  C26 UNL     1       9.538   0.116  -1.067  1.00  0.00     0.202 C 
BRANCH  45  46
HETATM   46  C27 UNL     1       8.733   1.336  -0.831  1.00  0.00    -0.043 A 
HETATM   47  C28 UNL     1       8.727   2.276  -1.855  1.00  0.00     0.008 A 
HETATM   48  C29 UNL     1       8.007   3.441  -1.721  1.00  0.00     0.001 A 
HETATM   49  C30 UNL     1       7.294   3.651  -0.550  1.00  0.00     0.000 A 
HETATM   50  C31 UNL     1       7.306   2.721   0.451  1.00  0.00     0.001 A 
HETATM   51  C32 UNL     1       8.027   1.549   0.325  1.00  0.00     0.008 A 
ENDBRANCH  45  46
ENDBRANCH  42  45
ENDBRANCH  38  42
ENDBRANCH   5  37
TORSDOF 14
