REMARK  14 active torsions:
REMARK  status: ('A' for Active; 'I' for Inactive)
REMARK    1  A    between atoms: N1_2  and  C3_4 
REMARK    2  A    between atoms: C3_4  and  C4_5 
REMARK    3  A    between atoms: C4_5  and  C5_6 
REMARK    4  A    between atoms: C7_8  and  C8_9 
REMARK       I    between atoms: C8_9  and  N2_11 
REMARK    5  A    between atoms: N2_11  and  C9_13 
REMARK    6  A    between atoms: C10_18  and  C11_19 
REMARK    7  A    between atoms: C11_19  and  C12_20 
REMARK    8  A    between atoms: C12_20  and  C13_21 
REMARK    9  A    between atoms: C13_21  and  C14_22 
REMARK   10  A    between atoms: C14_22  and  C15_23 
REMARK   11  A    between atoms: C18_26  and  N5_27 
REMARK       I    between atoms: N5_27  and  C19_29 
REMARK   12  A    between atoms: C19_29  and  C20_31 
REMARK   13  A    between atoms: C20_31  and  C21_32 
REMARK   14  A    between atoms: C29_45  and  C30_46 
ROOT
HETATM    1  C9  UNL     1      -1.458   0.567  -0.385  1.00  0.00     0.168 A 
HETATM    2  N3  UNL     1      -1.657  -0.557  -1.078  1.00  0.00    -0.279 N 
ATOM      3  H3  UNL     1      -2.426  -1.183  -0.839  1.00  0.00     0.189 HD
HETATM    4  N4  UNL     1      -0.881  -0.834  -2.032  1.00  0.00    -0.296 N 
ATOM      5  H4  UNL     1      -1.028  -1.691  -2.565  1.00  0.00     0.187 HD
HETATM    6  C10 UNL     1       0.130  -0.026  -2.358  1.00  0.00     0.069 A 
HETATM    7  S1  UNL     1      -0.092   1.219  -1.169  1.00  0.00    -0.038 SA
ENDROOT
BRANCH   6   8
HETATM    8  C11 UNL     1       1.086  -0.129  -3.473  1.00  0.00     0.066 C 
BRANCH   8   9
HETATM    9  C12 UNL     1       2.253  -0.987  -3.384  1.00  0.00     0.007 C 
BRANCH   9  10
HETATM   10  C13 UNL     1       3.309  -0.848  -2.379  1.00  0.00     0.006 C 
BRANCH  10  11
HETATM   11  C14 UNL     1       3.006  -1.056  -0.949  1.00  0.00     0.058 C 
BRANCH  11  12
HETATM   12  C15 UNL     1       4.256  -0.894  -0.125  1.00  0.00     0.026 A 
HETATM   13  C16 UNL     1       5.433  -0.619  -0.737  1.00  0.00     0.030 A 
HETATM   14  C17 UNL     1       6.573  -0.471   0.057  1.00  0.00     0.052 A 
HETATM   15  C18 UNL     1       6.459  -0.607   1.412  1.00  0.00     0.122 A 
HETATM   16  N6  UNL     1       5.255  -0.882   1.973  1.00  0.00    -0.285 N 
HETATM   17  N7  UNL     1       4.201  -1.017   1.206  1.00  0.00    -0.303 N 
ATOM     18  H6  UNL     1       5.171  -0.983   2.984  1.00  0.00     0.188 HD
ATOM     19  H7  UNL     1       3.302  -1.224   1.642  1.00  0.00     0.186 HD
BRANCH  15  20
HETATM   20  N5  UNL     1       7.515  -0.470   2.177  1.00  0.00    -0.312 N 
HETATM   21  C19 UNL     1       8.746  -0.181   1.540  1.00  0.00     0.227 C 
HETATM   22  O2  UNL     1       9.517  -1.135   1.236  1.00  0.00    -0.273 OA
ATOM     23  H5  UNL     1       7.452  -0.568   3.190  1.00  0.00     0.170 HD
BRANCH  21  24
HETATM   24  C20 UNL     1       9.093   1.232   1.251  1.00  0.00     0.141 C 
BRANCH  24  25
HETATM   25  C21 UNL     1      10.420   1.248   0.590  1.00  0.00    -0.050 A 
HETATM   26  C22 UNL     1      10.521   1.164  -0.763  1.00  0.00     0.007 A 
HETATM   27  C23 UNL     1      11.803   1.186  -1.314  1.00  0.00     0.001 A 
HETATM   28  C24 UNL     1      12.912   1.288  -0.528  1.00  0.00     0.000 A 
HETATM   29  C25 UNL     1      12.773   1.371   0.840  1.00  0.00     0.001 A 
HETATM   30  C26 UNL     1      11.523   1.353   1.421  1.00  0.00     0.007 A 
ENDBRANCH  24  25
ENDBRANCH  21  24
ENDBRANCH  15  20
ENDBRANCH  11  12
ENDBRANCH  10  11
ENDBRANCH   9  10
ENDBRANCH   8   9
ENDBRANCH   6   8
BRANCH   1  31
HETATM   31  N2  UNL     1      -2.152   1.025   0.632  1.00  0.00    -0.302 N 
HETATM   32  C8  UNL     1      -3.264   0.339   1.144  1.00  0.00     0.257 C 
HETATM   33  O1  UNL     1      -3.065  -0.778   1.712  1.00  0.00    -0.267 OA
ATOM     34  H2  UNL     1      -1.874   1.907   1.063  1.00  0.00     0.171 HD
BRANCH  32  35
HETATM   35  C7  UNL     1      -4.630   0.831   1.063  1.00  0.00     0.033 A 
HETATM   36  C6  UNL     1      -5.709   0.147   1.563  1.00  0.00     0.025 A 
HETATM   37  C5  UNL     1      -7.028   0.630   1.481  1.00  0.00    -0.043 A 
HETATM   38  C29 UNL     1      -7.286   1.831   0.886  1.00  0.00     0.004 A 
HETATM   39  C28 UNL     1      -6.179   2.528   0.374  1.00  0.00     0.016 A 
HETATM   40  C27 UNL     1      -4.896   2.041   0.461  1.00  0.00     0.018 A 
BRANCH  37  41
HETATM   41  C4  UNL     1      -8.090  -0.231   2.000  1.00  0.00     0.069 C 
BRANCH  41  42
HETATM   42  C3  UNL     1      -8.791  -1.072   0.967  1.00  0.00     0.276 C 
BRANCH  42  43
HETATM   43  N1  UNL     1      -7.874  -2.011   0.314  1.00  0.00     0.080 N 
HETATM   44  C1  UNL     1      -8.721  -2.691  -0.691  1.00  0.00     0.309 C 
HETATM   45  C2  UNL     1      -7.493  -3.067   1.254  1.00  0.00     0.309 C 
ENDBRANCH  42  43
ENDBRANCH  41  42
ENDBRANCH  37  41
BRANCH  38  46
HETATM   46  C30 UNL     1      -8.596   2.469   0.802  1.00  0.00     0.084 A 
HETATM   47  N8  UNL     1      -8.814   3.586   0.115  1.00  0.00    -0.359 N 
HETATM   48  C31 UNL     1      -9.988   4.103   0.067  1.00  0.00     0.096 A 
ATOM     49  H8  UNL     1      -8.042   4.036  -0.378  1.00  0.00     0.166 HD
HETATM   50  C32 UNL     1     -11.003   3.474   0.742  1.00  0.00     0.069 A 
HETATM   51  S2  UNL     1     -10.149   2.153   1.405  1.00  0.00    -0.082 SA
ENDBRANCH  38  46
ENDBRANCH  32  35
ENDBRANCH   1  31
TORSDOF 14
