REMARK  14 active torsions:
REMARK  status: ('A' for Active; 'I' for Inactive)
REMARK       I    between atoms: C2_2  and  N1_4 
REMARK    1  A    between atoms: C6_8  and  C7_9 
REMARK    2  A    between atoms: C7_9  and  N2_10 
REMARK    3  A    between atoms: C8_11  and  C9_12 
REMARK    4  A    between atoms: C9_12  and  C10_13 
REMARK    5  A    between atoms: C10_13  and  C11_14 
REMARK    6  A    between atoms: C11_14  and  C12_15 
REMARK    7  A    between atoms: C12_15  and  C13_16 
REMARK    8  A    between atoms: N5_22  and  C15_24 
REMARK    9  A    between atoms: C15_24  and  C17_27 
REMARK   10  A    between atoms: C17_27  and  O2_29 
REMARK   11  A    between atoms: O2_29  and  C19_30 
REMARK       I    between atoms: C19_30  and  N7_32 
REMARK   12  A    between atoms: C24_37  and  C25_38 
REMARK   13  A    between atoms: C29_45  and  C30_46 
REMARK   14  A    between atoms: C30_46  and  C31_47 
ROOT
HETATM    1  C15 UNL     1       5.410   0.085  -1.254  1.00  0.00     0.221 C 
HETATM    2  C16 UNL     1       5.686   1.284  -0.483  1.00  0.00     0.087 C 
HETATM    3  N6  UNL     1       5.889   2.237   0.140  1.00  0.00    -0.195 NA
ENDROOT
BRANCH   1   4
HETATM    4  N5  UNL     1       4.508   0.345  -2.355  1.00  0.00    -0.335 N 
HETATM    5  C14 UNL     1       3.310   0.716  -2.092  1.00  0.00     0.241 A 
HETATM    6  N4  UNL     1       2.338   1.001  -2.980  1.00  0.00    -0.263 N 
HETATM    7  O6  UNL     1       2.781   0.898  -0.908  1.00  0.00    -0.264 OA
HETATM    8  N3  UNL     1       1.248   1.345  -2.318  1.00  0.00    -0.280 N 
ATOM      9  H4  UNL     1       2.429   0.958  -3.995  1.00  0.00     0.190 HD
HETATM   10  C13 UNL     1       1.545   1.276  -0.995  1.00  0.00     0.142 A 
ATOM     11  H3  UNL     1       0.351   1.612  -2.724  1.00  0.00     0.189 HD
ATOM     12  H5  UNL     1       4.819   0.235  -3.320  1.00  0.00     0.164 HD
BRANCH  10  13
HETATM   13  C12 UNL     1       0.600   1.584   0.133  1.00  0.00     0.086 C 
BRANCH  13  14
HETATM   14  C11 UNL     1      -0.100   0.294   0.481  1.00  0.00     0.008 C 
BRANCH  14  15
HETATM   15  C10 UNL     1      -1.070   0.471   1.589  1.00  0.00     0.006 C 
BRANCH  15  16
HETATM   16  C9  UNL     1      -2.197   1.421   1.279  1.00  0.00     0.057 C 
BRANCH  16  17
HETATM   17  C8  UNL     1      -3.052   0.998   0.150  1.00  0.00     0.012 A 
HETATM   18  N2  UNL     1      -4.167   0.210   0.199  1.00  0.00    -0.350 N 
HETATM   19  C29 UNL     1      -4.611   0.082  -1.093  1.00  0.00     0.037 A 
HETATM   20  C27 UNL     1      -3.792   0.775  -1.933  1.00  0.00    -0.034 A 
HETATM   21  C26 UNL     1      -2.810   1.353  -1.149  1.00  0.00     0.034 A 
HETATM   22  C28 UNL     1      -3.781   0.938  -3.428  1.00  0.00     0.050 C 
BRANCH  18  23
HETATM   23  C7  UNL     1      -4.641  -0.381   1.395  1.00  0.00     0.135 C 
BRANCH  23  24
HETATM   24  C6  UNL     1      -5.497   0.368   2.317  1.00  0.00     0.022 C 
HETATM   25  C5  UNL     1      -5.838  -0.566   3.508  1.00  0.00     0.009 C 
HETATM   26  C4  UNL     1      -6.710  -1.693   3.070  1.00  0.00     0.020 C 
HETATM   27  C3  UNL     1      -7.900  -1.259   2.263  1.00  0.00     0.125 C 
HETATM   28  N1  UNL     1      -7.921   0.133   1.953  1.00  0.00    -0.352 N 
HETATM   29  C2  UNL     1      -9.176   0.747   1.713  1.00  0.00     0.215 C 
HETATM   30  C34 UNL     1      -6.749   0.977   1.862  1.00  0.00     0.132 C 
HETATM   31  C1  UNL     1     -10.440  -0.031   1.782  1.00  0.00     0.117 C 
HETATM   32  O1  UNL     1      -9.257   1.980   1.433  1.00  0.00    -0.274 OA
ENDBRANCH  23  24
ENDBRANCH  18  23
BRANCH  19  33
HETATM   33  C30 UNL     1      -5.749  -0.721  -1.518  1.00  0.00     0.007 C 
BRANCH  33  34
HETATM   34  C31 UNL     1      -7.028  -0.120  -1.890  1.00  0.00     0.002 C 
HETATM   35  C32 UNL     1      -7.092   0.843  -3.019  1.00  0.00     0.013 C 
HETATM   36  C33 UNL     1      -8.009  -1.280  -2.194  1.00  0.00     0.013 C 
ENDBRANCH  33  34
ENDBRANCH  19  33
ENDBRANCH  16  17
ENDBRANCH  15  16
ENDBRANCH  14  15
ENDBRANCH  13  14
ENDBRANCH  10  13
ENDBRANCH   1   4
BRANCH   1  37
HETATM   37  C17 UNL     1       6.703  -0.422  -1.875  1.00  0.00     0.166 C 
HETATM   38  C18 UNL     1       6.329  -1.647  -2.693  1.00  0.00     0.043 C 
BRANCH  37  39
HETATM   39  O2  UNL     1       7.687  -0.718  -0.915  1.00  0.00    -0.296 OA
BRANCH  39  40
HETATM   40  C19 UNL     1       8.908  -0.039  -0.955  1.00  0.00     0.364 C 
HETATM   41  O3  UNL     1       9.061   0.819  -1.868  1.00  0.00    -0.238 OA
HETATM   42  N7  UNL     1       9.943  -0.294  -0.013  1.00  0.00    -0.313 N 
HETATM   43  C20 UNL     1      11.177   0.442  -0.112  1.00  0.00     0.129 C 
HETATM   44  C24 UNL     1       9.769  -1.272   1.026  1.00  0.00     0.190 C 
HETATM   45  C21 UNL     1      11.460   1.096   1.206  1.00  0.00     0.020 C 
HETATM   46  C22 UNL     1      11.509   0.027   2.277  1.00  0.00     0.004 C 
HETATM   47  C23 UNL     1      10.214  -0.739   2.370  1.00  0.00     0.037 C 
BRANCH  44  48
HETATM   48  C25 UNL     1      10.463  -2.531   0.699  1.00  0.00     0.197 C 
HETATM   49  O4  UNL     1      10.427  -3.498   1.492  1.00  0.00    -0.646 OA
HETATM   50  O5  UNL     1      11.158  -2.651  -0.485  1.00  0.00    -0.646 OA
ENDBRANCH  44  48
ENDBRANCH  39  40
ENDBRANCH  37  39
ENDBRANCH   1  37
TORSDOF 14
