REMARK  2 active torsions:
REMARK  status: ('A' for Active; 'I' for Inactive)
REMARK    1  A    between atoms: C5_7  and  N3_8 
REMARK    2  A    between atoms: C8_14  and  C9_15 
ROOT
HETATM    1  N1  UNL     1       2.317   2.668   0.826  1.00  0.00    -0.195 NA
HETATM    2  C1  UNL     1       1.490   1.963   0.385  1.00  0.00     0.085 C 
HETATM    3  C2  UNL     1       0.444   1.102  -0.175  1.00  0.00     0.143 C 
HETATM    4  C3  UNL     1      -0.225   1.928  -1.212  1.00  0.00     0.085 C 
HETATM    5  N2  UNL     1      -0.744   2.558  -2.033  1.00  0.00    -0.195 NA
HETATM    6  C4  UNL     1      -0.599   0.801   0.845  1.00  0.00     0.073 C 
HETATM    7  C5  UNL     1      -1.692  -0.033   0.199  1.00  0.00     0.186 C 
HETATM    8  C6  UNL     1      -1.033  -1.362  -0.178  1.00  0.00     0.033 C 
HETATM    9  C7  UNL     1       0.000  -1.108  -1.212  1.00  0.00     0.010 C 
HETATM   10  C8  UNL     1       1.018  -0.082  -0.870  1.00  0.00     0.033 C 
ENDROOT
BRANCH  10  11
HETATM   11  C9  UNL     1       2.228  -0.675  -0.200  1.00  0.00     0.093 C 
HETATM   12  S1  UNL     1       1.959  -1.250   1.456  1.00  0.00    -0.097 SA
ENDBRANCH  10  11
BRANCH   7  13
HETATM   13  N3  UNL     1      -2.694  -0.348   1.199  1.00  0.00    -0.075 N 
ATOM     14  H33 UNL     1      -2.294  -0.800   2.022  1.00  0.00     0.274 HD
ATOM     15  H32 UNL     1      -3.061   0.485   1.659  1.00  0.00     0.274 HD
ATOM     16  H31 UNL     1      -3.428  -0.908   0.765  1.00  0.00     0.274 HD
ENDBRANCH   7  13
TORSDOF 2
