REMARK  2 active torsions:
REMARK  status: ('A' for Active; 'I' for Inactive)
REMARK    1  A    between atoms: N1_1  and  N2_4 
REMARK    2  A    between atoms: N2_4  and  N3_6 
ROOT
HETATM    1  N3  UNL     1       0.772  -0.299   0.296  1.00  0.00    -0.109 N 
HETATM    2  N4  UNL     1       0.223   0.827   0.889  1.00  0.00    -0.213 N 
ATOM      3  H4  UNL     1       0.792   1.410   1.502  1.00  0.00     0.195 HD
HETATM    4  C1  UNL     1      -1.131   1.166   0.641  1.00  0.00     0.345 A 
HETATM    5  O1  UNL     1      -1.636   2.211   1.194  1.00  0.00    -0.245 OA
HETATM    6  N5  UNL     1      -1.982   0.399  -0.203  1.00  0.00    -0.258 N 
ATOM      7  H5  UNL     1      -2.955   0.653  -0.375  1.00  0.00     0.175 HD
HETATM    8  C2  UNL     1      -1.376  -0.750  -0.791  1.00  0.00     0.345 A 
HETATM    9  O2  UNL     1      -2.106  -1.459  -1.550  1.00  0.00    -0.245 OA
HETATM   10  N6  UNL     1      -0.016  -1.084  -0.538  1.00  0.00    -0.213 N 
ATOM     11  H6  UNL     1       0.387  -1.913  -0.976  1.00  0.00     0.195 HD
ENDROOT
BRANCH   1  12
HETATM   12  N2  UNL     1       2.121  -0.661   0.525  1.00  0.00    -0.212 N 
ATOM     13  H2  UNL     1       2.407  -1.281   1.283  1.00  0.00     0.211 HD
BRANCH  12  14
HETATM   14  N1  UNL     1       2.956  -0.141  -0.304  1.00  0.00    -0.328 N 
ATOM     15  H12 UNL     1       2.655   0.478  -1.057  1.00  0.00     0.178 HD
ATOM     16  H11 UNL     1       3.928  -0.402  -0.139  1.00  0.00     0.178 HD
ENDBRANCH  12  14
ENDBRANCH   1  12
TORSDOF 2
