REMARK  16 active torsions:
REMARK  status: ('A' for Active; 'I' for Inactive)
REMARK    1  A    between atoms: C2_2  and  C3_3 
REMARK    2  A    between atoms: C3_3  and  C4_4 
REMARK    3  A    between atoms: C4_4  and  C5_5 
REMARK    4  A    between atoms: C5_5  and  C6_6 
REMARK    5  A    between atoms: C6_6  and  C7_7 
REMARK    6  A    between atoms: C7_7  and  C8_8 
REMARK    7  A    between atoms: C8_8  and  C9_9 
REMARK    8  A    between atoms: C9_9  and  C11_11 
REMARK    9  A    between atoms: C11_11  and  O1_12 
REMARK   10  A    between atoms: C11_11  and  C12_14 
REMARK   11  A    between atoms: C12_14  and  C13_15 
REMARK   12  A    between atoms: C13_15  and  C14_16 
REMARK   13  A    between atoms: C15_18  and  O3_19 
REMARK   14  A    between atoms: C16_21  and  O4_22 
REMARK   15  A    between atoms: C17_24  and  O5_25 
REMARK   16  A    between atoms: C22_31  and  O6_32 
ROOT
HETATM    1  C14 UNL     1      -1.874  -0.176   0.856  1.00  0.00     0.132 C 
HETATM    2  O2  UNL     1      -1.107  -1.361   0.753  1.00  0.00    -0.353 OA
HETATM    3  C15 UNL     1      -1.137  -1.784  -0.578  1.00  0.00     0.288 C 
HETATM    4  C16 UNL     1      -2.485  -2.394  -0.782  1.00  0.00     0.208 C 
HETATM    5  C17 UNL     1      -3.631  -1.501  -0.373  1.00  0.00     0.099 C 
HETATM    6  C18 UNL     1      -4.071  -0.788  -1.651  1.00  0.00     0.023 C 
HETATM    7  C19 UNL     1      -4.699  -1.738  -2.617  1.00  0.00     0.013 C 
HETATM    8  C20 UNL     1      -5.005   0.347  -1.402  1.00  0.00    -0.005 C 
HETATM    9  C21 UNL     1      -4.144   1.621  -1.383  1.00  0.00     0.037 C 
HETATM   10  C22 UNL     1      -3.779   1.828   0.086  1.00  0.00     0.127 C 
HETATM   11  C23 UNL     1      -4.256   0.601   0.787  1.00  0.00    -0.009 C 
HETATM   12  C24 UNL     1      -4.715   0.900   2.215  1.00  0.00     0.018 C 
HETATM   13  C25 UNL     1      -5.548   0.369  -0.007  1.00  0.00     0.017 C 
HETATM   14  C26 UNL     1      -3.336  -0.568   0.745  1.00  0.00     0.063 C 
ENDROOT
BRANCH   1  15
HETATM   15  C13 UNL     1      -1.558   0.366   2.235  1.00  0.00     0.035 C 
BRANCH  15  16
HETATM   16  C12 UNL     1      -0.082   0.659   2.399  1.00  0.00     0.034 C 
BRANCH  16  17
HETATM   17  C11 UNL     1       0.418   1.671   1.425  1.00  0.00     0.122 C 
BRANCH  17  18
HETATM   18  C9  UNL     1       1.891   1.968   1.590  1.00  0.00     0.010 C 
HETATM   19  C10 UNL     1       2.369   2.948   0.528  1.00  0.00     0.012 C 
BRANCH  18  20
HETATM   20  C8  UNL     1       2.757   0.731   1.475  1.00  0.00     0.007 C 
BRANCH  20  21
HETATM   21  C7  UNL     1       2.659   0.082   0.135  1.00  0.00     0.000 C 
BRANCH  21  22
HETATM   22  C6  UNL     1       3.537  -1.140   0.103  1.00  0.00     0.000 C 
BRANCH  22  23
HETATM   23  C5  UNL     1       4.993  -0.843   0.356  1.00  0.00     0.000 C 
BRANCH  23  24
HETATM   24  C4  UNL     1       5.503   0.109  -0.691  1.00  0.00     0.000 C 
BRANCH  24  25
HETATM   25  C3  UNL     1       6.966   0.440  -0.495  1.00  0.00    -0.000 C 
BRANCH  25  26
HETATM   26  C2  UNL     1       7.844  -0.776  -0.559  1.00  0.00    -0.005 C 
HETATM   27  C1  UNL     1       7.702  -1.438  -1.896  1.00  0.00     0.005 C 
ENDBRANCH  25  26
ENDBRANCH  24  25
ENDBRANCH  23  24
ENDBRANCH  22  23
ENDBRANCH  21  22
ENDBRANCH  20  21
ENDBRANCH  18  20
ENDBRANCH  17  18
BRANCH  17  28
HETATM   28  O1  UNL     1      -0.289   2.872   1.547  1.00  0.00    -0.395 OA
ATOM     29  H1  UNL     1      -1.215   2.685   1.443  1.00  0.00     0.210 HD
ENDBRANCH  17  28
ENDBRANCH  16  17
ENDBRANCH  15  16
ENDBRANCH   1  15
BRANCH   3  30
HETATM   30  O3  UNL     1      -0.178  -2.789  -0.704  1.00  0.00    -0.368 OA
ATOM     31  H3  UNL     1      -0.198  -3.077  -1.609  1.00  0.00     0.212 HD
ENDBRANCH   3  30
BRANCH   5  32
HETATM   32  O5  UNL     1      -4.644  -2.405   0.037  1.00  0.00    -0.386 OA
ATOM     33  H5  UNL     1      -5.365  -1.843   0.294  1.00  0.00     0.210 HD
ENDBRANCH   5  32
BRANCH   4  34
HETATM   34  O4  UNL     1      -2.510  -3.593  -0.034  1.00  0.00    -0.388 OA
ATOM     35  H4  UNL     1      -3.367  -3.981  -0.164  1.00  0.00     0.210 HD
ENDBRANCH   4  34
BRANCH  10  36
HETATM   36  O6  UNL     1      -4.606   2.892   0.519  1.00  0.00    -0.395 OA
ATOM     37  H6  UNL     1      -4.379   3.021   1.432  1.00  0.00     0.210 HD
ENDBRANCH  10  36
TORSDOF 16
