REMARK  15 active torsions:
REMARK  status: ('A' for Active; 'I' for Inactive)
REMARK    1  A    between atoms: C3_3  and  N1_4 
REMARK    2  A    between atoms: N1_4  and  C4_5 
REMARK    3  A    between atoms: C7_8  and  C8_9 
REMARK    4  A    between atoms: C11_12  and  N2_13 
REMARK    5  A    between atoms: N2_13  and  C12_15 
REMARK    6  A    between atoms: C12_15  and  O1_16 
REMARK    7  A    between atoms: C12_15  and  C13_18 
REMARK    8  A    between atoms: C13_18  and  C14_19 
REMARK    9  A    between atoms: C13_18  and  N3_23 
REMARK   10  A    between atoms: C14_19  and  C15_20 
REMARK   11  A    between atoms: C22_32  and  C23_33 
REMARK   12  A    between atoms: C23_33  and  C24_34 
REMARK   13  A    between atoms: C28_41  and  C29_42 
REMARK   14  A    between atoms: C29_42  and  C30_43 
REMARK   15  A    between atoms: C37_53  and  C38_54 
ROOT
HETATM    1  C1  UNL     1       6.338   2.817   2.645  1.00  0.00     0.014 C 
HETATM    2  C2  UNL     1       5.409   2.173   2.218  1.00  0.00    -0.098 C 
HETATM    3  C3  UNL     1       4.258   1.423   1.676  1.00  0.00     0.215 C 
ENDROOT
BRANCH   3   4
HETATM    4  N1  UNL     1       4.517  -0.018   1.630  1.00  0.00    -0.375 N 
HETATM    5  C6  UNL     1       4.613  -0.627   0.536  1.00  0.00     0.012 C 
HETATM    6  C7  UNL     1       4.856  -1.963  -0.015  1.00  0.00     0.035 C 
HETATM    7  C11 UNL     1       4.427  -0.189  -0.915  1.00  0.00     0.130 C 
HETATM    8  C10 UNL     1       5.419  -1.275  -1.307  1.00  0.00     0.041 C 
BRANCH   4   9
HETATM    9  C4  UNL     1       4.598  -0.643   2.916  1.00  0.00     0.119 C 
HETATM   10  C5  UNL     1       5.791  -0.317   3.739  1.00  0.00     0.026 C 
ENDBRANCH   4   9
BRANCH   6  11
HETATM   11  C8  UNL     1       5.879  -2.847   0.614  1.00  0.00     0.006 C 
HETATM   12  C9  UNL     1       7.274  -2.276   0.614  1.00  0.00     0.006 C 
ENDBRANCH   6  11
BRANCH   7  13
HETATM   13  N2  UNL     1       3.132  -0.421  -1.454  1.00  0.00    -0.363 N 
ATOM     14  H2  UNL     1       2.931  -1.398  -1.667  1.00  0.00     0.162 HD
BRANCH  13  15
HETATM   15  C12 UNL     1       2.085   0.466  -1.742  1.00  0.00     0.135 C 
BRANCH  15  16
HETATM   16  O1  UNL     1       2.404   1.705  -1.477  1.00  0.00    -0.348 OA
ATOM     17  H1  UNL     1       1.695   2.306  -1.672  1.00  0.00     0.219 HD
ENDBRANCH  15  16
BRANCH  15  18
HETATM   18  C13 UNL     1       0.743   0.202  -2.271  1.00  0.00     0.163 C 
BRANCH  18  19
HETATM   19  C14 UNL     1       0.741  -0.619  -3.495  1.00  0.00     0.037 C 
BRANCH  19  20
HETATM   20  C15 UNL     1       1.422  -0.113  -4.721  1.00  0.00    -0.020 C 
HETATM   21  C16 UNL     1       1.165  -1.203  -5.801  1.00  0.00     0.009 C 
HETATM   22  C17 UNL     1       2.901   0.106  -4.625  1.00  0.00     0.009 C 
ENDBRANCH  19  20
ENDBRANCH  18  19
BRANCH  18  23
HETATM   23  N3  UNL     1      -0.277  -0.172  -1.268  1.00  0.00    -0.321 N 
HETATM   24  C18 UNL     1      -0.128  -1.466  -0.700  1.00  0.00     0.267 C 
HETATM   25  O2  UNL     1       0.933  -1.813  -0.046  1.00  0.00    -0.266 OA
HETATM   26  C19 UNL     1      -1.075  -2.627  -0.722  1.00  0.00     0.076 C 
HETATM   27  C20 UNL     1      -2.276  -2.498  -1.567  1.00  0.00     0.074 C 
HETATM   28  N4  UNL     1      -1.268  -3.233   0.574  1.00  0.00    -0.324 N 
HETATM   29  C21 UNL     1      -1.696  -2.613   1.764  1.00  0.00     0.244 C 
ATOM     30  H4  UNL     1      -1.070  -4.232   0.635  1.00  0.00     0.169 HD
HETATM   31  O3  UNL     1      -0.954  -2.707   2.812  1.00  0.00    -0.271 OA
HETATM   32  C22 UNL     1      -2.947  -1.833   1.972  1.00  0.00     0.177 C 
HETATM   33  N5  UNL     1      -2.725  -0.932   3.079  1.00  0.00    -0.343 N 
HETATM   34  C27 UNL     1      -3.087   0.395   3.240  1.00  0.00     0.265 C 
ATOM     35  H5  UNL     1      -2.221  -1.338   3.868  1.00  0.00     0.163 HD
HETATM   36  O4  UNL     1      -3.583   0.688   4.405  1.00  0.00    -0.266 OA
HETATM   37  C28 UNL     1      -2.983   1.496   2.275  1.00  0.00     0.084 C 
HETATM   38  N6  UNL     1      -2.204   1.643   1.321  1.00  0.00    -0.324 N 
HETATM   39  C36 UNL     1      -1.178   1.110   0.633  1.00  0.00     0.245 C 
ATOM     40  H6  UNL     1      -2.436   2.531   0.876  1.00  0.00     0.169 HD
HETATM   41  O5  UNL     1       0.023   0.918   1.034  1.00  0.00    -0.271 OA
HETATM   42  C37 UNL     1      -1.362   0.642  -0.813  1.00  0.00     0.184 C 
BRANCH  32  43
HETATM   43  C23 UNL     1      -4.062  -2.832   2.259  1.00  0.00     0.038 C 
BRANCH  43  44
HETATM   44  C24 UNL     1      -5.330  -2.089   2.470  1.00  0.00    -0.020 C 
HETATM   45  C25 UNL     1      -5.720  -1.266   1.243  1.00  0.00     0.009 C 
HETATM   46  C26 UNL     1      -6.499  -3.007   2.776  1.00  0.00     0.009 C 
ENDBRANCH  43  44
ENDBRANCH  32  43
BRANCH  37  47
HETATM   47  C29 UNL     1      -3.961   2.620   2.559  1.00  0.00     0.101 C 
BRANCH  47  48
HETATM   48  C30 UNL     1      -3.924   3.716   1.621  1.00  0.00    -0.052 A 
HETATM   49  C31 UNL     1      -4.857   3.844   0.605  1.00  0.00     0.007 A 
HETATM   50  C32 UNL     1      -4.786   4.911  -0.296  1.00  0.00     0.001 A 
HETATM   51  C33 UNL     1      -3.789   5.860  -0.197  1.00  0.00     0.000 A 
HETATM   52  C34 UNL     1      -2.865   5.741   0.803  1.00  0.00     0.001 A 
HETATM   53  C35 UNL     1      -2.954   4.682   1.678  1.00  0.00     0.007 A 
ENDBRANCH  47  48
ENDBRANCH  37  47
BRANCH  42  54
HETATM   54  C38 UNL     1      -1.928   1.765  -1.534  1.00  0.00     0.010 C 
HETATM   55  C39 UNL     1      -1.177   2.976  -1.885  1.00  0.00     0.012 C 
HETATM   56  C40 UNL     1      -2.818   1.365  -2.715  1.00  0.00     0.012 C 
ENDBRANCH  42  54
ENDBRANCH  18  23
ENDBRANCH  15  18
ENDBRANCH  13  15
ENDBRANCH   7  13
ENDBRANCH   3   4
TORSDOF 15
