REMARK  11 active torsions:
REMARK  status: ('A' for Active; 'I' for Inactive)
REMARK    1  A    between atoms: O1_2  and  C2_3 
REMARK    2  A    between atoms: C2_3  and  C3_5 
REMARK    3  A    between atoms: C3_5  and  C4_6 
REMARK    4  A    between atoms: C3_5  and  N1_10 
REMARK    5  A    between atoms: C4_6  and  C5_7 
REMARK    6  A    between atoms: N1_10  and  C6_13 
REMARK    7  A    between atoms: C6_13  and  C8_15 
REMARK    8  A    between atoms: C9_16  and  O5_17 
REMARK    9  A    between atoms: C12_21  and  C13_22 
REMARK   10  A    between atoms: C13_22  and  O6_23 
REMARK   11  A    between atoms: N2_25  and  O7_27 
ROOT
HETATM    1  C8  UNL     1      -1.657  -0.223  -0.858  1.00  0.00     0.056 C 
HETATM    2  C9  UNL     1      -2.447  -1.503  -0.715  1.00  0.00     0.125 C 
HETATM    3  C10 UNL     1      -3.738  -1.096  -0.027  1.00  0.00     0.033 C 
HETATM    4  C11 UNL     1      -3.673   0.420   0.134  1.00  0.00     0.016 C 
HETATM    5  C12 UNL     1      -2.161   0.705   0.186  1.00  0.00     0.070 C 
ENDROOT
BRANCH   1   6
HETATM    6  C6  UNL     1      -0.199  -0.553  -0.829  1.00  0.00     0.190 C 
HETATM    7  C7  UNL     1       0.019  -1.591  -1.926  1.00  0.00     0.040 C 
BRANCH   6   8
HETATM    8  N1  UNL     1       0.683   0.532  -0.948  1.00  0.00    -0.057 N 
ATOM      9  H12 UNL     1       0.413   1.280  -0.310  1.00  0.00     0.278 HD
ATOM     10  H11 UNL     1       0.545   1.005  -1.841  1.00  0.00     0.278 HD
BRANCH   8  11
HETATM   11  C3  UNL     1       2.047   0.203  -0.771  1.00  0.00     0.295 C 
BRANCH  11  12
HETATM   12  C2  UNL     1       2.454  -0.278   0.555  1.00  0.00     0.290 C 
HETATM   13  O2  UNL     1       1.779  -0.425   1.574  1.00  0.00    -0.263 OA
BRANCH  12  14
HETATM   14  O1  UNL     1       3.816  -0.622   0.682  1.00  0.00    -0.325 OA
HETATM   15  C1  UNL     1       4.323  -1.101   1.915  1.00  0.00     0.213 C 
ENDBRANCH  12  14
ENDBRANCH  11  12
BRANCH  11  16
HETATM   16  C4  UNL     1       2.982   1.345  -1.167  1.00  0.00     0.156 C 
BRANCH  16  17
HETATM   17  C5  UNL     1       2.956   2.474  -0.239  1.00  0.00     0.175 C 
HETATM   18  O3  UNL     1       3.712   3.454  -0.548  1.00  0.00    -0.648 OA
HETATM   19  O4  UNL     1       2.160   2.447   0.878  1.00  0.00    -0.648 OA
ENDBRANCH  16  17
ENDBRANCH  11  16
ENDBRANCH   8  11
ENDBRANCH   6   8
ENDBRANCH   1   6
BRANCH   2  20
HETATM   20  O5  UNL     1      -2.702  -2.001  -1.992  1.00  0.00    -0.395 OA
ATOM     21  H5  UNL     1      -3.199  -2.806  -1.902  1.00  0.00     0.210 HD
ENDBRANCH   2  20
BRANCH   5  22
HETATM   22  C13 UNL     1      -1.740   0.445   1.554  1.00  0.00     0.140 C 
HETATM   23  N2  UNL     1      -1.237   1.395   2.267  1.00  0.00    -0.251 N 
ATOM     24  H2  UNL     1      -0.952   1.175   3.221  1.00  0.00     0.196 HD
BRANCH  22  25
HETATM   25  O6  UNL     1      -1.847  -0.802   2.175  1.00  0.00    -0.348 OA
ATOM     26  H6  UNL     1      -1.572  -0.972   3.068  1.00  0.00     0.219 HD
ENDBRANCH  22  25
BRANCH  23  27
HETATM   27  O7  UNL     1      -1.061   2.678   1.827  1.00  0.00    -0.288 OA
ATOM     28  H7  UNL     1      -0.691   3.378   2.352  1.00  0.00     0.244 HD
ENDBRANCH  23  27
ENDBRANCH   5  22
TORSDOF 11
