REMARK  15 active torsions:
REMARK  status: ('A' for Active; 'I' for Inactive)
REMARK    1  A    between atoms: C2_2  and  C3_3 
REMARK       I    between atoms: C3_3  and  N1_5 
REMARK    2  A    between atoms: N1_5  and  C5_7 
REMARK    3  A    between atoms: C5_7  and  C6_8 
REMARK    4  A    between atoms: C5_7  and  C10_12 
REMARK    5  A    between atoms: C6_8  and  C7_9 
REMARK       I    between atoms: C10_12  and  N2_14 
REMARK       I    between atoms: N2_14  and  C11_16 
REMARK    6  A    between atoms: C11_16  and  C12_18 
REMARK    7  A    between atoms: N4_24  and  C17_25 
REMARK    8  A    between atoms: C17_25  and  O4_26 
REMARK    9  A    between atoms: C17_25  and  C18_28 
REMARK   10  A    between atoms: C18_28  and  N5_30 
REMARK       I    between atoms: N5_30  and  C20_32 
REMARK       I    between atoms: C20_32  and  N6_34 
REMARK   11  A    between atoms: N6_34  and  C21_35 
REMARK   12  A    between atoms: C21_35  and  C22_36 
REMARK   13  A    between atoms: C21_35  and  C26_40 
REMARK   14  A    between atoms: C22_36  and  C23_37 
REMARK   15  A    between atoms: C23_37  and  C24_38 
ROOT
HETATM    1  C12 UNL     1      -0.718  -0.544   0.851  1.00  0.00     0.206 C 
HETATM    2  C13 UNL     1      -0.527  -1.972   1.401  1.00  0.00     0.273 C 
HETATM    3  N3  UNL     1      -0.190  -2.752   0.213  1.00  0.00    -0.057 N 
HETATM    4  C14 UNL     1       1.041  -3.497   0.503  1.00  0.00     0.274 C 
HETATM    5  C15 UNL     1      -1.264  -3.652  -0.137  1.00  0.00     0.274 C 
HETATM    6  C16 UNL     1       0.023  -1.833  -0.853  1.00  0.00     0.363 C 
HETATM    7  N4  UNL     1       0.264  -0.503  -0.211  1.00  0.00    -0.325 N 
ENDROOT
BRANCH   7   8
HETATM    8  C17 UNL     1       1.208   0.393  -0.667  1.00  0.00     0.139 C 
BRANCH   8   9
HETATM    9  O4  UNL     1       1.980  -0.015  -1.631  1.00  0.00    -0.348 OA
ATOM     10  H4  UNL     1       2.630   0.602  -1.945  1.00  0.00     0.219 HD
ENDBRANCH   8   9
BRANCH   8  11
HETATM   11  C18 UNL     1       1.512   1.761  -0.259  1.00  0.00     0.158 C 
HETATM   12  C19 UNL     1       0.931   2.269   1.010  1.00  0.00     0.041 C 
BRANCH  11  13
HETATM   13  N5  UNL     1       2.911   2.127  -0.275  1.00  0.00    -0.320 N 
HETATM   14  C20 UNL     1       3.944   1.310   0.358  1.00  0.00     0.390 C 
HETATM   15  O5  UNL     1       3.440   0.234   0.841  1.00  0.00    -0.231 OA
HETATM   16  N6  UNL     1       5.230   1.688   0.416  1.00  0.00    -0.380 NA
ATOM     17  H5  UNL     1       3.187   2.988  -0.746  1.00  0.00     0.166 HD
BRANCH  16  18
HETATM   18  C21 UNL     1       6.567   2.047   0.495  1.00  0.00     0.269 C 
BRANCH  18  19
HETATM   19  C22 UNL     1       7.306   1.919   1.813  1.00  0.00     0.051 C 
BRANCH  19  20
HETATM   20  C23 UNL     1       7.375   0.508   2.310  1.00  0.00     0.003 C 
BRANCH  20  21
HETATM   21  C24 UNL     1       8.014  -0.426   1.342  1.00  0.00    -0.004 C 
HETATM   22  C25 UNL     1       9.443  -0.076   0.953  1.00  0.00     0.005 C 
ENDBRANCH  20  21
ENDBRANCH  19  20
ENDBRANCH  18  19
BRANCH  18  23
HETATM   23  C26 UNL     1       6.764   3.436   0.029  1.00  0.00     0.210 C 
HETATM   24  O6  UNL     1       5.891   4.257  -0.272  1.00  0.00    -0.646 OA
HETATM   25  O7  UNL     1       8.097   3.905  -0.100  1.00  0.00    -0.646 OA
ENDBRANCH  18  23
ENDBRANCH  16  18
ENDBRANCH  11  13
ENDBRANCH   8  11
ENDBRANCH   7   8
BRANCH   1  26
HETATM   26  C11 UNL     1      -2.093  -0.262   0.445  1.00  0.00     0.249 C 
HETATM   27  N2  UNL     1      -2.493   0.489  -0.640  1.00  0.00    -0.294 N 
HETATM   28  C10 UNL     1      -3.751   0.779  -1.183  1.00  0.00     0.247 C 
ATOM     29  H2  UNL     1      -1.720   0.918  -1.148  1.00  0.00     0.171 HD
HETATM   30  O2  UNL     1      -3.777   1.625  -2.147  1.00  0.00    -0.271 OA
HETATM   31  O3  UNL     1      -2.997  -0.787   1.214  1.00  0.00    -0.271 OA
BRANCH  28  32
HETATM   32  C5  UNL     1      -5.056   0.223  -0.773  1.00  0.00     0.179 C 
BRANCH  32  33
HETATM   33  N1  UNL     1      -6.194   1.058  -1.017  1.00  0.00    -0.340 N 
HETATM   34  C3  UNL     1      -7.004   1.500   0.105  1.00  0.00     0.242 C 
HETATM   35  O1  UNL     1      -7.969   2.313  -0.087  1.00  0.00    -0.268 OA
HETATM   36  C4  UNL     1      -6.620   1.563  -2.300  1.00  0.00     0.154 C 
BRANCH  34  37
HETATM   37  C2  UNL     1      -6.819   1.079   1.481  1.00  0.00     0.064 C 
HETATM   38  C1  UNL     1      -7.638   1.578   2.415  1.00  0.00     0.017 C 
ENDBRANCH  34  37
ENDBRANCH  32  33
BRANCH  32  39
HETATM   39  C6  UNL     1      -5.270  -1.200  -1.240  1.00  0.00     0.039 C 
BRANCH  39  40
HETATM   40  C7  UNL     1      -5.511  -1.447  -2.669  1.00  0.00    -0.020 C 
HETATM   41  C8  UNL     1      -4.433  -1.054  -3.634  1.00  0.00     0.009 C 
HETATM   42  C9  UNL     1      -5.764  -2.950  -2.835  1.00  0.00     0.009 C 
ENDBRANCH  39  40
ENDBRANCH  32  39
ENDBRANCH  28  32
ENDBRANCH   1  26
TORSDOF 15
