REMARK  15 active torsions:
REMARK  status: ('A' for Active; 'I' for Inactive)
REMARK    1  A    between atoms: C2_2  and  C3_3 
REMARK    2  A    between atoms: C3_3  and  N1_4 
REMARK    3  A    between atoms: N1_4  and  C4_5 
REMARK       I    between atoms: N1_4  and  C11_15 
REMARK    4  A    between atoms: C4_5  and  C5_6 
REMARK       I    between atoms: C5_6  and  N2_8 
REMARK    5  A    between atoms: N2_8  and  C6_10 
REMARK    6  A    between atoms: C11_15  and  C12_17 
REMARK    7  A    between atoms: C12_17  and  C13_18 
REMARK    8  A    between atoms: C13_18  and  N3_19 
REMARK       I    between atoms: N3_19  and  C14_21 
REMARK    9  A    between atoms: C14_21  and  C15_23 
REMARK   10  A    between atoms: C15_23  and  N4_24 
REMARK   11  A    between atoms: N4_24  and  C18_27 
REMARK   12  A    between atoms: C18_27  and  C19_28 
REMARK   13  A    between atoms: C19_28  and  C20_29 
REMARK   14  A    between atoms: C20_29  and  C21_30 
REMARK   15  A    between atoms: C21_30  and  C22_31 
ROOT
HETATM    1  N3  UNL     1      -1.120  -0.980   1.359  1.00  0.00    -0.356 N 
ATOM      2  H3  UNL     1      -1.649  -0.512   0.623  1.00  0.00     0.162 HD
HETATM    3  C14 UNL     1       0.195  -1.443   1.118  1.00  0.00     0.264 C 
HETATM    4  O3  UNL     1       0.813  -2.015   2.031  1.00  0.00    -0.267 OA
ENDROOT
BRANCH   3   5
HETATM    5  C15 UNL     1       0.769  -1.227  -0.190  1.00  0.00     0.275 C 
BRANCH   5   6
HETATM    6  N4  UNL     1       2.136  -1.695  -0.392  1.00  0.00    -0.050 N 
HETATM    7  C16 UNL     1       2.069  -3.157  -0.337  1.00  0.00     0.278 C 
HETATM    8  C17 UNL     1       2.481  -1.256  -1.727  1.00  0.00     0.278 C 
BRANCH   6   9
HETATM    9  C18 UNL     1       2.922  -1.201   0.663  1.00  0.00     0.242 C 
BRANCH   9  10
HETATM   10  C19 UNL     1       4.310  -0.691   0.365  1.00  0.00     0.028 C 
BRANCH  10  11
HETATM   11  C20 UNL     1       5.246  -1.680  -0.206  1.00  0.00     0.004 C 
BRANCH  11  12
HETATM   12  C21 UNL     1       6.616  -1.206  -0.444  1.00  0.00     0.034 C 
BRANCH  12  13
HETATM   13  C22 UNL     1       6.891  -0.085  -1.354  1.00  0.00     0.064 C 
HETATM   14  C23 UNL     1       8.416   0.143  -1.407  1.00  0.00     0.107 C 
HETATM   15  S1  UNL     1       8.862  -1.038  -2.719  1.00  0.00    -0.164 SA
HETATM   16  C24 UNL     1       7.234  -1.217  -3.502  1.00  0.00     0.101 C 
HETATM   17  C25 UNL     1       6.403  -0.231  -2.741  1.00  0.00     0.124 C 
HETATM   18  N5  UNL     1       6.480   1.117  -3.268  1.00  0.00    -0.335 N 
HETATM   19  C26 UNL     1       6.144   1.935  -2.146  1.00  0.00     0.317 C 
ATOM     20  H5  UNL     1       6.718   1.412  -4.215  1.00  0.00     0.164 HD
HETATM   21  O4  UNL     1       5.702   3.127  -2.278  1.00  0.00    -0.247 OA
HETATM   22  N6  UNL     1       6.381   1.212  -0.948  1.00  0.00    -0.331 N 
ATOM     23  H6  UNL     1       6.225   1.538   0.006  1.00  0.00     0.165 HD
ENDBRANCH  12  13
ENDBRANCH  11  12
ENDBRANCH  10  11
ENDBRANCH   9  10
ENDBRANCH   6   9
ENDBRANCH   5   6
ENDBRANCH   3   5
BRANCH   1  24
HETATM   24  C13 UNL     1      -1.699  -1.183   2.667  1.00  0.00     0.132 C 
BRANCH  24  25
HETATM   25  C12 UNL     1      -3.095  -0.610   2.785  1.00  0.00     0.122 C 
BRANCH  25  26
HETATM   26  C11 UNL     1      -3.024   0.843   2.520  1.00  0.00     0.222 C 
HETATM   27  N1  UNL     1      -4.178   1.654   2.634  1.00  0.00    -0.340 N 
HETATM   28  O2  UNL     1      -1.905   1.347   2.190  1.00  0.00    -0.273 OA
BRANCH  27  29
HETATM   29  C3  UNL     1      -4.154   3.084   2.376  1.00  0.00     0.153 C 
BRANCH  29  30
HETATM   30  C2  UNL     1      -3.832   3.855   3.591  1.00  0.00    -0.017 C 
HETATM   31  C1  UNL     1      -4.653   4.761   4.110  1.00  0.00     0.008 C 
ENDBRANCH  29  30
ENDBRANCH  27  29
BRANCH  27  32
HETATM   32  C4  UNL     1      -5.429   1.053   3.018  1.00  0.00     0.228 C 
BRANCH  32  33
HETATM   33  C5  UNL     1      -6.248   0.588   1.886  1.00  0.00     0.235 C 
HETATM   34  O1  UNL     1      -7.362   0.048   2.196  1.00  0.00    -0.272 OA
HETATM   35  N2  UNL     1      -5.911   0.690   0.527  1.00  0.00    -0.355 N 
ATOM     36  H2  UNL     1      -5.024   1.120   0.266  1.00  0.00     0.162 HD
BRANCH  35  37
HETATM   37  C6  UNL     1      -6.801   0.195  -0.526  1.00  0.00     0.084 C 
HETATM   38  C7  UNL     1      -6.155  -0.884  -1.318  1.00  0.00     0.025 C 
HETATM   39  C8  UNL     1      -6.109  -0.435  -2.740  1.00  0.00     0.002 C 
HETATM   40  C9  UNL     1      -6.370   1.047  -2.707  1.00  0.00     0.002 C 
HETATM   41  C10 UNL     1      -7.131   1.295  -1.451  1.00  0.00     0.025 C 
ENDBRANCH  35  37
ENDBRANCH  32  33
ENDBRANCH  27  32
ENDBRANCH  25  26
ENDBRANCH  24  25
ENDBRANCH   1  24
TORSDOF 15
