REMARK  7 active torsions:
REMARK  status: ('A' for Active; 'I' for Inactive)
REMARK    1  A    between atoms: O1_2  and  C2_3 
REMARK    2  A    between atoms: C2_3  and  C3_5 
REMARK    3  A    between atoms: C6_10  and  N2_11 
REMARK    4  A    between atoms: N2_11  and  C7_13 
REMARK    5  A    between atoms: N4_16  and  O3_17 
REMARK    6  A    between atoms: O3_17  and  N5_18 
REMARK    7  A    between atoms: C11_25  and  N7_26 
ROOT
HETATM    1  C3  UNL     1      -2.822  -0.026   0.020  1.00  0.00     0.134 A 
HETATM    2  C4  UNL     1      -2.311   0.443   1.230  1.00  0.00     0.040 A 
HETATM    3  C5  UNL     1      -3.174   0.994   2.308  1.00  0.00     0.071 C 
HETATM    4  N1  UNL     1      -0.995   0.417   1.479  1.00  0.00    -0.341 N 
ATOM      5  H1  UNL     1      -0.659   0.769   2.376  1.00  0.00     0.167 HD
HETATM    6  C6  UNL     1      -0.090  -0.059   0.585  1.00  0.00     0.151 A 
HETATM    7  C11 UNL     1      -0.592  -0.523  -0.613  1.00  0.00     0.146 A 
HETATM    8  N8  UNL     1      -1.914  -0.507  -0.885  1.00  0.00    -0.328 N 
HETATM    9  C12 UNL     1      -2.424  -1.000  -2.141  1.00  0.00     0.158 C 
ENDROOT
BRANCH   6  10
HETATM   10  N2  UNL     1       1.106  -0.030   0.933  1.00  0.00    -0.326 N 
ATOM     11  H2  UNL     1       1.203   0.362   1.869  1.00  0.00     0.169 HD
BRANCH  10  12
HETATM   12  C7  UNL     1       2.323  -0.373   0.420  1.00  0.00     0.127 C 
HETATM   13  N3  UNL     1       2.710  -1.608   0.191  1.00  0.00    -0.246 N 
HETATM   14  N4  UNL     1       4.002  -1.632  -0.333  1.00  0.00    -0.072 N 
ATOM     15  H3  UNL     1       2.143  -2.436   0.372  1.00  0.00     0.192 HD
HETATM   16  N6  UNL     1       4.600  -0.465   0.210  1.00  0.00    -0.075 NA
HETATM   17  C8  UNL     1       3.499   0.462   0.024  1.00  0.00     0.107 C 
HETATM   18  C9  UNL     1       3.670   1.642   0.951  1.00  0.00     0.044 C 
HETATM   19  C10 UNL     1       3.481   0.886  -1.398  1.00  0.00     0.044 C 
BRANCH  14  20
HETATM   20  O3  UNL     1       4.494  -2.563  -1.146  1.00  0.00    -0.128 OA
BRANCH  20  21
HETATM   21  N5  UNL     1       5.637  -2.109  -1.688  1.00  0.00    -0.283 N 
ATOM     22  H52 UNL     1       6.048  -1.195  -1.497  1.00  0.00     0.186 HD
ATOM     23  H51 UNL     1       6.014  -2.823  -2.311  1.00  0.00     0.186 HD
ENDBRANCH  20  21
ENDBRANCH  14  20
ENDBRANCH  10  12
ENDBRANCH   6  10
BRANCH   7  24
HETATM   24  N7  UNL     1       0.233  -0.965  -1.452  1.00  0.00    -0.382 N 
ATOM     25  H72 UNL     1       1.232  -0.977  -1.246  1.00  0.00     0.157 HD
ATOM     26  H71 UNL     1      -0.138  -1.308  -2.338  1.00  0.00     0.157 HD
ENDBRANCH   7  24
BRANCH   1  27
HETATM   27  C2  UNL     1      -4.251   0.011  -0.231  1.00  0.00     0.311 C 
HETATM   28  O2  UNL     1      -4.813  -0.384  -1.290  1.00  0.00    -0.258 OA
BRANCH  27  29
HETATM   29  O1  UNL     1      -5.123   0.509   0.727  1.00  0.00    -0.321 OA
HETATM   30  C1  UNL     1      -6.516   0.571   0.542  1.00  0.00     0.213 C 
ENDBRANCH  27  29
ENDBRANCH   1  27
TORSDOF 7
