REMARK  4 active torsions:
REMARK  status: ('A' for Active; 'I' for Inactive)
REMARK    1  A    between atoms: C2_2  and  C4_4 
REMARK    2  A    between atoms: C5_5  and  N1_6 
REMARK    3  A    between atoms: N2_8  and  N3_10 
REMARK    4  A    between atoms: C6_13  and  O1_14 
ROOT
HETATM    1  C4  UNL     1      -0.314  -0.434   0.707  1.00  0.00     0.044 C 
HETATM    2  C5  UNL     1      -1.003   0.771   0.138  1.00  0.00     0.138 C 
HETATM    3  C6  UNL     1       0.397   1.395   0.082  1.00  0.00     0.168 C 
HETATM    4  C7  UNL     1       0.961   0.011   0.032  1.00  0.00     0.079 C 
HETATM    5  C8  UNL     1       2.094  -0.159   1.059  1.00  0.00     0.162 C 
HETATM    6  N4  UNL     1       3.330   0.120   0.408  1.00  0.00    -0.305 N 
ATOM      7  H4  UNL     1       4.127   0.676   0.719  1.00  0.00     0.173 HD
HETATM    8  S1  UNL     1       3.086  -0.766  -1.078  1.00  0.00     0.299 S 
HETATM    9  O2  UNL     1       3.450  -2.193  -0.939  1.00  0.00    -0.188 OA
HETATM   10  O3  UNL     1       3.815  -0.039  -2.141  1.00  0.00    -0.188 OA
HETATM   11  N5  UNL     1       1.351  -0.550  -1.180  1.00  0.00    -0.183 NA
HETATM   12  C9  UNL     1       1.131   0.174  -2.399  1.00  0.00     0.132 C 
ENDROOT
BRANCH   1  13
HETATM   13  C2  UNL     1      -0.886  -1.758   0.415  1.00  0.00    -0.014 C 
HETATM   14  C1  UNL     1      -2.323  -1.771   0.991  1.00  0.00     0.010 C 
HETATM   15  C3  UNL     1      -1.065  -2.148  -1.006  1.00  0.00     0.010 C 
ENDBRANCH   1  13
BRANCH   3  16
HETATM   16  O1  UNL     1       0.586   2.257  -0.942  1.00  0.00    -0.391 OA
ATOM     17  H1  UNL     1       1.453   2.643  -0.977  1.00  0.00     0.210 HD
ENDBRANCH   3  16
BRANCH   2  18
HETATM   18  N1  UNL     1      -1.894   1.465   1.064  1.00  0.00    -0.315 N 
HETATM   19  N2  UNL     1      -2.078   2.697   1.013  1.00  0.00    -0.253 N 
ATOM     20  H2  UNL     1      -1.603   3.265   0.311  1.00  0.00     0.207 HD
ATOM     21  H1  UNL     1      -2.382   0.923   1.777  1.00  0.00     0.182 HD
BRANCH  19  22
HETATM   22  N3  UNL     1      -2.944   3.283   1.932  1.00  0.00    -0.331 N 
ATOM     23  H32 UNL     1      -3.411   2.701   2.628  1.00  0.00     0.178 HD
ATOM     24  H31 UNL     1      -3.095   4.291   1.890  1.00  0.00     0.178 HD
ENDBRANCH  19  22
ENDBRANCH   2  18
TORSDOF 4
