REMARK  6 active torsions:
REMARK  status: ('A' for Active; 'I' for Inactive)
REMARK    1  A    between atoms: N1_2  and  C2_4 
REMARK    2  A    between atoms: C3_7  and  N3_8 
REMARK    3  A    between atoms: N3_8  and  N4_10 
REMARK    4  A    between atoms: C4_15  and  N6_16 
REMARK    5  A    between atoms: N6_16  and  N7_18 
REMARK    6  A    between atoms: C5_20  and  C6_21 
ROOT
HETATM    1  C2  UNL     1       3.703   1.121   0.224  1.00  0.00     0.706 A 
HETATM    2  N2  UNL     1       4.422  -0.039   0.268  1.00  0.00    -0.020 N 
ATOM      3  H2  UNL     1       5.409  -0.002   0.524  1.00  0.00     0.203 HD
HETATM    4  C3  UNL     1       3.865  -1.229  -0.017  1.00  0.00     0.725 A 
HETATM    5  N5  UNL     1       2.563  -1.241  -0.349  1.00  0.00    -0.018 N 
ATOM      6  H5  UNL     1       2.108  -2.127  -0.570  1.00  0.00     0.203 HD
HETATM    7  C4  UNL     1       1.852  -0.100  -0.393  1.00  0.00     0.726 A 
HETATM    8  N8  UNL     1       2.407   1.091  -0.109  1.00  0.00    -0.020 N 
ATOM      9  H8  UNL     1       1.856   1.948  -0.146  1.00  0.00     0.203 HD
ENDROOT
BRANCH   7  10
HETATM   10  N6  UNL     1       0.602  -0.113  -0.712  1.00  0.00    -0.131 N 
ATOM     11  H6  UNL     1       0.086   0.767  -0.737  1.00  0.00     0.205 HD
BRANCH  10  12
HETATM   12  N7  UNL     1      -0.036  -1.253  -1.011  1.00  0.00    -0.297 N 
HETATM   13  C5  UNL     1      -1.211  -1.614  -0.922  1.00  0.00     0.119 C 
ATOM     14  H7  UNL     1       0.579  -1.972  -1.392  1.00  0.00     0.186 HD
BRANCH  13  15
HETATM   15  C6  UNL     1      -2.334  -0.854  -0.430  1.00  0.00    -0.019 A 
HETATM   16  C7  UNL     1      -2.266   0.431   0.030  1.00  0.00     0.013 A 
HETATM   17  C8  UNL     1      -3.438   1.064   0.485  1.00  0.00     0.007 A 
HETATM   18  C9  UNL     1      -4.655   0.454   0.490  1.00  0.00    -0.062 A 
HETATM   19  C10 UNL     1      -5.885   1.131   0.972  1.00  0.00     0.048 C 
HETATM   20  C11 UNL     1      -4.731  -0.841   0.028  1.00  0.00     0.007 A 
HETATM   21  C12 UNL     1      -3.592  -1.475  -0.421  1.00  0.00     0.013 A 
ENDBRANCH  13  15
ENDBRANCH  10  12
ENDBRANCH   7  10
BRANCH   4  22
HETATM   22  N3  UNL     1       4.571  -2.329   0.030  1.00  0.00    -0.138 N 
ATOM     23  H3  UNL     1       5.559  -2.306   0.283  1.00  0.00     0.205 HD
BRANCH  22  24
HETATM   24  N4  UNL     1       3.939  -3.532  -0.275  1.00  0.00    -0.331 N 
ATOM     25  H42 UNL     1       2.951  -3.538  -0.527  1.00  0.00     0.177 HD
ATOM     26  H41 UNL     1       4.490  -4.390  -0.238  1.00  0.00     0.177 HD
ENDBRANCH  22  24
ENDBRANCH   4  22
BRANCH   1  27
HETATM   27  N1  UNL     1       4.251   2.252   0.500  1.00  0.00    -0.229 N 
HETATM   28  C1  UNL     1       3.494   3.472   0.454  1.00  0.00     0.165 C 
ATOM     29  H1  UNL     1       5.238   2.283   0.755  1.00  0.00     0.177 HD
ENDBRANCH   1  27
TORSDOF 6
