REMARK  0 active torsions:
REMARK  status: ('A' for Active; 'I' for Inactive)
ROOT
HETATM    1  C1  UNL     1      -1.412  -0.402   0.117  1.00  0.00     0.002 C 
HETATM    2  C2  UNL     1      -0.342  -1.412  -0.135  1.00  0.00     0.002 C 
HETATM    3  C3  UNL     1       1.055  -0.932   0.303  1.00  0.00     0.027 C 
HETATM    4  C4  UNL     1       1.241   0.342  -0.424  1.00  0.00     0.099 A 
HETATM    5  N1  UNL     1       1.508   1.622  -0.079  1.00  0.00    -0.409 N 
ATOM      6  H1  UNL     1       2.200   2.371  -0.111  1.00  0.00     0.154 HD
HETATM    7  C5  UNL     1       0.261   1.271   0.339  1.00  0.00     0.099 A 
HETATM    8  C6  UNL     1      -1.006   1.011  -0.348  1.00  0.00     0.027 C 
ENDROOT
TORSDOF 0
