REMARK  3 active torsions:
REMARK  status: ('A' for Active; 'I' for Inactive)
REMARK    1  A    between atoms: C4_14  and  C5_15 
REMARK    2  A    between atoms: C5_15  and  O3_16 
REMARK    3  A    between atoms: C5_15  and  O4_18 
ROOT
HETATM    1  O1  UNL     1      -2.676  -2.874   0.711  1.00  0.00    -0.194 OA
HETATM    2  S1  UNL     1      -2.049  -2.183  -0.485  1.00  0.00     0.285 S 
HETATM    3  O2  UNL     1      -2.551  -2.874  -1.732  1.00  0.00    -0.194 OA
HETATM    4  N1  UNL     1      -0.324  -2.253  -0.394  1.00  0.00    -0.291 N 
ATOM      5  H1  UNL     1       0.229  -3.074  -0.149  1.00  0.00     0.174 HD
HETATM    6  C1  UNL     1       0.194  -0.958  -0.722  1.00  0.00     0.205 C 
HETATM    7  S2  UNL     1       1.914  -1.117  -1.208  1.00  0.00    -0.116 SA
HETATM    8  C2  UNL     1       2.883  -0.465   0.173  1.00  0.00     0.215 C 
HETATM    9  N2  UNL     1       2.125  -0.256   1.352  1.00  0.00    -0.327 N 
ATOM     10  H2  UNL     1       2.502  -0.527   2.260  1.00  0.00     0.181 HD
HETATM   11  N3  UNL     1       0.871   0.318   1.261  1.00  0.00    -0.308 N 
ATOM     12  H3  UNL     1       0.616   1.020   1.956  1.00  0.00     0.186 HD
HETATM   13  C3  UNL     1       0.016   0.029   0.369  1.00  0.00     0.056 C 
HETATM   14  C4  UNL     1      -1.289   0.736   0.405  1.00  0.00     0.169 C 
HETATM   15  S3  UNL     1      -2.565  -0.155  -0.524  1.00  0.00     0.001 SA
ENDROOT
BRANCH  14  16
HETATM   16  C5  UNL     1      -1.172   2.171  -0.050  1.00  0.00     0.274 C 
BRANCH  16  17
HETATM   17  O3  UNL     1      -0.692   2.146  -1.369  1.00  0.00    -0.370 OA
ATOM     18  H3  UNL     1      -0.618   3.049  -1.655  1.00  0.00     0.212 HD
ENDBRANCH  16  17
BRANCH  16  19
HETATM   19  O4  UNL     1      -0.224   2.857   0.706  1.00  0.00    -0.370 OA
ATOM     20  H4  UNL     1      -0.150   3.760   0.420  1.00  0.00     0.212 HD
ENDBRANCH  16  19
ENDBRANCH  14  16
TORSDOF 3
