REMARK  12 active torsions:
REMARK  status: ('A' for Active; 'I' for Inactive)
REMARK    1  A    between atoms: N1_1  and  C1_5 
REMARK    2  A    between atoms: C1_5  and  N2_6 
REMARK    3  A    between atoms: C1_5  and  C11_23 
REMARK    4  A    between atoms: C1_5  and  C12_28 
REMARK       I    between atoms: N2_6  and  C2_8 
REMARK    5  A    between atoms: C2_8  and  C3_10 
REMARK    6  A    between atoms: C7_14  and  N3_15 
REMARK    7  A    between atoms: C11_23  and  O2_24 
REMARK    8  A    between atoms: C11_23  and  O3_26 
REMARK    9  A    between atoms: C12_28  and  C13_29 
REMARK   10  A    between atoms: C12_28  and  N6_34 
REMARK   11  A    between atoms: C13_29  and  O4_30 
REMARK   12  A    between atoms: C13_29  and  O5_32 
ROOT
HETATM    1  C1  UNL     1      -1.688   0.625  -0.313  1.00  0.00     0.293 C 
ENDROOT
BRANCH   1   2
HETATM    2  N1  UNL     1      -1.505   1.697   0.582  1.00  0.00    -0.042 N 
ATOM      3  H13 UNL     1      -0.826   1.513   1.320  1.00  0.00     0.278 HD
ATOM      4  H12 UNL     1      -1.019   2.498   0.179  1.00  0.00     0.278 HD
ATOM      5  H11 UNL     1      -2.444   1.906   0.922  1.00  0.00     0.278 HD
ENDBRANCH   1   2
BRANCH   1   6
HETATM    6  N2  UNL     1      -0.320   0.320  -0.808  1.00  0.00    -0.315 N 
HETATM    7  C2  UNL     1       0.810   0.289   0.034  1.00  0.00     0.254 C 
HETATM    8  O1  UNL     1       0.744   0.549   1.257  1.00  0.00    -0.268 OA
ATOM      9  H2  UNL     1      -0.193   0.124  -1.801  1.00  0.00     0.165 HD
BRANCH   7  10
HETATM   10  C3  UNL     1       2.113  -0.054  -0.515  1.00  0.00     0.034 A 
HETATM   11  C4  UNL     1       2.291  -0.522  -1.797  1.00  0.00     0.017 A 
HETATM   12  C5  UNL     1       3.567  -0.832  -2.273  1.00  0.00     0.003 A 
HETATM   13  C6  UNL     1       4.683  -0.675  -1.465  1.00  0.00     0.031 A 
HETATM   14  C7  UNL     1       4.533  -0.206  -0.173  1.00  0.00     0.058 A 
HETATM   15  C10 UNL     1       3.264   0.082   0.244  1.00  0.00     0.048 A 
BRANCH  14  16
HETATM   16  N3  UNL     1       5.665  -0.031   0.691  1.00  0.00    -0.252 N 
HETATM   17  C8  UNL     1       5.662  -0.067   2.044  1.00  0.00     0.136 A 
HETATM   18  C9  UNL     1       6.924   0.141   2.498  1.00  0.00     0.128 A 
HETATM   19  N4  UNL     1       7.697   0.304   1.412  1.00  0.00    -0.296 N 
HETATM   20  N5  UNL     1       6.918   0.196   0.349  1.00  0.00    -0.236 N 
ATOM     21  H4  UNL     1       8.702   0.479   1.408  1.00  0.00     0.187 HD
ATOM     22  H5  UNL     1       7.245   0.278  -0.614  1.00  0.00     0.209 HD
ENDBRANCH  14  16
ENDBRANCH   7  10
ENDBRANCH   1   6
BRANCH   1  23
HETATM   23  C11 UNL     1      -2.371   1.181  -1.588  1.00  0.00     0.317 C 
BRANCH  23  24
HETATM   24  O2  UNL     1      -3.571   1.776  -1.343  1.00  0.00    -0.367 OA
ATOM     25  H2  UNL     1      -3.990   2.117  -2.125  1.00  0.00     0.212 HD
ENDBRANCH  23  24
BRANCH  23  26
HETATM   26  O3  UNL     1      -2.398   0.219  -2.584  1.00  0.00    -0.367 OA
ATOM     27  H3  UNL     1      -2.817   0.560  -3.366  1.00  0.00     0.212 HD
ENDBRANCH  23  26
ENDBRANCH   1  23
BRANCH   1  28
HETATM   28  C12 UNL     1      -2.399  -0.587   0.125  1.00  0.00     0.126 C 
BRANCH  28  29
HETATM   29  C13 UNL     1      -1.956  -1.485   1.186  1.00  0.00     0.307 C 
BRANCH  29  30
HETATM   30  O4  UNL     1      -0.757  -2.154   0.990  1.00  0.00    -0.366 OA
ATOM     31  H4  UNL     1      -0.469  -2.739   1.681  1.00  0.00     0.213 HD
ENDBRANCH  29  30
BRANCH  29  32
HETATM   32  O5  UNL     1      -2.030  -0.962   2.480  1.00  0.00    -0.366 OA
ATOM     33  H5  UNL     1      -1.742  -1.547   3.171  1.00  0.00     0.213 HD
ENDBRANCH  29  32
ENDBRANCH  28  29
BRANCH  28  34
HETATM   34  N6  UNL     1      -3.845  -0.340   0.326  1.00  0.00    -0.267 N 
HETATM   35  C14 UNL     1      -4.908  -0.804  -0.335  1.00  0.00     0.117 A 
HETATM   36  C15 UNL     1      -6.071  -0.316   0.243  1.00  0.00     0.038 A 
HETATM   37  C16 UNL     1      -5.643   0.468   1.289  1.00  0.00     0.109 A 
HETATM   38  N7  UNL     1      -4.301   0.421   1.295  1.00  0.00    -0.306 N 
ATOM     39  H7  UNL     1      -3.711   0.913   1.966  1.00  0.00     0.186 HD
ENDBRANCH  28  34
ENDBRANCH   1  28
TORSDOF 12
