REMARK  11 active torsions:
REMARK  status: ('A' for Active; 'I' for Inactive)
REMARK    1  A    between atoms: C5_7  and  C6_8 
REMARK    2  A    between atoms: C9_11  and  C10_12 
REMARK    3  A    between atoms: C9_11  and  N5_37 
REMARK       I    between atoms: C10_12  and  N2_14 
REMARK    4  A    between atoms: N2_14  and  C11_16 
REMARK    5  A    between atoms: C11_16  and  C12_17 
REMARK    6  A    between atoms: C11_16  and  C19_24 
REMARK    7  A    between atoms: C12_17  and  C13_18 
REMARK       I    between atoms: C19_24  and  N3_26 
REMARK    8  A    between atoms: N3_26  and  C20_28 
REMARK    9  A    between atoms: C20_28  and  C21_29 
REMARK   10  A    between atoms: C21_29  and  C22_30 
REMARK   11  A    between atoms: C22_30  and  N4_31 
ROOT
HETATM    1  C10 UNL     1      -1.935  -0.107  -0.010  1.00  0.00     0.248 C 
HETATM    2  O1  UNL     1      -1.805  -0.188   1.223  1.00  0.00    -0.271 OA
HETATM    3  N2  UNL     1      -0.964   0.576  -0.771  1.00  0.00    -0.346 N 
ATOM      4  H2  UNL     1      -1.069   0.643  -1.783  1.00  0.00     0.163 HD
ENDROOT
BRANCH   3   5
HETATM    5  C11 UNL     1       0.224   1.206  -0.100  1.00  0.00     0.177 C 
BRANCH   5   6
HETATM    6  C12 UNL     1       0.118   2.644  -0.507  1.00  0.00     0.039 C 
BRANCH   6   7
HETATM    7  C13 UNL     1       1.117   3.599   0.003  1.00  0.00    -0.012 C 
HETATM    8  C14 UNL     1       1.071   3.659   1.522  1.00  0.00     0.005 C 
HETATM    9  C15 UNL     1       1.387   5.047   2.021  1.00  0.00     0.000 C 
HETATM   10  C16 UNL     1       0.252   5.947   1.671  1.00  0.00     0.000 C 
HETATM   11  C17 UNL     1      -0.166   5.741   0.258  1.00  0.00     0.000 C 
HETATM   12  C18 UNL     1       0.804   4.962  -0.590  1.00  0.00     0.005 C 
ENDBRANCH   6   7
ENDBRANCH   5   6
BRANCH   5  13
HETATM   13  C19 UNL     1       1.368   0.472  -0.669  1.00  0.00     0.240 C 
HETATM   14  O2  UNL     1       1.173  -0.337  -1.607  1.00  0.00    -0.271 OA
HETATM   15  N3  UNL     1       2.677   0.646  -0.192  1.00  0.00    -0.359 N 
ATOM     16  H3  UNL     1       2.816   1.309   0.571  1.00  0.00     0.162 HD
BRANCH  15  17
HETATM   17  C20 UNL     1       3.850  -0.047  -0.703  1.00  0.00     0.124 C 
BRANCH  17  18
HETATM   18  C21 UNL     1       3.710  -1.517  -0.490  1.00  0.00     0.050 C 
BRANCH  18  19
HETATM   19  C22 UNL     1       4.916  -2.291  -0.990  1.00  0.00     0.274 C 
BRANCH  19  20
HETATM   20  N4  UNL     1       6.121  -1.853  -0.281  1.00  0.00     0.092 N 
HETATM   21  C23 UNL     1       6.077  -2.238   1.095  1.00  0.00     0.298 C 
HETATM   22  C24 UNL     1       7.358  -3.007   1.429  1.00  0.00     0.198 C 
HETATM   23  O3  UNL     1       7.555  -4.072   0.587  1.00  0.00    -0.388 OA
HETATM   24  C25 UNL     1       7.675  -3.707  -0.741  1.00  0.00     0.198 C 
HETATM   25  C26 UNL     1       7.315  -2.257  -0.960  1.00  0.00     0.298 C 
ENDBRANCH  19  20
ENDBRANCH  18  19
ENDBRANCH  17  18
ENDBRANCH  15  17
ENDBRANCH   5  13
ENDBRANCH   3   5
BRANCH   1  26
HETATM   26  C9  UNL     1      -3.088  -0.704  -0.739  1.00  0.00     0.137 C 
HETATM   27  C8  UNL     1      -3.841   0.386  -1.432  1.00  0.00     0.044 C 
HETATM   28  C7  UNL     1      -5.256   0.325  -0.850  1.00  0.00     0.012 C 
HETATM   29  C6  UNL     1      -5.396  -1.133  -0.450  1.00  0.00     0.023 C 
HETATM   30  C28 UNL     1      -4.043  -1.391   0.172  1.00  0.00     0.052 C 
BRANCH  29  31
HETATM   31  C5  UNL     1      -6.469  -1.339   0.528  1.00  0.00    -0.030 A 
HETATM   32  C2  UNL     1      -6.907  -2.517   1.044  1.00  0.00     0.011 A 
HETATM   33  C1  UNL     1      -6.399  -3.875   0.723  1.00  0.00     0.068 C 
HETATM   34  N1  UNL     1      -7.916  -2.299   1.928  1.00  0.00    -0.369 N 
HETATM   35  C3  UNL     1      -8.110  -0.969   1.963  1.00  0.00     0.088 A 
ATOM     36  H1  UNL     1      -8.425  -3.005   2.460  1.00  0.00     0.165 HD
HETATM   37  C4  UNL     1      -7.227  -0.350   1.106  1.00  0.00     0.026 A 
ENDBRANCH  29  31
BRANCH  26  38
HETATM   38  N5  UNL     1      -2.565  -1.672  -1.688  1.00  0.00    -0.252 N 
HETATM   39  C27 UNL     1      -1.788  -2.705  -1.354  1.00  0.00     0.221 A 
HETATM   40  N6  UNL     1      -1.504  -3.376  -2.492  1.00  0.00    -0.279 N 
HETATM   41  N7  UNL     1      -2.119  -2.724  -3.459  1.00  0.00    -0.227 N 
ATOM     42  H6  UNL     1      -0.931  -4.215  -2.584  1.00  0.00     0.189 HD
HETATM   43  N8  UNL     1      -2.766  -1.692  -2.996  1.00  0.00    -0.224 N 
ATOM     44  H7  UNL     1      -2.092  -2.993  -4.443  1.00  0.00     0.210 HD
ATOM     45  H8  UNL     1      -3.320  -1.028  -3.537  1.00  0.00     0.210 HD
ENDBRANCH  26  38
ENDBRANCH   1  26
TORSDOF 11
