REMARK  2 active torsions:
REMARK  status: ('A' for Active; 'I' for Inactive)
REMARK    1  A    between atoms: C5_6  and  C6_7 
REMARK    2  A    between atoms: C6_7  and  N1_8 
ROOT
HETATM    1  C1  UNL     1       4.648   1.522   0.199  1.00  0.00     0.002 A 
HETATM    2  C2  UNL     1       5.120   0.637   1.142  1.00  0.00     0.002 A 
HETATM    3  C3  UNL     1       4.209  -0.298   1.598  1.00  0.00     0.021 A 
HETATM    4  C4  UNL     1       2.894  -0.312   1.105  1.00  0.00     0.033 A 
HETATM    5  S1  UNL     1       1.468  -1.259   1.368  1.00  0.00    -0.072 SA
HETATM    6  C5  UNL     1       0.433  -0.467   0.287  1.00  0.00     0.091 A 
HETATM    7  N2  UNL     1       1.205   0.459  -0.213  1.00  0.00    -0.351 N 
ATOM      8  H2  UNL     1       0.834   1.102  -0.912  1.00  0.00     0.166 HD
HETATM    9  C15 UNL     1       2.444   0.571   0.171  1.00  0.00     0.050 A 
HETATM   10  C16 UNL     1       3.376   1.529  -0.297  1.00  0.00     0.031 A 
ENDROOT
BRANCH   6  11
HETATM   11  C6  UNL     1      -1.009  -0.736  -0.048  1.00  0.00     0.208 C 
HETATM   12  C11 UNL     1      -0.999  -0.976  -1.566  1.00  0.00     0.049 C 
HETATM   13  C12 UNL     1      -0.345  -2.350  -1.615  1.00  0.00     0.003 C 
HETATM   14  C13 UNL     1      -0.792  -3.075  -0.373  1.00  0.00     0.003 C 
HETATM   15  C14 UNL     1      -1.352  -2.032   0.583  1.00  0.00     0.049 C 
BRANCH  11  16
HETATM   16  N1  UNL     1      -1.743   0.384   0.289  1.00  0.00     0.104 N 
HETATM   17  C7  UNL     1      -1.292   1.677  -0.129  1.00  0.00     0.274 C 
HETATM   18  C8  UNL     1      -2.484   2.624   0.059  1.00  0.00     0.032 C 
HETATM   19  C9  UNL     1      -3.535   1.715   0.633  1.00  0.00     0.032 C 
HETATM   20  C10 UNL     1      -3.157   0.371   0.012  1.00  0.00     0.274 C 
ENDBRANCH  11  16
ENDBRANCH   6  11
TORSDOF 2
