REMARK  2 active torsions:
REMARK  status: ('A' for Active; 'I' for Inactive)
REMARK    1  A    between atoms: C3_3  and  C4_4 
REMARK    2  A    between atoms: N1_7  and  C7_8 
ROOT
HETATM    1  C4  UNL     1       3.007  -0.301  -0.138  1.00  0.00     0.061 A 
HETATM    2  C5  UNL     1       2.465  -1.493  -0.570  1.00  0.00     0.050 A 
HETATM    3  C6  UNL     1       1.101  -1.361  -0.434  1.00  0.00     0.113 A 
HETATM    4  N1  UNL     1       0.811  -0.132   0.065  1.00  0.00    -0.297 N 
HETATM    5  N2  UNL     1       1.987   0.459   0.223  1.00  0.00    -0.298 N 
ATOM      6  H2  UNL     1       2.094   1.406   0.587  1.00  0.00     0.187 HD
ENDROOT
BRANCH   4   7
HETATM    7  C7  UNL     1      -0.455   0.446   0.369  1.00  0.00     0.115 C 
HETATM    8  C8  UNL     1      -1.298   0.762  -0.845  1.00  0.00     0.011 C 
HETATM    9  C9  UNL     1      -2.330   1.792  -0.360  1.00  0.00     0.011 C 
HETATM   10  C13 UNL     1      -2.077  -0.403  -1.364  1.00  0.00     0.011 C 
HETATM   11  C10 UNL     1      -3.122   1.200   0.765  1.00  0.00    -0.013 C 
HETATM   12  C11 UNL     1      -3.932   0.055   0.215  1.00  0.00     0.009 C 
HETATM   13  C16 UNL     1      -2.285   0.736   1.924  1.00  0.00     0.011 C 
HETATM   14  C12 UNL     1      -2.970  -0.979  -0.320  1.00  0.00    -0.013 C 
HETATM   15  C14 UNL     1      -2.099  -1.417   0.857  1.00  0.00     0.011 C 
HETATM   16  C15 UNL     1      -1.271  -0.292   1.386  1.00  0.00     0.011 C 
ENDBRANCH   4   7
BRANCH   1  17
HETATM   17  C3  UNL     1       4.415   0.064  -0.082  1.00  0.00     0.016 A 
HETATM   18  C2  UNL     1       5.467  -0.735  -0.460  1.00  0.00     0.040 A 
HETATM   19  C1  UNL     1       6.611   0.008  -0.240  1.00  0.00     0.142 A 
HETATM   20  O1  UNL     1       6.253   1.186   0.242  1.00  0.00    -0.334 OA
HETATM   21  C17 UNL     1       4.942   1.243   0.346  1.00  0.00     0.155 A 
ENDBRANCH   1  17
TORSDOF 2
