REMARK  7 active torsions:
REMARK  status: ('A' for Active; 'I' for Inactive)
REMARK    1  A    between atoms: N3_9  and  O1_10 
REMARK    2  A    between atoms: C4_12  and  C5_13 
REMARK    3  A    between atoms: C5_13  and  C6_14 
REMARK    4  A    between atoms: C6_14  and  C7_15 
REMARK    5  A    between atoms: C7_15  and  O2_16 
REMARK    6  A    between atoms: O2_16  and  C8_17 
REMARK    7  A    between atoms: C9_18  and  C10_19 
ROOT
HETATM    1  C1  UNL     1       3.925  -1.878  -0.636  1.00  0.00     0.071 C 
HETATM    2  C2  UNL     1       4.755  -0.718  -0.284  1.00  0.00     0.047 A 
HETATM    3  N1  UNL     1       6.112  -0.734  -0.405  1.00  0.00    -0.333 N 
ATOM      4  H1  UNL     1       6.569  -1.578  -0.750  1.00  0.00     0.168 HD
HETATM    5  C3  UNL     1       6.867   0.334  -0.081  1.00  0.00     0.193 A 
HETATM    6  S1  UNL     1       8.496   0.329  -0.220  1.00  0.00    -0.039 SA
HETATM    7  N2  UNL     1       6.275   1.449   0.375  1.00  0.00    -0.248 N 
ATOM      8  H2  UNL     1       6.844   2.259   0.621  1.00  0.00     0.192 HD
HETATM    9  N3  UNL     1       4.964   1.508   0.508  1.00  0.00    -0.151 N 
HETATM   10  C4  UNL     1       4.186   0.436   0.184  1.00  0.00     0.156 A 
ENDROOT
BRANCH  10  11
HETATM   11  C5  UNL     1       2.755   0.511   0.332  1.00  0.00    -0.040 C 
BRANCH  11  12
HETATM   12  C6  UNL     1       1.560   0.589   0.470  1.00  0.00    -0.072 C 
BRANCH  12  13
HETATM   13  C7  UNL     1       0.112   0.705   0.651  1.00  0.00     0.282 C 
BRANCH  13  14
HETATM   14  O2  UNL     1      -0.482  -0.183  -0.277  1.00  0.00    -0.292 OA
BRANCH  14  15
HETATM   15  C8  UNL     1      -1.867  -0.222  -0.264  1.00  0.00     0.056 C 
HETATM   16  C9  UNL     1      -3.073  -0.238  -0.243  1.00  0.00    -0.067 C 
BRANCH  16  17
HETATM   17  C10 UNL     1      -4.531  -0.238  -0.200  1.00  0.00     0.015 C 
HETATM   18  C11 UNL     1      -4.960   1.128   0.294  1.00  0.00     0.028 C 
HETATM   19  C12 UNL     1      -5.143  -0.429  -1.567  1.00  0.00     0.028 C 
HETATM   20  C13 UNL     1      -5.051  -1.267   0.774  1.00  0.00     0.028 C 
ENDBRANCH  16  17
ENDBRANCH  14  15
ENDBRANCH  13  14
ENDBRANCH  12  13
ENDBRANCH  11  12
ENDBRANCH  10  11
BRANCH   9  21
HETATM   21  O1  UNL     1       4.394   2.657   0.974  1.00  0.00    -0.267 OA
ATOM     22  H1  UNL     1       3.450   2.699   1.070  1.00  0.00     0.247 HD
ENDBRANCH   9  21
TORSDOF 7
