REMARK  2 active torsions:
REMARK  status: ('A' for Active; 'I' for Inactive)
REMARK    1  A    between atoms: C3_4  and  C4_5 
REMARK    2  A    between atoms: C4_5  and  C5_6 
ROOT
HETATM    1  C5  UNL     1      -0.395  -0.741  -0.886  1.00  0.00     0.051 C 
HETATM    2  C6  UNL     1      -0.075  -2.133  -0.429  1.00  0.00     0.239 C 
HETATM    3  N1  UNL     1      -1.382  -2.608   0.073  1.00  0.00    -0.072 N 
ATOM      4  H11 UNL     1      -1.395  -3.547   0.472  1.00  0.00     0.277 HD
ATOM      5  H12 UNL     1      -2.086  -2.815  -0.636  1.00  0.00     0.277 HD
HETATM    6  C7  UNL     1      -1.698  -1.514   0.993  1.00  0.00     0.271 C 
HETATM    7  C8  UNL     1      -1.456  -0.314   0.062  1.00  0.00     0.154 C 
HETATM    8  C9  UNL     1      -2.796  -0.068  -0.605  1.00  0.00     0.043 C 
HETATM    9  C10 UNL     1      -3.387   1.111   0.121  1.00  0.00     0.030 C 
HETATM   10  C11 UNL     1      -2.139   1.852   0.571  1.00  0.00     0.233 C 
HETATM   11  N2  UNL     1      -1.189   0.808   0.887  1.00  0.00    -0.064 N 
ATOM     12  H21 UNL     1      -0.222   1.125   0.814  1.00  0.00     0.278 HD
ATOM     13  H22 UNL     1      -1.185   0.571   1.879  1.00  0.00     0.278 HD
ENDROOT
BRANCH   1  14
HETATM   14  C4  UNL     1       0.709   0.166  -1.165  1.00  0.00     0.040 C 
BRANCH  14  15
HETATM   15  C3  UNL     1       1.693   0.533  -0.137  1.00  0.00     0.121 C 
HETATM   16  O1  UNL     1       2.581   1.422  -0.815  1.00  0.00    -0.386 OA
HETATM   17  C2  UNL     1       3.594   1.628   0.105  1.00  0.00     0.168 C 
HETATM   18  C1  UNL     1       3.932   0.228   0.569  1.00  0.00     0.029 C 
HETATM   19  C12 UNL     1       2.634  -0.516   0.334  1.00  0.00     0.034 C 
ENDBRANCH  14  15
ENDBRANCH   1  14
TORSDOF 2
