REMARK  4 active torsions:
REMARK  status: ('A' for Active; 'I' for Inactive)
REMARK    1  A    between atoms: C2_2  and  O1_4 
REMARK    2  A    between atoms: C2_2  and  C4_6 
REMARK    3  A    between atoms: C10_13  and  C11_14 
REMARK    4  A    between atoms: C11_14  and  O2_15 
ROOT
HETATM    1  C4  UNL     1      -0.800  -0.562   0.612  1.00  0.00     0.053 C 
HETATM    2  C5  UNL     1      -0.661  -2.083   0.528  1.00  0.00     0.011 C 
HETATM    3  C6  UNL     1      -0.015  -2.512  -0.756  1.00  0.00     0.031 C 
HETATM    4  C7  UNL     1       1.129  -1.690  -1.219  1.00  0.00     0.273 C 
HETATM    5  N1  UNL     1       0.866  -0.282  -1.090  1.00  0.00     0.094 N 
HETATM    6  C8  UNL     1       2.067   0.518  -1.243  1.00  0.00     0.273 C 
HETATM    7  C9  UNL     1       1.682   1.811  -0.556  1.00  0.00     0.039 C 
HETATM    8  C10 UNL     1       0.915   1.333   0.663  1.00  0.00     0.045 C 
HETATM    9  C12 UNL     1       0.562  -0.042   0.328  1.00  0.00     0.236 C 
ENDROOT
BRANCH   1  10
HETATM   10  C2  UNL     1      -1.898  -0.068  -0.274  1.00  0.00     0.056 C 
HETATM   11  C1  UNL     1      -3.251  -0.668   0.071  1.00  0.00     0.045 C 
HETATM   12  C3  UNL     1      -2.113   1.426  -0.179  1.00  0.00     0.045 C 
BRANCH  10  13
HETATM   13  O1  UNL     1      -1.679  -0.391  -1.610  1.00  0.00    -0.390 OA
ATOM     14  H1  UNL     1      -0.833  -0.016  -1.826  1.00  0.00     0.210 HD
ENDBRANCH  10  13
ENDBRANCH   1  10
BRANCH   8  15
HETATM   15  C11 UNL     1       1.969   1.328   1.795  1.00  0.00     0.170 C 
BRANCH  15  16
HETATM   16  O2  UNL     1       2.473   2.612   1.965  1.00  0.00    -0.400 OA
ATOM     17  H2  UNL     1       3.120   2.609   2.660  1.00  0.00     0.209 HD
ENDBRANCH  15  16
ENDBRANCH   8  15
TORSDOF 4
