REMARK  9 active torsions:
REMARK  status: ('A' for Active; 'I' for Inactive)
REMARK    1  A    between atoms: C2_2  and  N1_4 
REMARK       I    between atoms: N1_4  and  C4_6 
REMARK    2  A    between atoms: C4_6  and  C5_8 
REMARK    3  A    between atoms: N2_11  and  C8_12 
REMARK    4  A    between atoms: C8_12  and  C9_13 
REMARK    5  A    between atoms: C11_17  and  S1_18 
REMARK    6  A    between atoms: S1_18  and  C12_19 
REMARK    7  A    between atoms: C12_19  and  C13_20 
REMARK    8  A    between atoms: N4_24  and  C15_25 
REMARK    9  A    between atoms: C15_25  and  C16_26 
ROOT
HETATM    1  C9  UNL     1       2.311  -0.301  -1.307  1.00  0.00     0.046 A 
HETATM    2  C10 UNL     1       2.745   0.871  -1.932  1.00  0.00     0.117 A 
HETATM    3  N3  UNL     1       3.991   1.051  -1.533  1.00  0.00    -0.345 N 
ATOM      4  H3  UNL     1       4.577   1.833  -1.825  1.00  0.00     0.167 HD
HETATM    5  C11 UNL     1       4.389   0.092  -0.706  1.00  0.00     0.146 A 
HETATM    6  N4  UNL     1       3.339  -0.769  -0.554  1.00  0.00    -0.328 N 
ENDROOT
BRANCH   1   7
HETATM    7  C8  UNL     1       0.982  -0.888  -1.475  1.00  0.00     0.175 C 
BRANCH   7   8
HETATM    8  N2  UNL     1      -0.031  -0.456  -0.572  1.00  0.00    -0.406 N 
HETATM    9  C7  UNL     1      -0.347   0.926  -0.580  1.00  0.00     0.118 C 
HETATM   10  C6  UNL     1      -1.687   1.085  -1.321  1.00  0.00     0.034 C 
HETATM   11  C5  UNL     1      -2.706   0.620  -0.280  1.00  0.00     0.088 C 
HETATM   12  C20 UNL     1      -2.417  -0.825   0.027  1.00  0.00    -0.020 C 
HETATM   13  C19 UNL     1      -1.130  -1.350  -0.481  1.00  0.00     0.126 C 
HETATM   14  C21 UNL     1      -2.564  -1.063   1.532  1.00  0.00     0.017 C 
HETATM   15  C22 UNL     1      -3.538  -1.641  -0.637  1.00  0.00     0.017 C 
BRANCH  11  16
HETATM   16  C4  UNL     1      -4.079   0.896  -0.710  1.00  0.00     0.223 C 
HETATM   17  N1  UNL     1      -5.211   0.629   0.103  1.00  0.00    -0.357 N 
ATOM     18  H1  UNL     1      -5.070   0.228   1.030  1.00  0.00     0.162 HD
HETATM   19  O1  UNL     1      -4.281   1.391  -1.847  1.00  0.00    -0.273 OA
BRANCH  17  20
HETATM   20  C2  UNL     1      -6.562   0.908  -0.344  1.00  0.00     0.076 C 
HETATM   21  C1  UNL     1      -7.289   1.806   0.625  1.00  0.00     0.032 C 
HETATM   22  C3  UNL     1      -7.282  -0.428  -0.451  1.00  0.00     0.032 C 
ENDBRANCH  17  20
ENDBRANCH  11  16
ENDBRANCH   7   8
ENDBRANCH   1   7
BRANCH   6  23
HETATM   23  C15 UNL     1       3.384  -1.954   0.282  1.00  0.00     0.135 C 
BRANCH  23  24
HETATM   24  C16 UNL     1       2.982  -1.698   1.693  1.00  0.00     0.004 A 
HETATM   25  C17 UNL     1       3.016  -2.915   2.642  1.00  0.00     0.007 A 
HETATM   26  C18 UNL     1       1.718  -2.381   2.163  1.00  0.00     0.007 A 
ENDBRANCH  23  24
ENDBRANCH   6  23
BRANCH   5  27
HETATM   27  S1  UNL     1       5.948  -0.122   0.099  1.00  0.00    -0.088 SA
BRANCH  27  28
HETATM   28  C12 UNL     1       7.149   1.147  -0.245  1.00  0.00     0.160 C 
BRANCH  28  29
HETATM   29  C13 UNL     1       6.849   2.499   0.299  1.00  0.00     0.248 C 
HETATM   30  C14 UNL     1       8.001   3.432  -0.103  1.00  0.00     0.091 C 
HETATM   31  F1  UNL     1       5.718   3.100  -0.194  1.00  0.00    -0.206 F 
HETATM   32  F2  UNL     1       6.854   2.504   1.699  1.00  0.00    -0.206 F 
ENDBRANCH  28  29
ENDBRANCH  27  28
ENDBRANCH   5  27
TORSDOF 9
