REMARK  4 active torsions:
REMARK  status: ('A' for Active; 'I' for Inactive)
REMARK    1  A    between atoms: C3_3  and  O1_4 
REMARK    2  A    between atoms: C12_14  and  O2_16 
REMARK       I    between atoms: N1_24  and  C19_25 
REMARK    3  A    between atoms: C19_25  and  O5_27 
REMARK    4  A    between atoms: O5_27  and  C20_28 
ROOT
HETATM    1  C1  UNL     1       1.976  -2.157  -2.594  1.00  0.00     0.102 C 
HETATM    2  C2  UNL     1       1.811  -2.072  -1.385  1.00  0.00    -0.128 C 
HETATM    3  C3  UNL     1       1.608  -1.968   0.061  1.00  0.00     0.193 C 
HETATM    4  C4  UNL     1       0.752  -3.065   0.532  1.00  0.00     0.075 C 
HETATM    5  C5  UNL     1      -0.719  -2.729   0.557  1.00  0.00     0.013 C 
HETATM    6  C6  UNL     1      -0.890  -1.566   1.452  1.00  0.00     0.014 C 
HETATM    7  C7  UNL     1      -0.427  -1.830   2.873  1.00  0.00     0.012 C 
HETATM    8  C8  UNL     1      -0.174  -0.355   0.865  1.00  0.00     0.083 C 
HETATM    9  C9  UNL     1      -0.299   0.806   1.851  1.00  0.00     0.072 C 
HETATM   10  C10 UNL     1      -1.650   1.012   1.211  1.00  0.00    -0.042 C 
HETATM   11  C11 UNL     1      -2.880   1.467   1.227  1.00  0.00     0.019 C 
HETATM   12  C12 UNL     1      -3.815   1.290   0.083  1.00  0.00     0.103 C 
HETATM   13  C13 UNL     1      -3.975   2.588  -0.622  1.00  0.00     0.053 C 
HETATM   14  C14 UNL     1      -3.432   0.118  -0.769  1.00  0.00     0.089 C 
HETATM   15  C15 UNL     1      -3.769   0.427  -2.207  1.00  0.00     0.049 C 
HETATM   16  C16 UNL     1      -4.417  -1.018  -0.409  1.00  0.00     0.049 C 
HETATM   17  O3  UNL     1      -2.209  -0.414  -0.534  1.00  0.00    -0.360 OA
HETATM   18  C17 UNL     1      -1.200   0.332  -0.053  1.00  0.00     0.108 C 
HETATM   19  C18 UNL     1      -0.591   1.193  -1.112  1.00  0.00     0.054 C 
HETATM   20  N1  UNL     1       1.119  -0.603   0.413  1.00  0.00    -0.272 N 
HETATM   21  C19 UNL     1       2.156   0.348   0.218  1.00  0.00     0.367 C 
HETATM   22  O4  UNL     1       2.098   1.583   0.410  1.00  0.00    -0.238 OA
ENDROOT
BRANCH   3  23
HETATM   23  O1  UNL     1       2.892  -2.159   0.624  1.00  0.00    -0.361 OA
ATOM     24  H1  UNL     1       2.760  -2.092   1.562  1.00  0.00     0.213 HD
ENDBRANCH   3  23
BRANCH  21  25
HETATM   25  O5  UNL     1       3.450  -0.024  -0.245  1.00  0.00    -0.294 OA
BRANCH  25  26
HETATM   26  C20 UNL     1       4.477   0.947  -0.434  1.00  0.00     0.061 C 
HETATM   27  C21 UNL     1       4.057   1.989  -1.453  1.00  0.00     0.046 C 
HETATM   28  C22 UNL     1       5.688   0.245  -0.993  1.00  0.00     0.046 C 
HETATM   29  C23 UNL     1       4.774   1.577   0.909  1.00  0.00     0.046 C 
ENDBRANCH  25  26
ENDBRANCH  21  25
BRANCH  12  30
HETATM   30  O2  UNL     1      -5.079   1.048   0.698  1.00  0.00    -0.383 OA
ATOM     31  H2  UNL     1      -5.676   0.935  -0.032  1.00  0.00     0.211 HD
ENDBRANCH  12  30
TORSDOF 4
