REMARK  2 active torsions:
REMARK  status: ('A' for Active; 'I' for Inactive)
REMARK    1  A    between atoms: N1_1  and  C1_4 
REMARK    2  A    between atoms: C4_14  and  C5_15 
ROOT
HETATM    1  C1  UNL     1       2.822   0.132  -0.756  1.00  0.00     0.716 A 
HETATM    2  N2  UNL     1       3.847  -0.055   0.095  1.00  0.00    -0.139 N 
ATOM      3  H2  UNL     1       4.802   0.009  -0.257  1.00  0.00     0.189 HD
HETATM    4  C2  UNL     1       3.645  -0.327   1.411  1.00  0.00     0.352 A 
HETATM    5  O1  UNL     1       4.647  -0.494   2.164  1.00  0.00    -0.246 OA
HETATM    6  N3  UNL     1       2.395  -0.413   1.881  1.00  0.00    -0.138 N 
ATOM      7  H3  UNL     1       2.232  -0.617   2.867  1.00  0.00     0.189 HD
HETATM    8  C3  UNL     1       1.346  -0.228   1.044  1.00  0.00     0.724 A 
HETATM    9  N4  UNL     1       0.014  -0.243   1.176  1.00  0.00    -0.172 N 
ATOM     10  H4  UNL     1      -0.477  -0.421   2.052  1.00  0.00     0.186 HD
HETATM   11  C4  UNL     1      -0.591   0.007   0.004  1.00  0.00     0.147 A 
HETATM   12  N6  UNL     1       0.410   0.181  -0.879  1.00  0.00    -0.248 N 
ATOM     13  H6  UNL     1       0.290   0.388  -1.870  1.00  0.00     0.190 HD
HETATM   14  N7  UNL     1       1.587   0.040  -0.256  1.00  0.00     0.092 N 
ENDROOT
BRANCH  11  15
HETATM   15  C5  UNL     1      -2.026   0.067  -0.217  1.00  0.00     0.012 A 
HETATM   16  C6  UNL     1      -2.587   0.329  -1.448  1.00  0.00     0.032 A 
HETATM   17  C7  UNL     1      -3.956   0.382  -1.639  1.00  0.00     0.088 A 
HETATM   18  N5  UNL     1      -4.737   0.164  -0.557  1.00  0.00    -0.375 N 
HETATM   19  C8  UNL     1      -4.261  -0.094   0.662  1.00  0.00     0.088 A 
ATOM     20  H5  UNL     1      -5.749   0.199  -0.680  1.00  0.00     0.164 HD
HETATM   21  C9  UNL     1      -2.875  -0.146   0.845  1.00  0.00     0.032 A 
ENDBRANCH  11  15
BRANCH   1  22
HETATM   22  N1  UNL     1       3.059   0.389  -2.001  1.00  0.00    -0.232 N 
ATOM     23  H12 UNL     1       4.002   0.459  -2.383  1.00  0.00     0.174 HD
ATOM     24  H11 UNL     1       2.282   0.531  -2.646  1.00  0.00     0.174 HD
ENDBRANCH   1  22
TORSDOF 2
