REMARK  2 active torsions:
REMARK  status: ('A' for Active; 'I' for Inactive)
REMARK    1  A    between atoms: C3_7  and  C4_8 
REMARK    2  A    between atoms: C15_23  and  C16_24 
ROOT
HETATM    1  C4  UNL     1      -0.361  -1.035   0.701  1.00  0.00     0.035 A 
HETATM    2  C5  UNL     1      -0.811  -2.334   0.825  1.00  0.00     0.029 A 
HETATM    3  C6  UNL     1      -2.152  -2.657   0.718  1.00  0.00     0.034 A 
HETATM    4  C7  UNL     1      -3.022  -1.613   0.481  1.00  0.00     0.060 A 
HETATM    5  N4  UNL     1      -4.362  -1.628   0.333  1.00  0.00    -0.354 N 
ATOM      6  H4  UNL     1      -4.964  -2.450   0.376  1.00  0.00     0.166 HD
HETATM    7  C8  UNL     1      -4.755  -0.379   0.121  1.00  0.00     0.045 A 
HETATM    8  C9  UNL     1      -6.040   0.115  -0.089  1.00  0.00     0.030 A 
HETATM    9  C10 UNL     1      -6.232   1.471  -0.293  1.00  0.00     0.002 A 
HETATM   10  C11 UNL     1      -5.123   2.279  -0.277  1.00  0.00     0.001 A 
HETATM   11  C12 UNL     1      -3.838   1.788  -0.068  1.00  0.00     0.016 A 
HETATM   12  C13 UNL     1      -3.660   0.454   0.131  1.00  0.00     0.020 A 
HETATM   13  C14 UNL     1      -2.531  -0.329   0.363  1.00  0.00     0.072 A 
HETATM   14  N5  UNL     1      -1.215  -0.033   0.470  1.00  0.00    -0.355 N 
ATOM     15  H5  UNL     1      -0.884   0.927   0.377  1.00  0.00     0.166 HD
ENDROOT
BRANCH   1  16
HETATM   16  C3  UNL     1       1.111  -0.856   0.841  1.00  0.00     0.161 C 
HETATM   17  N3  UNL     1       1.838  -1.849   0.095  1.00  0.00    -0.352 N 
HETATM   18  C2  UNL     1       2.141  -1.335  -1.069  1.00  0.00     0.187 C 
ATOM     19  H3  UNL     1       2.075  -2.787   0.417  1.00  0.00     0.163 HD
HETATM   20  N1  UNL     1       1.643   0.005  -1.161  1.00  0.00    -0.349 N 
HETATM   21  N2  UNL     1       2.861  -2.057  -2.051  1.00  0.00    -0.064 NA
HETATM   22  C1  UNL     1       1.299   0.687  -2.347  1.00  0.00     0.153 C 
HETATM   23  C15 UNL     1       1.573   0.455   0.250  1.00  0.00     0.148 C 
BRANCH  23  24
HETATM   24  C16 UNL     1       2.956   0.758   0.682  1.00  0.00    -0.033 A 
HETATM   25  C17 UNL     1       3.514   0.395   1.884  1.00  0.00     0.009 A 
HETATM   26  C18 UNL     1       4.840   0.737   2.188  1.00  0.00     0.001 A 
HETATM   27  C19 UNL     1       5.640   1.441   1.318  1.00  0.00     0.000 A 
HETATM   28  C20 UNL     1       5.078   1.803   0.116  1.00  0.00     0.001 A 
HETATM   29  C21 UNL     1       3.778   1.473  -0.193  1.00  0.00     0.009 A 
ENDBRANCH  23  24
ENDBRANCH   1  16
TORSDOF 2
