REMARK  13 active torsions:
REMARK  status: ('A' for Active; 'I' for Inactive)
REMARK    1  A    between atoms: N1_1  and  C1_5 
REMARK    2  A    between atoms: C1_5  and  C2_6 
REMARK    3  A    between atoms: C2_6  and  N2_7 
REMARK    4  A    between atoms: N2_7  and  C3_10 
REMARK    5  A    between atoms: C3_10  and  C4_11 
REMARK       I    between atoms: C4_11  and  N3_13 
REMARK    6  A    between atoms: N3_13  and  C5_15 
REMARK    7  A    between atoms: N5_20  and  C7_21 
REMARK    8  A    between atoms: C7_21  and  C8_22 
REMARK    9  A    between atoms: C8_22  and  N6_23 
REMARK   10  A    between atoms: N6_23  and  C9_25 
REMARK   11  A    between atoms: C9_25  and  C10_26 
REMARK   12  A    between atoms: C10_26  and  N7_27 
REMARK   13  A    between atoms: N7_27  and  N8_28 
ROOT
HETATM    1  C5  UNL     1      -0.871  -2.042   0.304  1.00  0.00     0.273 C 
HETATM    2  C6  UNL     1      -0.198  -1.576   1.534  1.00  0.00     0.268 C 
HETATM    3  O2  UNL     1      -0.419  -2.009   2.677  1.00  0.00    -0.269 OA
HETATM    4  N4  UNL     1       0.715  -0.567   1.126  1.00  0.00    -0.263 N 
ATOM      5  H4  UNL     1       1.194   0.077   1.756  1.00  0.00     0.190 HD
HETATM    6  N5  UNL     1       0.860  -0.585  -0.251  1.00  0.00    -0.255 N 
HETATM    7  C11 UNL     1       0.044  -1.607  -0.771  1.00  0.00     0.270 C 
HETATM    8  O3  UNL     1       0.069  -2.093  -1.958  1.00  0.00    -0.269 OA
ENDROOT
BRANCH   1   9
HETATM    9  N3  UNL     1      -2.106  -1.303   0.175  1.00  0.00    -0.339 N 
HETATM   10  C4  UNL     1      -3.337  -1.974   0.066  1.00  0.00     0.244 C 
HETATM   11  O1  UNL     1      -3.369  -3.218   0.080  1.00  0.00    -0.272 OA
ATOM     12  H3  UNL     1      -2.085  -0.283   0.163  1.00  0.00     0.163 HD
BRANCH  10  13
HETATM   13  C3  UNL     1      -4.586  -1.212  -0.064  1.00  0.00     0.334 C 
BRANCH  13  14
HETATM   14  N2  UNL     1      -4.289   0.194  -0.051  1.00  0.00    -0.065 N 
ATOM     15  H22 UNL     1      -3.602   0.431  -0.767  1.00  0.00     0.277 HD
ATOM     16  H21 UNL     1      -3.754   0.449   0.779  1.00  0.00     0.277 HD
BRANCH  14  17
HETATM   17  C2  UNL     1      -5.479   1.013  -0.177  1.00  0.00     0.260 C 
BRANCH  17  18
HETATM   18  C1  UNL     1      -6.342   0.886   1.078  1.00  0.00     0.257 C 
BRANCH  18  19
HETATM   19  N1  UNL     1      -5.536   1.340   2.218  1.00  0.00    -0.078 N 
ATOM     20  H13 UNL     1      -4.646   0.848   2.296  1.00  0.00     0.274 HD
ATOM     21  H12 UNL     1      -5.159   2.279   2.089  1.00  0.00     0.274 HD
ATOM     22  H11 UNL     1      -6.112   1.255   3.056  1.00  0.00     0.274 HD
ENDBRANCH  18  19
ENDBRANCH  17  18
ENDBRANCH  14  17
ENDBRANCH  13  14
ENDBRANCH  10  13
ENDBRANCH   1   9
BRANCH   6  23
HETATM   23  C7  UNL     1       1.716   0.303  -1.035  1.00  0.00     0.171 C 
BRANCH  23  24
HETATM   24  C8  UNL     1       3.059  -0.421  -1.107  1.00  0.00     0.135 C 
BRANCH  24  25
HETATM   25  N6  UNL     1       3.983   0.364  -1.857  1.00  0.00    -0.418 N 
ATOM     26  H6  UNL     1       4.326   0.077  -2.774  1.00  0.00     0.153 HD
BRANCH  25  27
HETATM   27  C9  UNL     1       4.393   1.580  -1.232  1.00  0.00     0.131 C 
BRANCH  27  28
HETATM   28  C10 UNL     1       5.237   1.415  -0.013  1.00  0.00     0.153 C 
BRANCH  28  29
HETATM   29  N7  UNL     1       6.466   0.717  -0.240  1.00  0.00    -0.147 NA
BRANCH  29  30
HETATM   30  N8  UNL     1       7.214   0.591   0.913  1.00  0.00    -0.348 N 
ATOM     31  H82 UNL     1       6.912   0.958   1.815  1.00  0.00     0.172 HD
ATOM     32  H81 UNL     1       8.090   0.094   0.751  1.00  0.00     0.172 HD
ENDBRANCH  29  30
ENDBRANCH  28  29
ENDBRANCH  27  28
ENDBRANCH  25  27
ENDBRANCH  24  25
ENDBRANCH  23  24
ENDBRANCH   6  23
TORSDOF 13
