REMARK  5 active torsions:
REMARK  status: ('A' for Active; 'I' for Inactive)
REMARK    1  A    between atoms: C3_4  and  O2_5 
REMARK    2  A    between atoms: C3_4  and  C13_15 
REMARK    3  A    between atoms: O2_5  and  C4_6 
REMARK    4  A    between atoms: C4_6  and  C5_7 
REMARK    5  A    between atoms: C5_7  and  C6_8 
ROOT
HETATM    1  O2  UNL     1       2.219   0.205  -0.737  1.00  0.00    -0.366 OA
ENDROOT
BRANCH   1   2
HETATM    2  C3  UNL     1       3.256  -0.364  -0.070  1.00  0.00     0.178 C 
HETATM    3  C2  UNL     1       4.587  -0.001  -0.777  1.00  0.00     0.163 C 
HETATM    4  C1  UNL     1       5.468  -1.066  -0.240  1.00  0.00     0.262 C 
HETATM    5  O1  UNL     1       6.718  -1.051  -0.230  1.00  0.00    -0.265 OA
HETATM    6  O5  UNL     1       4.685  -2.097   0.257  1.00  0.00    -0.318 OA
HETATM    7  C14 UNL     1       3.319  -1.850  -0.052  1.00  0.00     0.229 C 
BRANCH   2   8
HETATM    8  C13 UNL     1       3.398   0.157   1.318  1.00  0.00     0.212 C 
HETATM    9  O3  UNL     1       4.272  -0.384   2.083  1.00  0.00    -0.646 OA
HETATM   10  O4  UNL     1       2.629   1.183   1.773  1.00  0.00    -0.646 OA
ENDBRANCH   2   8
ENDBRANCH   1   2
BRANCH   1  11
HETATM   11  C4  UNL     1       0.967  -0.149  -0.282  1.00  0.00     0.170 C 
BRANCH  11  12
HETATM   12  C5  UNL     1      -0.116   0.557  -1.115  1.00  0.00     0.031 C 
BRANCH  12  13
HETATM   13  C6  UNL     1      -1.514   0.154  -0.616  1.00  0.00    -0.013 C 
HETATM   14  C7  UNL     1      -1.607   0.569   0.806  1.00  0.00     0.005 C 
HETATM   15  C8  UNL     1      -2.994   0.708   1.363  1.00  0.00     0.000 C 
HETATM   16  C9  UNL     1      -3.891  -0.452   1.023  1.00  0.00     0.000 C 
HETATM   17  C10 UNL     1      -4.161  -0.565  -0.455  1.00  0.00     0.000 C 
HETATM   18  C11 UNL     1      -3.913   0.697  -1.202  1.00  0.00     0.000 C 
HETATM   19  C12 UNL     1      -2.476   0.874  -1.520  1.00  0.00     0.005 C 
ENDBRANCH  12  13
ENDBRANCH  11  12
ENDBRANCH   1  11
TORSDOF 5
