REMARK  9 active torsions:
REMARK  status: ('A' for Active; 'I' for Inactive)
REMARK    1  A    between atoms: O1_2  and  C2_3 
REMARK    2  A    between atoms: C2_3  and  S1_31 
REMARK    3  A    between atoms: N1_4  and  N2_6 
REMARK    4  A    between atoms: N2_6  and  N3_8 
REMARK    5  A    between atoms: N3_8  and  N4_10 
REMARK       I    between atoms: N4_10  and  C3_12 
REMARK       I    between atoms: C3_12  and  N5_14 
REMARK    6  A    between atoms: C5_16  and  O3_17 
REMARK    7  A    between atoms: C6_19  and  C7_20 
REMARK    8  A    between atoms: N7_22  and  N8_24 
REMARK       I    between atoms: N8_24  and  C8_26 
REMARK    9  A    between atoms: S1_31  and  N11_32 
ROOT
HETATM    1  N4  UNL     1       1.737  -0.814   1.138  1.00  0.00    -0.234 N 
ATOM      2  H4  UNL     1       1.431  -0.697   2.104  1.00  0.00     0.193 HD
HETATM    3  C3  UNL     1       0.815  -0.634   0.084  1.00  0.00     0.361 C 
HETATM    4  O2  UNL     1       1.205  -0.781  -1.099  1.00  0.00    -0.243 OA
HETATM    5  N5  UNL     1      -0.556  -0.285   0.370  1.00  0.00    -0.212 N 
HETATM    6  C4  UNL     1      -1.066  -0.106   1.600  1.00  0.00     0.160 A 
HETATM    7  C5  UNL     1      -2.392   0.211   1.401  1.00  0.00     0.115 A 
HETATM    8  C6  UNL     1      -2.652   0.215   0.049  1.00  0.00     0.126 A 
HETATM    9  N10 UNL     1      -1.494  -0.095  -0.544  1.00  0.00    -0.284 N 
ATOM     10  H10 UNL     1      -1.354  -0.173  -1.551  1.00  0.00     0.188 HD
ENDROOT
BRANCH   1  11
HETATM   11  N3  UNL     1       3.050  -1.147   0.870  1.00  0.00    -0.224 N 
ATOM     12  H3  UNL     1       3.553  -1.755   1.516  1.00  0.00     0.210 HD
BRANCH  11  13
HETATM   13  N2  UNL     1       3.651  -0.706  -0.178  1.00  0.00    -0.226 N 
ATOM     14  H2  UNL     1       3.175  -0.096  -0.842  1.00  0.00     0.210 HD
BRANCH  13  15
HETATM   15  N1  UNL     1       4.968  -1.089  -0.373  1.00  0.00    -0.257 N 
HETATM   16  C2  UNL     1       5.973  -0.297  -0.204  1.00  0.00     0.218 C 
ATOM     17  H1  UNL     1       5.153  -2.048  -0.666  1.00  0.00     0.191 HD
BRANCH  16  18
HETATM   18  O1  UNL     1       7.229  -0.793  -0.428  1.00  0.00    -0.333 OA
HETATM   19  C1  UNL     1       7.434  -1.825  -1.405  1.00  0.00     0.212 C 
ENDBRANCH  16  18
BRANCH  16  20
HETATM   20  S1  UNL     1       5.620   1.372   0.306  1.00  0.00     0.024 SA
BRANCH  20  21
HETATM   21  N11 UNL     1       7.047   2.340   0.500  1.00  0.00    -0.367 N 
ATOM     22 2H11 UNL     1       7.985   1.975   0.335  1.00  0.00     0.164 HD
ATOM     23 1H11 UNL     1       6.845   3.296   0.792  1.00  0.00     0.164 HD
ENDBRANCH  20  21
ENDBRANCH  16  20
ENDBRANCH  13  15
ENDBRANCH  11  13
ENDBRANCH   1  11
BRANCH   7  24
HETATM   24  O3  UNL     1      -3.325   0.482   2.373  1.00  0.00    -0.357 OA
ATOM     25  H3  UNL     1      -4.239   0.701   2.236  1.00  0.00     0.218 HD
ENDBRANCH   7  24
BRANCH   8  26
HETATM   26  C7  UNL     1      -3.947   0.506  -0.573  1.00  0.00     0.162 C 
HETATM   27  N6  UNL     1      -4.020   0.462  -1.982  1.00  0.00    -0.079 NA
HETATM   28  N7  UNL     1      -4.989   0.791   0.112  1.00  0.00    -0.282 N 
ATOM     29  H7  UNL     1      -4.940   0.823   1.130  1.00  0.00     0.188 HD
BRANCH  28  30
HETATM   30  N8  UNL     1      -6.188   1.057  -0.538  1.00  0.00    -0.253 N 
HETATM   31  C8  UNL     1      -6.941   0.034  -1.162  1.00  0.00     0.347 C 
HETATM   32  N9  UNL     1      -8.156   0.341  -1.814  1.00  0.00    -0.038 NA
HETATM   33  O4  UNL     1      -6.492  -1.144  -1.116  1.00  0.00    -0.249 OA
ATOM     34  H8  UNL     1      -6.535   2.016  -0.566  1.00  0.00     0.191 HD
ENDBRANCH  28  30
ENDBRANCH   8  26
TORSDOF 9
