REMARK  12 active torsions:
REMARK  status: ('A' for Active; 'I' for Inactive)
REMARK    1  A    between atoms: N1_1  and  C1_5 
REMARK    2  A    between atoms: C1_5  and  C2_6 
REMARK    3  A    between atoms: C3_8  and  O2_9 
REMARK    4  A    between atoms: O2_9  and  C4_10 
REMARK    5  A    between atoms: C6_12  and  N2_13 
REMARK    6  A    between atoms: N3_18  and  C8_19 
REMARK    7  A    between atoms: C8_19  and  C9_20 
REMARK    8  A    between atoms: C16_27  and  N4_28 
REMARK    9  A    between atoms: C17_32  and  O3_33 
REMARK   10  A    between atoms: O3_33  and  C18_34 
REMARK   11  A    between atoms: C21_39  and  N6_40 
REMARK   12  A    between atoms: C22_45  and  O5_46 
ROOT
HETATM    1  C2  UNL     1       2.092   2.278  -0.896  1.00  0.00     0.181 C 
HETATM    2  O1  UNL     1       0.909   1.733  -0.484  1.00  0.00    -0.349 OA
HETATM    3  C3  UNL     1       0.687   0.431  -0.845  1.00  0.00     0.294 C 
HETATM    4  C16 UNL     1       1.774  -0.512  -0.394  1.00  0.00     0.269 C 
HETATM    5  C17 UNL     1       3.009   0.234   0.057  1.00  0.00     0.193 C 
HETATM    6  C22 UNL     1       3.255   1.353  -0.946  1.00  0.00     0.180 C 
ENDROOT
BRANCH   3   7
HETATM    7  O2  UNL     1      -0.537   0.041  -0.263  1.00  0.00    -0.349 OA
BRANCH   7   8
HETATM    8  C4  UNL     1      -1.461  -0.378  -1.184  1.00  0.00     0.165 C 
HETATM    9  C5  UNL     1      -1.866  -1.824  -1.009  1.00  0.00     0.072 C 
HETATM   10  C6  UNL     1      -3.274  -1.935  -1.604  1.00  0.00     0.204 C 
HETATM   11  C7  UNL     1      -4.191  -1.237  -0.627  1.00  0.00     0.155 C 
HETATM   12  N3  UNL     1      -3.759   0.092  -0.436  1.00  0.00    -0.385 N 
HETATM   13  C15 UNL     1      -2.650   0.549  -1.168  1.00  0.00     0.090 C 
BRANCH  10  14
HETATM   14  N2  UNL     1      -3.615  -3.333  -1.764  1.00  0.00    -0.073 N 
ATOM     15  H23 UNL     1      -2.921  -3.840  -2.314  1.00  0.00     0.274 HD
ATOM     16  H22 UNL     1      -3.520  -3.857  -0.894  1.00  0.00     0.274 HD
ATOM     17  H21 UNL     1      -4.552  -3.407  -2.160  1.00  0.00     0.274 HD
ENDBRANCH  10  14
BRANCH  12  18
HETATM   18  C8  UNL     1      -4.024   0.697   0.820  1.00  0.00     0.160 C 
BRANCH  18  19
HETATM   19  C9  UNL     1      -5.506   0.720   1.030  1.00  0.00    -0.040 A 
HETATM   20  C10 UNL     1      -6.190  -0.276   1.677  1.00  0.00     0.009 A 
HETATM   21  C11 UNL     1      -7.555  -0.170   1.823  1.00  0.00     0.001 A 
HETATM   22  C12 UNL     1      -8.240   0.922   1.328  1.00  0.00     0.000 A 
HETATM   23  C13 UNL     1      -7.565   1.929   0.676  1.00  0.00     0.001 A 
HETATM   24  C14 UNL     1      -6.202   1.805   0.540  1.00  0.00     0.009 A 
ENDBRANCH  18  19
ENDBRANCH  12  18
ENDBRANCH   7   8
ENDBRANCH   3   7
BRANCH   4  25
HETATM   25  N4  UNL     1       2.162  -1.421  -1.444  1.00  0.00    -0.068 N 
ATOM     26  H43 UNL     1       1.358  -1.929  -1.812  1.00  0.00     0.275 HD
ATOM     27  H42 UNL     1       2.433  -0.919  -2.289  1.00  0.00     0.275 HD
ATOM     28  H41 UNL     1       2.897  -2.059  -1.139  1.00  0.00     0.275 HD
ENDBRANCH   4  25
BRANCH   1  29
HETATM   29  C1  UNL     1       2.426   3.419   0.054  1.00  0.00     0.264 C 
BRANCH  29  30
HETATM   30  N1  UNL     1       1.389   4.433   0.037  1.00  0.00    -0.077 N 
ATOM     31  H13 UNL     1       1.210   4.772  -0.908  1.00  0.00     0.274 HD
ATOM     32  H12 UNL     1       0.471   4.035   0.236  1.00  0.00     0.274 HD
ATOM     33  H11 UNL     1       1.613   5.198   0.674  1.00  0.00     0.274 HD
ENDBRANCH  29  30
ENDBRANCH   1  29
BRANCH   5  34
HETATM   34  O3  UNL     1       4.095  -0.581   0.240  1.00  0.00    -0.334 OA
BRANCH  34  35
HETATM   35  C18 UNL     1       4.552  -0.566   1.557  1.00  0.00     0.372 C 
HETATM   36  N5  UNL     1       4.355  -1.844   2.196  1.00  0.00    -0.355 N 
HETATM   37  C19 UNL     1       5.253  -2.738   2.069  1.00  0.00     0.064 C 
ATOM     38  H5  UNL     1       3.512  -2.028   2.740  1.00  0.00     0.163 HD
HETATM   39  C20 UNL     1       6.446  -2.387   1.263  1.00  0.00     0.105 C 
HETATM   40  C21 UNL     1       6.844  -0.983   1.693  1.00  0.00     0.327 C 
HETATM   41  O4  UNL     1       5.824  -0.077   1.682  1.00  0.00    -0.310 OA
BRANCH  40  42
HETATM   42  N6  UNL     1       8.000  -0.601   0.923  1.00  0.00    -0.052 N 
ATOM     43  H63 UNL     1       8.766  -1.271   0.998  1.00  0.00     0.277 HD
ATOM     44  H62 UNL     1       7.850  -0.680  -0.083  1.00  0.00     0.277 HD
ATOM     45  H61 UNL     1       8.267   0.340   1.211  1.00  0.00     0.277 HD
ENDBRANCH  40  42
ENDBRANCH  34  35
ENDBRANCH   5  34
BRANCH   6  46
HETATM   46  O5  UNL     1       3.502   0.842  -2.219  1.00  0.00    -0.390 OA
ATOM     47  H5  UNL     1       4.245   0.251  -2.251  1.00  0.00     0.210 HD
ENDBRANCH   6  46
TORSDOF 12
