REMARK  9 active torsions:
REMARK  status: ('A' for Active; 'I' for Inactive)
REMARK    1  A    between atoms: C2_2  and  C3_3 
REMARK    2  A    between atoms: C3_3  and  S1_4 
REMARK    3  A    between atoms: S1_4  and  C4_5 
REMARK    4  A    between atoms: C4_5  and  N1_7 
REMARK    5  A    between atoms: N1_7  and  C5_9 
REMARK    6  A    between atoms: C5_9  and  N2_11 
REMARK    7  A    between atoms: N3_14  and  C8_15 
REMARK    8  A    between atoms: C8_15  and  C9_16 
REMARK    9  A    between atoms: C9_16  and  O1_17 
ROOT
HETATM    1  N2  UNL     1      -0.039  -1.341   0.833  1.00  0.00    -0.348 N 
HETATM    2  C6  UNL     1      -0.905  -2.429   1.270  1.00  0.00     0.145 C 
HETATM    3  C7  UNL     1      -2.353  -2.090   1.096  1.00  0.00     0.145 C 
HETATM    4  N3  UNL     1      -2.570  -1.495  -0.235  1.00  0.00    -0.347 N 
HETATM    5  C11 UNL     1      -1.461  -1.333  -1.078  1.00  0.00     0.237 C 
HETATM    6  O2  UNL     1      -1.615  -1.622  -2.290  1.00  0.00    -0.272 OA
HETATM    7  C12 UNL     1      -0.170  -0.836  -0.519  1.00  0.00     0.228 C 
ENDROOT
BRANCH   1   8
HETATM    8  C5  UNL     1       0.930  -0.754   1.684  1.00  0.00     0.175 C 
HETATM    9  S3  UNL     1       1.022  -1.371   3.214  1.00  0.00    -0.041 SA
BRANCH   8  10
HETATM   10  N1  UNL     1       1.754   0.289   1.237  1.00  0.00    -0.319 N 
ATOM     11  H1  UNL     1       1.628   0.604   0.275  1.00  0.00     0.169 HD
BRANCH  10  12
HETATM   12  C4  UNL     1       2.736   0.935   2.000  1.00  0.00     0.140 C 
HETATM   13  S2  UNL     1       3.017   0.515   3.569  1.00  0.00    -0.052 SA
BRANCH  12  14
HETATM   14  S1  UNL     1       3.746   2.241   1.349  1.00  0.00    -0.100 SA
BRANCH  14  15
HETATM   15  C3  UNL     1       3.473   2.362  -0.431  1.00  0.00     0.081 C 
BRANCH  15  16
HETATM   16  C2  UNL     1       4.091   1.144  -1.083  1.00  0.00     0.006 C 
HETATM   17  C1  UNL     1       5.579   1.201  -0.733  1.00  0.00     0.006 C 
ENDBRANCH  15  16
ENDBRANCH  14  15
ENDBRANCH  12  14
ENDBRANCH  10  12
ENDBRANCH   8  10
ENDBRANCH   1   8
BRANCH   4  18
HETATM   18  C8  UNL     1      -3.934  -1.111  -0.562  1.00  0.00     0.152 C 
BRANCH  18  19
HETATM   19  C9  UNL     1      -4.147   0.295  -0.067  1.00  0.00     0.186 C 
BRANCH  19  20
HETATM   20  O1  UNL     1      -3.354   1.253  -0.633  1.00  0.00    -0.394 OA
HETATM   21  C10 UNL     1      -3.561   1.463  -1.969  1.00  0.00     0.201 C 
ENDBRANCH  19  20
ENDBRANCH  18  19
ENDBRANCH   4  18
TORSDOF 9
