REMARK  13 active torsions:
REMARK  status: ('A' for Active; 'I' for Inactive)
REMARK    1  A    between atoms: N1_1  and  O1_4 
REMARK    2  A    between atoms: O1_4  and  C1_5 
REMARK    3  A    between atoms: C1_5  and  O2_6 
REMARK    4  A    between atoms: C1_5  and  C2_8 
REMARK    5  A    between atoms: C2_8  and  O3_9 
REMARK    6  A    between atoms: C2_8  and  C3_11 
REMARK    7  A    between atoms: C3_11  and  O4_12 
REMARK    8  A    between atoms: C3_11  and  C4_14 
REMARK    9  A    between atoms: C4_14  and  N2_15 
REMARK   10  A    between atoms: C10_25  and  N4_26 
REMARK   11  A    between atoms: N4_26  and  C11_28 
REMARK   12  A    between atoms: C12_29  and  N5_30 
REMARK   13  A    between atoms: C13_34  and  O7_35 
ROOT
HETATM    1  N2  UNL     1       0.799  -1.334   1.243  1.00  0.00    -0.339 N 
HETATM    2  C5  UNL     1       1.659  -2.363   1.496  1.00  0.00     0.096 A 
HETATM    3  C6  UNL     1       1.574  -3.603   0.972  1.00  0.00     0.073 A 
HETATM    4  C7  UNL     1       0.554  -3.902   0.108  1.00  0.00     0.192 A 
HETATM    5  O5  UNL     1       0.417  -5.034  -0.416  1.00  0.00    -0.287 OA
HETATM    6  C8  UNL     1      -0.338  -2.880  -0.169  1.00  0.00     0.127 A 
HETATM    7  C9  UNL     1      -1.382  -3.180  -1.012  1.00  0.00     0.277 A 
HETATM    8  O6  UNL     1      -1.477  -4.349  -1.522  1.00  0.00    -0.266 OA
HETATM    9  N3  UNL     1      -2.288  -2.235  -1.287  1.00  0.00    -0.155 N 
ATOM     10  H3  UNL     1      -3.066  -2.448  -1.912  1.00  0.00     0.187 HD
HETATM   11  C10 UNL     1      -2.185  -1.016  -0.752  1.00  0.00     0.683 A 
HETATM   12  N6  UNL     1      -1.162  -0.737   0.068  1.00  0.00    -0.175 N 
ATOM     13  H6  UNL     1      -1.111   0.203   0.462  1.00  0.00     0.186 HD
HETATM   14  C14 UNL     1      -0.203  -1.607   0.405  1.00  0.00     0.143 A 
ENDROOT
BRANCH   1  15
HETATM   15  C4  UNL     1       1.034  -0.044   1.790  1.00  0.00     0.164 C 
BRANCH  15  16
HETATM   16  C3  UNL     1       2.133   0.771   1.138  1.00  0.00     0.170 C 
BRANCH  16  17
HETATM   17  C2  UNL     1       1.893   1.081  -0.276  1.00  0.00     0.205 C 
BRANCH  17  18
HETATM   18  C1  UNL     1       3.067   1.724  -0.979  1.00  0.00     0.316 C 
BRANCH  18  19
HETATM   19  O1  UNL     1       4.209   0.969  -0.947  1.00  0.00    -0.252 OA
BRANCH  19  20
HETATM   20  N1  UNL     1       5.281   1.608  -0.448  1.00  0.00    -0.308 N 
ATOM     21  H12 UNL     1       5.232   2.574  -0.125  1.00  0.00     0.184 HD
ATOM     22  H11 UNL     1       6.132   1.046  -0.424  1.00  0.00     0.184 HD
ENDBRANCH  19  20
ENDBRANCH  18  19
BRANCH  18  23
HETATM   23  O2  UNL     1       2.691   1.836  -2.338  1.00  0.00    -0.367 OA
ATOM     24  H2  UNL     1       1.899   2.360  -2.360  1.00  0.00     0.212 HD
ENDBRANCH  18  23
ENDBRANCH  17  18
BRANCH  17  25
HETATM   25  O3  UNL     1       0.836   1.973  -0.405  1.00  0.00    -0.388 OA
ATOM     26  H3  UNL     1       0.098   1.569   0.037  1.00  0.00     0.210 HD
ENDBRANCH  17  25
ENDBRANCH  16  17
BRANCH  16  27
HETATM   27  O4  UNL     1       3.334   0.001   1.296  1.00  0.00    -0.391 OA
ATOM     28  H4  UNL     1       3.489  -0.200   2.211  1.00  0.00     0.210 HD
ENDBRANCH  16  27
ENDBRANCH  15  16
ENDBRANCH   1  15
BRANCH  11  29
HETATM   29  N4  UNL     1      -3.066  -0.146  -1.036  1.00  0.00    -0.217 N 
ATOM     30  H4  UNL     1      -3.816  -0.428  -1.667  1.00  0.00     0.178 HD
BRANCH  29  31
HETATM   31  C11 UNL     1      -3.092   1.202  -0.542  1.00  0.00     0.163 A 
HETATM   32  C12 UNL     1      -4.181   1.462   0.492  1.00  0.00     0.239 A 
HETATM   33  C13 UNL     1      -4.231   2.074  -0.914  1.00  0.00     0.176 A 
BRANCH  32  34
HETATM   34  N5  UNL     1      -5.135   0.402   0.763  1.00  0.00    -0.070 N 
ATOM     35  H53 UNL     1      -5.569   0.112  -0.113  1.00  0.00     0.274 HD
ATOM     36  H52 UNL     1      -4.628  -0.446   1.018  1.00  0.00     0.274 HD
ATOM     37  H51 UNL     1      -5.864   0.576   1.455  1.00  0.00     0.274 HD
ENDBRANCH  32  34
BRANCH  33  38
HETATM   38  O7  UNL     1      -4.136   3.443  -0.933  1.00  0.00    -0.391 OA
ATOM     39  H7  UNL     1      -4.866   4.002  -1.171  1.00  0.00     0.210 HD
ENDBRANCH  33  38
ENDBRANCH  29  31
ENDBRANCH  11  29
TORSDOF 13
