REMARK  7 active torsions:
REMARK  status: ('A' for Active; 'I' for Inactive)
REMARK    1  A    between atoms: N1_1  and  C1_4 
REMARK    2  A    between atoms: N4_15  and  C6_16 
REMARK    3  A    between atoms: C6_16  and  C7_17 
REMARK    4  A    between atoms: N5_20  and  C8_21 
REMARK    5  A    between atoms: C9_23  and  C10_24 
REMARK    6  A    between atoms: C10_24  and  N6_25 
REMARK       I    between atoms: N6_25  and  C11_27 
REMARK    7  A    between atoms: C12_33  and  O7_34 
ROOT
HETATM    1  C1  UNL     1       0.511  -1.809   1.526  1.00  0.00     0.684 A 
HETATM    2  N2  UNL     1       1.677  -2.364   1.856  1.00  0.00    -0.154 N 
ATOM      3  H2  UNL     1       1.709  -3.124   2.536  1.00  0.00     0.187 HD
HETATM    4  C2  UNL     1       2.801  -1.922   1.294  1.00  0.00     0.290 A 
HETATM    5  O1  UNL     1       3.877  -2.469   1.628  1.00  0.00    -0.265 OA
HETATM    6  C3  UNL     1       2.788  -0.896   0.373  1.00  0.00     0.153 A 
HETATM    7  C4  UNL     1       1.554  -0.364   0.074  1.00  0.00     0.163 A 
HETATM    8  N3  UNL     1       1.802   0.598  -0.832  1.00  0.00    -0.292 N 
ATOM      9  H3  UNL     1       1.099   1.195  -1.267  1.00  0.00     0.172 HD
HETATM   10  C5  UNL     1       3.125   0.648  -1.073  1.00  0.00     0.329 A 
HETATM   11  O2  UNL     1       3.740   1.428  -1.869  1.00  0.00    -0.246 OA
HETATM   12  N4  UNL     1       3.766  -0.290  -0.318  1.00  0.00    -0.281 N 
HETATM   13  N5  UNL     1       0.426  -0.788   0.621  1.00  0.00    -0.134 N 
ENDROOT
BRANCH  13  14
HETATM   14  C8  UNL     1      -0.867  -0.259   0.332  1.00  0.00     0.306 C 
HETATM   15  O5  UNL     1      -1.083   0.089  -0.979  1.00  0.00    -0.327 OA
HETATM   16  C9  UNL     1      -2.281   0.791  -0.955  1.00  0.00     0.344 C 
HETATM   17  N8  UNL     1      -2.371   1.460   0.302  1.00  0.00    -0.017 N 
HETATM   18  C12 UNL     1      -1.230   0.974   1.091  1.00  0.00     0.372 C 
ATOM     19  H82 UNL     1      -2.411   2.476   0.223  1.00  0.00     0.283 HD
ATOM     20  H81 UNL     1      -3.271   1.339   0.767  1.00  0.00     0.283 HD
BRANCH  16  21
HETATM   21  C10 UNL     1      -3.387  -0.205  -1.200  1.00  0.00     0.185 C 
BRANCH  21  22
HETATM   22  N6  UNL     1      -4.689   0.406  -1.198  1.00  0.00    -0.341 N 
HETATM   23  C11 UNL     1      -5.862  -0.358  -1.410  1.00  0.00     0.328 C 
HETATM   24  N7  UNL     1      -7.154   0.209  -1.414  1.00  0.00    -0.040 NA
HETATM   25  O6  UNL     1      -5.754  -1.594  -1.602  1.00  0.00    -0.251 OA
ATOM     26  H6  UNL     1      -4.769   1.411  -1.041  1.00  0.00     0.163 HD
ENDBRANCH  21  22
ENDBRANCH  16  21
BRANCH  18  27
HETATM   27  O7  UNL     1      -0.232   1.906   1.208  1.00  0.00    -0.366 OA
ATOM     28  H7  UNL     1      -0.463   2.691   1.691  1.00  0.00     0.212 HD
ENDBRANCH  18  27
ENDBRANCH  13  14
BRANCH   1  29
HETATM   29  N1  UNL     1      -0.590  -2.229   2.066  1.00  0.00    -0.234 N 
ATOM     30  H12 UNL     1      -0.527  -2.991   2.741  1.00  0.00     0.174 HD
ATOM     31  H11 UNL     1      -1.482  -1.804   1.813  1.00  0.00     0.174 HD
ENDBRANCH   1  29
BRANCH  12  32
HETATM   32  C6  UNL     1       5.193  -0.528  -0.297  1.00  0.00     0.247 C 
BRANCH  32  33
HETATM   33  C7  UNL     1       5.921   0.313   0.681  1.00  0.00     0.192 C 
HETATM   34  O3  UNL     1       6.160  -0.012   1.869  1.00  0.00    -0.647 OA
HETATM   35  O4  UNL     1       6.405   1.583   0.305  1.00  0.00    -0.647 OA
ENDBRANCH  32  33
ENDBRANCH  12  32
TORSDOF 7
