REMARK  4 active torsions:
REMARK  status: ('A' for Active; 'I' for Inactive)
REMARK    1  A    between atoms: C6_7  and  O1_8 
REMARK    2  A    between atoms: C6_7  and  C7_10 
REMARK    3  A    between atoms: N2_15  and  C12_16 
REMARK    4  A    between atoms: C12_16  and  C13_17 
ROOT
HETATM    1  C1  UNL     1      -3.691  -2.744  -0.813  1.00  0.00     0.014 C 
HETATM    2  C2  UNL     1      -2.816  -2.177  -0.214  1.00  0.00    -0.090 C 
HETATM    3  C3  UNL     1      -1.749  -1.531   0.511  1.00  0.00     0.192 C 
HETATM    4  C4  UNL     1      -0.464  -2.366   0.279  1.00  0.00     0.313 C 
HETATM    5  N1  UNL     1       0.327  -1.592  -0.633  1.00  0.00     0.117 N 
HETATM    6  C5  UNL     1       1.657  -1.312  -0.168  1.00  0.00     0.313 C 
HETATM    7  C6  UNL     1       1.669   0.135   0.251  1.00  0.00     0.091 C 
HETATM    8  C10 UNL     1       0.720   0.716  -0.774  1.00  0.00     0.097 C 
HETATM    9  C11 UNL     1      -0.325  -0.338  -0.885  1.00  0.00     0.327 C 
HETATM   10  N2  UNL     1      -1.350  -0.282   0.091  1.00  0.00    -0.347 N 
ENDROOT
BRANCH  10  11
HETATM   11  C12 UNL     1      -2.093   0.877   0.215  1.00  0.00     0.061 C 
BRANCH  11  12
HETATM   12  C13 UNL     1      -3.324   1.033  -0.633  1.00  0.00     0.040 C 
HETATM   13  C14 UNL     1      -3.866   2.430  -0.277  1.00  0.00     0.010 C 
ENDBRANCH  11  12
ENDBRANCH  10  11
BRANCH   7  14
HETATM   14  O1  UNL     1       1.162   0.182   1.545  1.00  0.00    -0.388 OA
ATOM     15  H1  UNL     1       1.170   1.094   1.809  1.00  0.00     0.210 HD
ENDBRANCH   7  14
BRANCH   7  16
HETATM   16  C7  UNL     1       3.013   0.766   0.236  1.00  0.00     0.014 C 
HETATM   17  C8  UNL     1       3.691   0.776  -1.103  1.00  0.00     0.012 C 
HETATM   18  C9  UNL     1       3.973   0.060   1.198  1.00  0.00     0.012 C 
ENDBRANCH   7  16
TORSDOF 4
