REMARK  5 active torsions:
REMARK  status: ('A' for Active; 'I' for Inactive)
REMARK    1  A    between atoms: N1_6  and  C6_7 
REMARK    2  A    between atoms: C6_7  and  C7_8 
REMARK    3  A    between atoms: C7_8  and  C8_9 
REMARK    4  A    between atoms: C8_9  and  N2_11 
REMARK    5  A    between atoms: N3_15  and  C12_16 
ROOT
HETATM    1  N2  UNL     1       0.261  -1.199  -0.683  1.00  0.00    -0.394 N 
HETATM    2  C9  UNL     1       0.150  -0.118  -1.547  1.00  0.00     0.123 C 
HETATM    3  C10 UNL     1       0.825   1.106  -0.901  1.00  0.00     0.064 C 
HETATM    4  C11 UNL     1       2.056   0.641  -0.135  1.00  0.00     0.060 C 
HETATM    5  N3  UNL     1       2.963   0.031  -1.022  1.00  0.00    -0.387 N 
HETATM    6  C17 UNL     1       2.610  -1.273  -1.480  1.00  0.00     0.141 C 
HETATM    7  C18 UNL     1       1.498  -1.908  -0.728  1.00  0.00     0.138 C 
ENDROOT
BRANCH   1   8
HETATM    8  C8  UNL     1      -0.768  -2.024  -0.291  1.00  0.00     0.178 C 
HETATM    9 CL1  UNL     1      -0.006  -3.447   0.557  1.00  0.00    -0.103 Cl
BRANCH   8  10
HETATM   10  C7  UNL     1      -1.918  -1.614   0.511  1.00  0.00     0.071 C 
BRANCH  10  11
HETATM   11  C6  UNL     1      -2.665  -0.461  -0.030  1.00  0.00     0.276 C 
BRANCH  11  12
HETATM   12  N1  UNL     1      -3.836  -0.107   0.758  1.00  0.00     0.092 N 
HETATM   13  C2  UNL     1      -4.532   1.013   0.201  1.00  0.00     0.219 C 
HETATM   14  C1  UNL     1      -4.500   2.225   1.139  1.00  0.00     0.043 C 
HETATM   15  C3  UNL     1      -5.948   0.647  -0.082  1.00  0.00     0.037 C 
HETATM   16  C4  UNL     1      -6.157  -0.556   0.817  1.00  0.00     0.032 C 
HETATM   17  C5  UNL     1      -4.769  -1.156   0.933  1.00  0.00     0.273 C 
ENDBRANCH  11  12
ENDBRANCH  10  11
ENDBRANCH   8  10
ENDBRANCH   1   8
BRANCH   5  18
HETATM   18  C12 UNL     1       4.339   0.294  -0.873  1.00  0.00     0.083 C 
HETATM   19  C13 UNL     1       4.787  -0.214   0.491  1.00  0.00     0.025 C 
HETATM   20  C14 UNL     1       5.927   0.682   0.908  1.00  0.00     0.002 C 
HETATM   21  C15 UNL     1       5.752   1.977   0.155  1.00  0.00     0.002 C 
HETATM   22  C16 UNL     1       4.764   1.714  -0.967  1.00  0.00     0.025 C 
ENDBRANCH   5  18
TORSDOF 5
