REMARK  7 active torsions:
REMARK  status: ('A' for Active; 'I' for Inactive)
REMARK    1  A    between atoms: C2_2  and  N1_3 
REMARK    2  A    between atoms: C5_6  and  C6_7 
REMARK    3  A    between atoms: C6_7  and  O1_8 
REMARK    4  A    between atoms: C6_7  and  N2_10 
REMARK    5  A    between atoms: N2_10  and  C8_12 
REMARK    6  A    between atoms: C8_12  and  C9_13 
REMARK    7  A    between atoms: C8_12  and  C14_19 
ROOT
HETATM    1  C6  UNL     1       0.208  -0.314  -0.717  1.00  0.00     0.120 C 
ENDROOT
BRANCH   1   2
HETATM    2  C5  UNL     1       1.642  -0.475  -0.673  1.00  0.00     0.097 C 
HETATM    3  C4  UNL     1       2.312  -0.782   0.607  1.00  0.00     0.035 C 
HETATM    4  C3  UNL     1       3.490   0.165   0.896  1.00  0.00     0.118 C 
HETATM    5  N1  UNL     1       4.360   0.330  -0.202  1.00  0.00    -0.410 N 
HETATM    6  C18 UNL     1       3.799   0.460  -1.496  1.00  0.00     0.154 C 
HETATM    7  C17 UNL     1       2.298   0.677  -1.399  1.00  0.00     0.199 C 
HETATM    8  F1  UNL     1       2.010   1.868  -0.831  1.00  0.00    -0.247 F 
BRANCH   5   9
HETATM    9  C2  UNL     1       5.505  -0.521  -0.228  1.00  0.00     0.112 C 
HETATM   10  C1  UNL     1       6.483  -0.181   0.887  1.00  0.00     0.026 C 
ENDBRANCH   5   9
ENDBRANCH   1   2
BRANCH   1  11
HETATM   11  O1  UNL     1      -0.342  -1.032  -1.673  1.00  0.00    -0.349 OA
ATOM     12  H1  UNL     1      -1.286  -0.926  -1.702  1.00  0.00     0.219 HD
ENDBRANCH   1  11
BRANCH   1  13
HETATM   13  N2  UNL     1      -0.693   0.433   0.033  1.00  0.00    -0.364 N 
HETATM   14  C7  UNL     1      -0.351   1.285   1.096  1.00  0.00     0.152 C 
BRANCH  13  15
HETATM   15  C8  UNL     1      -2.151   0.328  -0.336  1.00  0.00     0.093 C 
BRANCH  15  16
HETATM   16  C9  UNL     1      -2.886  -0.268   0.795  1.00  0.00     0.010 C 
HETATM   17  C10 UNL     1      -2.336  -1.664   1.124  1.00  0.00     0.017 C 
HETATM   18  C11 UNL     1      -3.332  -2.455   1.922  1.00  0.00     0.074 C 
HETATM   19  S1  UNL     1      -4.686  -2.895   0.760  1.00  0.00    -0.169 SA
HETATM   20  C12 UNL     1      -4.897  -1.362  -0.242  1.00  0.00     0.074 C 
HETATM   21  C13 UNL     1      -4.353  -0.269   0.684  1.00  0.00     0.017 C 
ENDBRANCH  15  16
BRANCH  15  22
HETATM   22  C14 UNL     1      -2.609   1.668  -0.783  1.00  0.00     0.009 A 
HETATM   23  C15 UNL     1      -3.908   2.059  -1.315  1.00  0.00     0.007 A 
HETATM   24  C16 UNL     1      -2.679   2.122  -2.178  1.00  0.00     0.007 A 
ENDBRANCH  15  22
ENDBRANCH  13  15
ENDBRANCH   1  13
TORSDOF 7
