REMARK  8 active torsions:
REMARK  status: ('A' for Active; 'I' for Inactive)
REMARK    1  A    between atoms: N1_2  and  C2_4 
REMARK    2  A    between atoms: C2_4  and  C3_5 
REMARK    3  A    between atoms: C2_4  and  C8_23 
REMARK    4  A    between atoms: C3_5  and  S1_6 
REMARK    5  A    between atoms: S1_6  and  C4_7 
REMARK    6  A    between atoms: C6_14  and  N5_15 
REMARK       I    between atoms: C8_23  and  N8_25 
REMARK    7  A    between atoms: N8_25  and  N9_27 
REMARK    8  A    between atoms: N9_27  and  N10_29 
ROOT
HETATM    1  C4  UNL     1       1.957  -0.403   1.203  1.00  0.00     0.119 A 
HETATM    2  N2  UNL     1       2.327  -1.687   1.242  1.00  0.00    -0.343 N 
ATOM      3  H2  UNL     1       1.669  -2.386   1.586  1.00  0.00     0.167 HD
HETATM    4  C5  UNL     1       3.532  -2.070   0.842  1.00  0.00     0.199 A 
HETATM    5  N3  UNL     1       4.412  -1.166   0.384  1.00  0.00    -0.273 N 
ATOM      6  H3  UNL     1       5.336  -1.471   0.078  1.00  0.00     0.189 HD
HETATM    7  N4  UNL     1       4.094   0.114   0.326  1.00  0.00    -0.064 N 
HETATM    8  C6  UNL     1       4.822   1.178  -0.095  1.00  0.00     0.713 A 
HETATM    9  N6  UNL     1       4.048   2.254   0.050  1.00  0.00    -0.129 N 
ATOM     10  H6  UNL     1       4.306   3.214  -0.178  1.00  0.00     0.205 HD
HETATM   11  N7  UNL     1       2.879   1.854   0.545  1.00  0.00    -0.267 N 
ATOM     12  H7  UNL     1       2.089   2.462   0.759  1.00  0.00     0.189 HD
HETATM   13  C7  UNL     1       2.905   0.535   0.716  1.00  0.00     0.194 A 
ENDROOT
BRANCH   1  14
HETATM   14  S1  UNL     1       0.408   0.292   1.680  1.00  0.00    -0.106 SA
BRANCH  14  15
HETATM   15  C3  UNL     1      -0.835   0.511   0.486  1.00  0.00     0.115 C 
BRANCH  15  16
HETATM   16  C2  UNL     1      -1.812  -0.518   0.158  1.00  0.00     0.180 C 
BRANCH  16  17
HETATM   17  N1  UNL     1      -1.393  -1.775  -0.257  1.00  0.00    -0.413 N 
HETATM   18  C1  UNL     1      -0.883  -2.715   0.667  1.00  0.00     0.140 C 
ATOM     19  H1  UNL     1      -1.454  -2.024  -1.244  1.00  0.00     0.153 HD
ENDBRANCH  16  17
BRANCH  16  20
HETATM   20  C8  UNL     1      -2.847   0.014  -0.833  1.00  0.00     0.260 C 
HETATM   21  O1  UNL     1      -2.687  -0.224  -2.045  1.00  0.00    -0.269 OA
HETATM   22  N8  UNL     1      -3.954   0.746  -0.390  1.00  0.00    -0.254 N 
ATOM     23  H8  UNL     1      -4.040   0.911   0.613  1.00  0.00     0.191 HD
BRANCH  22  24
HETATM   24  N9  UNL     1      -4.938   1.261  -1.207  1.00  0.00    -0.247 N 
ATOM     25  H9  UNL     1      -5.789   0.738  -1.412  1.00  0.00     0.207 HD
BRANCH  24  26
HETATM   26  N10 UNL     1      -4.720   2.507  -1.731  1.00  0.00    -0.331 N 
ATOM     27 2H10 UNL     1      -3.863   3.018  -1.517  1.00  0.00     0.178 HD
ATOM     28 1H10 UNL     1      -5.448   2.888  -2.335  1.00  0.00     0.178 HD
ENDBRANCH  24  26
ENDBRANCH  22  24
ENDBRANCH  16  20
ENDBRANCH  15  16
ENDBRANCH  14  15
ENDBRANCH   1  14
BRANCH   8  29
HETATM   29  N5  UNL     1       6.015   1.103  -0.542  1.00  0.00    -0.231 N 
ATOM     30  H52 UNL     1       6.607   0.280  -0.653  1.00  0.00     0.174 HD
ATOM     31  H51 UNL     1       6.563   1.903  -0.859  1.00  0.00     0.174 HD
ENDBRANCH   8  29
TORSDOF 8
