REMARK  9 active torsions:
REMARK  status: ('A' for Active; 'I' for Inactive)
REMARK    1  A    between atoms: N1_1  and  C1_4 
REMARK    2  A    between atoms: C2_7  and  N3_8 
REMARK    3  A    between atoms: N4_10  and  O1_11 
REMARK    4  A    between atoms: N4_10  and  N5_13 
REMARK    5  A    between atoms: N5_13  and  N6_15 
REMARK    6  A    between atoms: C3_18  and  N7_19 
REMARK    7  A    between atoms: N7_19  and  C4_21 
REMARK    8  A    between atoms: C4_21  and  C5_22 
REMARK    9  A    between atoms: N9_24  and  N10_26 
ROOT
HETATM    1  C1  UNL     1       2.071  -3.124  -0.479  1.00  0.00     0.680 A 
HETATM    2  N2  UNL     1       2.220  -1.812  -0.733  1.00  0.00    -0.173 N 
ATOM      3  H2  UNL     1       3.092  -1.497  -1.157  1.00  0.00     0.186 HD
HETATM    4  C2  UNL     1       1.280  -0.897  -0.457  1.00  0.00     0.171 A 
HETATM    5  C3  UNL     1       0.091  -1.297   0.117  1.00  0.00     0.144 A 
HETATM    6  C6  UNL     1      -0.064  -2.662   0.381  1.00  0.00     0.290 A 
HETATM    7  O4  UNL     1      -1.137  -3.063   0.905  1.00  0.00    -0.265 OA
HETATM    8  N11 UNL     1       0.917  -3.526   0.080  1.00  0.00    -0.154 N 
ATOM      9  H11 UNL     1       0.783  -4.517   0.281  1.00  0.00     0.187 HD
ENDROOT
BRANCH   4  10
HETATM   10  N3  UNL     1       1.468   0.485  -0.738  1.00  0.00    -0.239 N 
HETATM   11  N4  UNL     1       2.251   1.210  -0.055  1.00  0.00    -0.073 N 
ATOM     12  H3  UNL     1       0.956   0.905  -1.514  1.00  0.00     0.193 HD
BRANCH  11  13
HETATM   13  O1  UNL     1       2.945   0.658   0.993  1.00  0.00    -0.252 OA
ATOM     14  H1  UNL     1       3.532   1.202   1.505  1.00  0.00     0.248 HD
ENDBRANCH  11  13
BRANCH  11  15
HETATM   15  N5  UNL     1       2.441   2.560  -0.323  1.00  0.00    -0.140 N 
ATOM     16  H5  UNL     1       1.633   3.119  -0.598  1.00  0.00     0.219 HD
BRANCH  15  17
HETATM   17  N6  UNL     1       3.679   3.186  -0.235  1.00  0.00    -0.020 N 
HETATM   18  O2  UNL     1       3.772   4.421  -0.109  1.00  0.00    -0.515 OA
HETATM   19  O3  UNL     1       4.876   2.488  -0.282  1.00  0.00    -0.515 OA
ENDBRANCH  15  17
ENDBRANCH  11  15
ENDBRANCH   4  10
BRANCH   5  20
HETATM   20  N7  UNL     1      -0.948  -0.379   0.435  1.00  0.00    -0.376 N 
ATOM     21  H7  UNL     1      -0.966   0.063   1.354  1.00  0.00     0.160 HD
BRANCH  20  22
HETATM   22  C4  UNL     1      -1.985  -0.062  -0.533  1.00  0.00     0.194 C 
BRANCH  22  23
HETATM   23  C5  UNL     1      -2.938   0.911   0.040  1.00  0.00     0.124 C 
HETATM   24  N8  UNL     1      -4.047   1.392  -0.689  1.00  0.00    -0.084 NA
HETATM   25  N9  UNL     1      -2.763   1.342   1.243  1.00  0.00    -0.296 N 
ATOM     26  H9  UNL     1      -1.965   1.001   1.779  1.00  0.00     0.187 HD
BRANCH  25  27
HETATM   27  N10 UNL     1      -3.631   2.260   1.834  1.00  0.00    -0.344 N 
ATOM     28 2H10 UNL     1      -4.424   2.591   1.284  1.00  0.00     0.176 HD
ATOM     29 1H10 UNL     1      -3.493   2.601   2.785  1.00  0.00     0.176 HD
ENDBRANCH  25  27
ENDBRANCH  22  23
ENDBRANCH  20  22
ENDBRANCH   5  20
BRANCH   1  30
HETATM   30  N1  UNL     1       2.996  -3.989  -0.756  1.00  0.00    -0.234 N 
ATOM     31  H12 UNL     1       3.872  -3.684  -1.180  1.00  0.00     0.174 HD
ATOM     32  H11 UNL     1       2.883  -4.984  -0.563  1.00  0.00     0.174 HD
ENDBRANCH   1  30
TORSDOF 9
