REMARK  11 active torsions:
REMARK  status: ('A' for Active; 'I' for Inactive)
REMARK    1  A    between atoms: C1_4  and  C2_6 
REMARK    2  A    between atoms: C5_9  and  S1_10 
REMARK    3  A    between atoms: S1_10  and  O3_13 
REMARK    4  A    between atoms: O3_13  and  N3_14 
REMARK    5  A    between atoms: N3_14  and  C6_15 
REMARK    6  A    between atoms: C7_17  and  C8_18 
REMARK    7  A    between atoms: C8_18  and  O5_19 
REMARK    8  A    between atoms: C8_18  and  C9_21 
REMARK    9  A    between atoms: C9_21  and  N4_22 
REMARK   10  A    between atoms: C9_21  and  C10_26 
REMARK       I    between atoms: C10_26  and  N5_28 
REMARK   11  A    between atoms: N5_28  and  N6_30 
REMARK       I    between atoms: N6_30  and  C11_32 
ROOT
HETATM    1  C6  UNL     1      -0.074   0.577  -0.033  1.00  0.00     0.389 C 
HETATM    2  O4  UNL     1      -1.347   0.122  -0.447  1.00  0.00    -0.325 OA
HETATM    3  C7  UNL     1      -2.272   0.986   0.145  1.00  0.00     0.265 C 
HETATM    4  N8  UNL     1      -2.055   2.281  -0.510  1.00  0.00    -0.286 N 
ATOM      5  H8  UNL     1      -2.706   2.933  -0.948  1.00  0.00     0.175 HD
HETATM    6  S2  UNL     1      -0.313   2.346  -0.295  1.00  0.00     0.273 S 
HETATM    7  O8  UNL     1       0.011   3.119   0.937  1.00  0.00    -0.202 OA
HETATM    8  O9  UNL     1       0.380   2.825  -1.512  1.00  0.00    -0.202 OA
ENDROOT
BRANCH   1   9
HETATM    9  N3  UNL     1       0.941   0.148  -0.973  1.00  0.00    -0.031 NA
BRANCH   9  10
HETATM   10  O3  UNL     1       2.135   0.585  -0.508  1.00  0.00    -0.152 OA
BRANCH  10  11
HETATM   11  S1  UNL     1       2.676  -0.382   0.764  1.00  0.00     0.317 S 
HETATM   12  O1  UNL     1       2.415   0.404   2.029  1.00  0.00    -0.192 OA
HETATM   13  O2  UNL     1       1.918  -1.668   0.848  1.00  0.00    -0.192 OA
BRANCH  11  14
HETATM   14  C5  UNL     1       4.385  -0.661   0.533  1.00  0.00     0.112 A 
HETATM   15  C4  UNL     1       4.904  -1.928   0.371  1.00  0.00     0.029 A 
HETATM   16  C3  UNL     1       6.247  -2.137   0.191  1.00  0.00     0.016 A 
HETATM   17  C2  UNL     1       7.149  -1.091   0.161  1.00  0.00     0.006 A 
HETATM   18  C13 UNL     1       6.624   0.172   0.323  1.00  0.00     0.043 A 
HETATM   19  C12 UNL     1       5.257   0.380   0.506  1.00  0.00     0.071 A 
HETATM   20  N9  UNL     1       4.814   1.719   0.663  1.00  0.00    -0.101 NA
BRANCH  17  21
HETATM   21  C1  UNL     1       8.557  -1.326  -0.030  1.00  0.00     0.120 C 
HETATM   22  N1  UNL     1       9.473  -0.426  -0.070  1.00  0.00    -0.387 N 
ATOM     23  H12 UNL     1      10.470  -0.592  -0.205  1.00  0.00     0.157 HD
ATOM     24  H11 UNL     1       9.168   0.541   0.044  1.00  0.00     0.157 HD
HETATM   25  N2  UNL     1       8.988  -2.694  -0.191  1.00  0.00    -0.082 NA
ENDBRANCH  17  21
ENDBRANCH  11  14
ENDBRANCH  10  11
ENDBRANCH   9  10
ENDBRANCH   1   9
BRANCH   3  26
HETATM   26  C8  UNL     1      -3.629   0.421  -0.084  1.00  0.00     0.207 C 
BRANCH  26  27
HETATM   27  O5  UNL     1      -3.682  -0.810   0.606  1.00  0.00    -0.389 OA
ATOM     28  H5  UNL     1      -4.549  -1.171   0.460  1.00  0.00     0.210 HD
ENDBRANCH  26  27
BRANCH  26  29
HETATM   29  C9  UNL     1      -4.747   1.278   0.469  1.00  0.00     0.309 C 
BRANCH  29  30
HETATM   30  N4  UNL     1      -4.606   1.517   1.879  1.00  0.00    -0.064 N 
ATOM     31  H43 UNL     1      -4.525   0.641   2.395  1.00  0.00     0.275 HD
ATOM     32  H42 UNL     1      -3.693   1.918   2.095  1.00  0.00     0.275 HD
ATOM     33  H41 UNL     1      -5.360   2.095   2.252  1.00  0.00     0.275 HD
ENDBRANCH  29  30
BRANCH  29  34
HETATM   34  C10 UNL     1      -6.046   0.621   0.185  1.00  0.00     0.269 C 
HETATM   35  O6  UNL     1      -6.805   0.368   1.148  1.00  0.00    -0.269 OA
HETATM   36  N5  UNL     1      -6.436   0.280  -1.139  1.00  0.00    -0.265 N 
ATOM     37  H5  UNL     1      -5.817   0.487  -1.923  1.00  0.00     0.190 HD
BRANCH  36  38
HETATM   38  N6  UNL     1      -7.657  -0.334  -1.364  1.00  0.00    -0.251 N 
HETATM   39  C11 UNL     1      -7.888  -1.661  -0.926  1.00  0.00     0.347 C 
HETATM   40  N7  UNL     1      -9.126  -2.290  -1.152  1.00  0.00    -0.038 NA
HETATM   41  O7  UNL     1      -6.972  -2.293  -0.323  1.00  0.00    -0.249 OA
ATOM     42  H6  UNL     1      -8.396   0.174  -1.849  1.00  0.00     0.191 HD
ENDBRANCH  36  38
ENDBRANCH  29  34
ENDBRANCH  26  29
ENDBRANCH   3  26
TORSDOF 11
