REMARK  4 active torsions:
REMARK  status: ('A' for Active; 'I' for Inactive)
REMARK    1  A    between atoms: N1_1  and  C1_4 
REMARK    2  A    between atoms: C2_9  and  C3_10 
REMARK    3  A    between atoms: C4_11  and  C5_12 
REMARK    4  A    between atoms: N4_16  and  N5_17 
ROOT
HETATM    1  C1  UNL     1       4.796  -0.144  -0.074  1.00  0.00     0.693 A 
HETATM    2  N2  UNL     1       4.166   0.902  -0.632  1.00  0.00    -0.132 N 
ATOM      3  H2  UNL     1       4.722   1.642  -1.060  1.00  0.00     0.205 HD
HETATM    4  N3  UNL     1       2.858   1.003  -0.645  1.00  0.00    -0.281 N 
ATOM      5  H3  UNL     1       2.417   1.814  -1.079  1.00  0.00     0.187 HD
HETATM    6  C2  UNL     1       2.083   0.032  -0.082  1.00  0.00     0.117 A 
HETATM    7  C10 UNL     1       2.684  -1.036   0.489  1.00  0.00     0.287 A 
HETATM    8  O2  UNL     1       2.120  -1.984   1.032  1.00  0.00    -0.265 OA
HETATM    9  N6  UNL     1       4.056  -1.108   0.484  1.00  0.00    -0.153 N 
ATOM     10  H6  UNL     1       4.518  -1.910   0.913  1.00  0.00     0.187 HD
ENDROOT
BRANCH   6  11
HETATM   11  C3  UNL     1       0.643   0.233  -0.147  1.00  0.00     0.038 C 
HETATM   12  C4  UNL     1      -0.283  -0.553   0.319  1.00  0.00     0.019 C 
BRANCH  12  13
HETATM   13  C5  UNL     1      -1.715  -0.352   0.254  1.00  0.00     0.034 A 
HETATM   14  C6  UNL     1      -2.517  -1.356   0.836  1.00  0.00     0.018 A 
HETATM   15  C7  UNL     1      -3.877  -1.194   0.791  1.00  0.00     0.020 A 
HETATM   16  C8  UNL     1      -4.431  -0.085   0.196  1.00  0.00     0.119 A 
HETATM   17  N4  UNL     1      -3.698   0.883  -0.364  1.00  0.00    -0.238 N 
HETATM   18  C9  UNL     1      -2.331   0.723  -0.320  1.00  0.00     0.275 A 
HETATM   19  O1  UNL     1      -1.704   1.679  -0.869  1.00  0.00    -0.265 OA
BRANCH  17  20
HETATM   20  N5  UNL     1      -4.281   2.005  -0.965  1.00  0.00    -0.336 N 
ATOM     21  H52 UNL     1      -5.294   2.124  -0.998  1.00  0.00     0.177 HD
ATOM     22  H51 UNL     1      -3.722   2.743  -1.392  1.00  0.00     0.177 HD
ENDBRANCH  17  20
ENDBRANCH  12  13
ENDBRANCH   6  11
BRANCH   1  23
HETATM   23  N1  UNL     1       6.098  -0.243  -0.062  1.00  0.00    -0.233 N 
ATOM     24  H12 UNL     1       6.662   0.492  -0.488  1.00  0.00     0.174 HD
ATOM     25  H11 UNL     1       6.577  -1.038   0.362  1.00  0.00     0.174 HD
ENDBRANCH   1  23
TORSDOF 4
