REMARK  4 active torsions:
REMARK  status: ('A' for Active; 'I' for Inactive)
REMARK    1  A    between atoms: N1_1  and  C1_4 
REMARK    2  A    between atoms: C2_7  and  C3_8 
REMARK    3  A    between atoms: C5_12  and  S1_13 
REMARK    4  A    between atoms: S1_13  and  N3_14 
ROOT
HETATM    1  C1  UNL     1      -1.754  -1.102  -0.046  1.00  0.00     0.124 C 
HETATM    2  N2  UNL     1      -1.926   0.120  -0.623  1.00  0.00    -0.336 N 
ATOM      3  H2  UNL     1      -2.878   0.321  -0.931  1.00  0.00     0.168 HD
HETATM    4  C2  UNL     1      -1.039   1.101  -0.850  1.00  0.00     0.112 C 
HETATM    5  C4  UNL     1       0.322   1.044  -0.564  1.00  0.00     0.062 C 
HETATM    6  C5  UNL     1       1.007   0.192   0.284  1.00  0.00     0.083 C 
HETATM    7  C6  UNL     1       0.537  -0.976   0.861  1.00  0.00     0.055 C 
HETATM    8  C7  UNL     1      -0.749  -1.506   0.809  1.00  0.00     0.091 C 
HETATM    9  N4  UNL     1      -1.071  -2.555   1.709  1.00  0.00    -0.098 NA
ENDROOT
BRANCH   6  10
HETATM   10  S1  UNL     1       2.639   0.650   0.662  1.00  0.00     0.256 S 
HETATM   11  O3  UNL     1       3.017   0.141   2.036  1.00  0.00    -0.201 OA
HETATM   12  O4  UNL     1       2.715   2.133   0.706  1.00  0.00    -0.201 OA
BRANCH  10  13
HETATM   13  N3  UNL     1       3.780  -0.005  -0.448  1.00  0.00    -0.324 N 
ATOM     14  H32 UNL     1       3.511  -0.595  -1.235  1.00  0.00     0.169 HD
ATOM     15  H31 UNL     1       4.739   0.264  -0.226  1.00  0.00     0.169 HD
ENDBRANCH  10  13
ENDBRANCH   6  10
BRANCH   4  16
HETATM   16  C3  UNL     1      -1.523   2.348  -1.449  1.00  0.00     0.226 C 
HETATM   17  O1  UNL     1      -0.748   3.312  -1.691  1.00  0.00    -0.643 OA
HETATM   18  O2  UNL     1      -2.880   2.409  -1.735  1.00  0.00    -0.643 OA
ENDBRANCH   4  16
BRANCH   1  19
HETATM   19  N1  UNL     1      -2.625  -2.000  -0.324  1.00  0.00    -0.384 N 
ATOM     20  H12 UNL     1      -3.368  -1.701  -0.956  1.00  0.00     0.157 HD
ATOM     21  H11 UNL     1      -2.496  -2.915   0.108  1.00  0.00     0.157 HD
ENDBRANCH   1  19
TORSDOF 4
