REMARK  16 active torsions:
REMARK  status: ('A' for Active; 'I' for Inactive)
REMARK    1  A    between atoms: N1_1  and  C1_5 
REMARK    2  A    between atoms: C1_5  and  C2_6 
REMARK       I    between atoms: C2_6  and  N2_8 
REMARK    3  A    between atoms: N2_8  and  C3_10 
REMARK    4  A    between atoms: C10_19  and  O3_20 
REMARK    5  A    between atoms: C12_23  and  C13_24 
REMARK    6  A    between atoms: C13_24  and  C14_25 
REMARK    7  A    between atoms: C14_25  and  C15_26 
REMARK    8  A    between atoms: C15_26  and  C16_27 
REMARK    9  A    between atoms: C16_27  and  C17_28 
REMARK   10  A    between atoms: C17_28  and  C18_29 
REMARK   11  A    between atoms: C18_29  and  C19_30 
REMARK   12  A    between atoms: C19_30  and  N5_35 
REMARK   13  A    between atoms: N4_31  and  O4_33 
REMARK   14  A    between atoms: N5_35  and  C20_37 
REMARK   15  A    between atoms: C20_37  and  C21_38 
REMARK   16  A    between atoms: C21_38  and  O5_39 
ROOT
HETATM    1  C3  UNL     1      -4.372   0.375   0.685  1.00  0.00     0.216 C 
HETATM    2  C4  UNL     1      -3.478   0.078   1.816  1.00  0.00     0.120 C 
HETATM    3  C5  UNL     1      -4.151  -0.965   2.717  1.00  0.00     0.038 C 
HETATM    4  C6  UNL     1      -5.375  -1.552   2.128  1.00  0.00     0.105 C 
HETATM    5  C7  UNL     1      -5.255  -1.859   0.678  1.00  0.00     0.225 C 
HETATM    6  O2  UNL     1      -5.682  -2.925   0.167  1.00  0.00    -0.273 OA
HETATM    7  N3  UNL     1      -4.600  -0.818  -0.093  1.00  0.00    -0.304 N 
HETATM    8  C8  UNL     1      -4.304  -1.087  -1.441  1.00  0.00     0.095 C 
HETATM    9  C9  UNL     1      -2.976  -1.479  -1.887  1.00  0.00     0.022 C 
HETATM   10  C10 UNL     1      -2.135  -2.414  -1.131  1.00  0.00     0.144 C 
HETATM   11  C11 UNL     1      -1.641  -2.068   0.207  1.00  0.00     0.060 C 
HETATM   12  C12 UNL     1      -1.503  -0.614   0.512  1.00  0.00     0.079 C 
HETATM   13  N6  UNL     1      -2.153  -0.256   1.683  1.00  0.00    -0.409 N 
ATOM     14  H6  UNL     1      -1.589  -0.239   2.533  1.00  0.00     0.154 HD
ENDROOT
BRANCH  12  15
HETATM   15  C13 UNL     1      -0.013  -0.251   0.714  1.00  0.00     0.025 C 
BRANCH  15  16
HETATM   16  C14 UNL     1       0.765  -0.562  -0.545  1.00  0.00     0.002 C 
BRANCH  16  17
HETATM   17  C15 UNL     1       2.218  -0.185  -0.289  1.00  0.00     0.000 C 
BRANCH  17  18
HETATM   18  C16 UNL     1       3.018  -0.484  -1.530  1.00  0.00     0.000 C 
BRANCH  18  19
HETATM   19  C17 UNL     1       4.471  -0.135  -1.372  1.00  0.00     0.007 C 
BRANCH  19  20
HETATM   20  C18 UNL     1       5.104  -0.907  -0.252  1.00  0.00     0.078 C 
BRANCH  20  21
HETATM   21  C19 UNL     1       6.530  -0.635  -0.043  1.00  0.00     0.097 C 
HETATM   22  N4  UNL     1       7.355  -1.605  -0.331  1.00  0.00    -0.257 N 
ATOM     23  H4  UNL     1       8.353  -1.445  -0.195  1.00  0.00     0.195 HD
BRANCH  22  24
HETATM   24  O4  UNL     1       6.956  -2.821  -0.804  1.00  0.00    -0.288 OA
ATOM     25  H4  UNL     1       7.556  -3.527  -1.014  1.00  0.00     0.244 HD
ENDBRANCH  22  24
BRANCH  21  26
HETATM   26  N5  UNL     1       7.085   0.572   0.437  1.00  0.00    -0.376 N 
ATOM     27  H5  UNL     1       7.923   0.500   1.014  1.00  0.00     0.160 HD
BRANCH  26  28
HETATM   28  C20 UNL     1       6.580   1.883   0.188  1.00  0.00     0.147 C 
BRANCH  28  29
HETATM   29  C21 UNL     1       7.462   2.931   0.875  1.00  0.00     0.183 C 
BRANCH  29  30
HETATM   30  O5  UNL     1       7.467   2.695   2.246  1.00  0.00    -0.399 OA
ATOM     31  H5  UNL     1       8.014   3.345   2.672  1.00  0.00     0.209 HD
ENDBRANCH  29  30
ENDBRANCH  28  29
ENDBRANCH  26  28
ENDBRANCH  21  26
ENDBRANCH  20  21
ENDBRANCH  19  20
ENDBRANCH  18  19
ENDBRANCH  17  18
ENDBRANCH  16  17
ENDBRANCH  15  16
ENDBRANCH  12  15
BRANCH  10  32
HETATM   32  O3  UNL     1      -2.646  -3.735  -1.084  1.00  0.00    -0.392 OA
ATOM     33  H3  UNL     1      -2.102  -4.340  -0.595  1.00  0.00     0.210 HD
ENDBRANCH  10  32
BRANCH   1  34
HETATM   34  N2  UNL     1      -4.126   1.560  -0.072  1.00  0.00    -0.336 N 
HETATM   35  C2  UNL     1      -5.006   2.675  -0.043  1.00  0.00     0.244 C 
HETATM   36  O1  UNL     1      -6.054   2.665   0.661  1.00  0.00    -0.272 OA
ATOM     37  H2  UNL     1      -3.290   1.608  -0.654  1.00  0.00     0.164 HD
BRANCH  35  38
HETATM   38  C1  UNL     1      -4.749   3.905  -0.829  1.00  0.00     0.332 C 
BRANCH  38  39
HETATM   39  N1  UNL     1      -3.503   3.700  -1.557  1.00  0.00    -0.071 N 
ATOM     40  H13 UNL     1      -2.724   3.444  -0.951  1.00  0.00     0.274 HD
ATOM     41  H12 UNL     1      -3.509   2.855  -2.128  1.00  0.00     0.274 HD
ATOM     42  H11 UNL     1      -3.326   4.546  -2.098  1.00  0.00     0.274 HD
ENDBRANCH  38  39
ENDBRANCH  35  38
ENDBRANCH   1  34
TORSDOF 16
