REMARK  8 active torsions:
REMARK  status: ('A' for Active; 'I' for Inactive)
REMARK    1  A    between atoms: C2_2  and  C3_3 
REMARK       I    between atoms: C3_3  and  N1_5 
REMARK    2  A    between atoms: N1_5  and  C4_7 
REMARK    3  A    between atoms: C4_7  and  C5_8 
REMARK    4  A    between atoms: N2_9  and  C6_11 
REMARK    5  A    between atoms: C8_22  and  C9_23 
REMARK    6  A    between atoms: C10_27  and  C11_28 
REMARK    7  A    between atoms: C13_40  and  C14_41 
REMARK    8  A    between atoms: C14_41  and  O4_42 
ROOT
HETATM    1  C6  UNL     1       1.726  -0.663  -0.069  1.00  0.00     0.695 C 
HETATM    2  N3  UNL     1       0.689   0.081   0.076  1.00  0.00    -0.151 N 
ATOM      3  H3  UNL     1       0.774   1.081  -0.107  1.00  0.00     0.184 HD
HETATM    4  C7  UNL     1      -0.616  -0.452   0.495  1.00  0.00     0.418 C 
HETATM    5  N4  UNL     1      -0.424  -1.748   1.158  1.00  0.00    -0.037 NA
HETATM    6  N5  UNL     1       0.270  -2.565   0.230  1.00  0.00    -0.010 NA
HETATM    7  N6  UNL     1       1.585  -2.054   0.192  1.00  0.00    -0.119 N 
ATOM      8  H6  UNL     1       2.396  -2.654   0.344  1.00  0.00     0.202 HD
HETATM    9  N7  UNL     1      -1.484  -0.662  -0.620  1.00  0.00     0.008 N 
ATOM     10  H71 UNL     1      -1.892  -1.596  -0.645  1.00  0.00     0.286 HD
ATOM     11  H72 UNL     1      -0.992  -0.716  -1.512  1.00  0.00     0.286 HD
HETATM   12  C8  UNL     1      -2.458   0.381  -0.572  1.00  0.00     0.293 C 
HETATM   13  C13 UNL     1      -2.389   0.902   0.818  1.00  0.00     0.190 C 
HETATM   14  O5  UNL     1      -1.188   0.487   1.313  1.00  0.00    -0.313 OA
ENDROOT
BRANCH   1  15
HETATM   15  N2  UNL     1       2.991  -0.182  -0.470  1.00  0.00    -0.203 N 
HETATM   16  C5  UNL     1       3.778   0.503   0.251  1.00  0.00     0.098 C 
ATOM     17  H2  UNL     1       3.297  -0.404  -1.417  1.00  0.00     0.183 HD
BRANCH  16  18
HETATM   18  C4  UNL     1       5.079   0.957  -0.264  1.00  0.00     0.167 C 
BRANCH  18  19
HETATM   19  N1  UNL     1       6.179   0.123   0.162  1.00  0.00    -0.356 N 
HETATM   20  C3  UNL     1       7.486   0.442  -0.259  1.00  0.00     0.217 C 
HETATM   21  O1  UNL     1       7.728   1.429  -0.993  1.00  0.00    -0.274 OA
ATOM     22  H1  UNL     1       6.012  -0.686   0.760  1.00  0.00     0.162 HD
BRANCH  20  23
HETATM   23  C2  UNL     1       8.614  -0.409   0.175  1.00  0.00     0.098 C 
HETATM   24  C1  UNL     1       9.932   0.091  -0.376  1.00  0.00     0.014 C 
ENDBRANCH  20  23
ENDBRANCH  18  19
ENDBRANCH  16  18
ENDBRANCH   1  15
BRANCH  12  25
HETATM   25  C9  UNL     1      -3.838  -0.161  -0.803  1.00  0.00     0.138 A 
HETATM   26  N8  UNL     1      -4.188  -1.053  -1.775  1.00  0.00    -0.244 N 
HETATM   27  O2  UNL     1      -5.468  -1.301  -1.681  1.00  0.00    -0.214 OA
ATOM     28  H8  UNL     1      -3.554  -1.460  -2.463  1.00  0.00     0.196 HD
HETATM   29  C10 UNL     1      -5.983  -0.615  -0.691  1.00  0.00     0.225 A 
HETATM   30  N12 UNL     1      -4.982   0.091  -0.145  1.00  0.00    -0.318 N 
ATOM     31  H12 UNL     1      -5.075   0.724   0.650  1.00  0.00     0.169 HD
BRANCH  29  32
HETATM   32  C11 UNL     1      -7.395  -0.649  -0.298  1.00  0.00     0.220 A 
HETATM   33  N9  UNL     1      -8.371  -1.368  -0.867  1.00  0.00    -0.273 N 
HETATM   34  N10 UNL     1      -9.508  -1.134  -0.234  1.00  0.00    -0.263 N 
ATOM     35  H9  UNL     1      -8.256  -1.996  -1.662  1.00  0.00     0.189 HD
HETATM   36  C12 UNL     1      -9.244  -0.242   0.765  1.00  0.00     0.238 A 
ATOM     37  H10 UNL     1     -10.416  -1.545  -0.452  1.00  0.00     0.190 HD
HETATM   38  N11 UNL     1     -10.103   0.237   1.609  1.00  0.00    -0.364 N 
HETATM   39  O3  UNL     1      -7.963   0.015   0.681  1.00  0.00    -0.255 OA
ATOM     40 2H11 UNL     1     -11.101   0.037   1.674  1.00  0.00     0.159 HD
ATOM     41 1H11 UNL     1      -9.906   0.904   2.355  1.00  0.00     0.159 HD
ENDBRANCH  29  32
ENDBRANCH  12  25
BRANCH  13  42
HETATM   42  C14 UNL     1      -2.532   2.410   0.800  1.00  0.00     0.198 C 
BRANCH  42  43
HETATM   43  O4  UNL     1      -3.765   2.806   0.291  1.00  0.00    -0.398 OA
ATOM     44  H4  UNL     1      -3.855   3.752   0.280  1.00  0.00     0.209 HD
ENDBRANCH  42  43
ENDBRANCH  13  42
TORSDOF 8
