REMARK  4 active torsions:
REMARK  status: ('A' for Active; 'I' for Inactive)
REMARK    1  A    between atoms: O1_1  and  C1_3 
REMARK    2  A    between atoms: C4_6  and  C5_7 
REMARK    3  A    between atoms: C6_8  and  C7_9 
REMARK    4  A    between atoms: C7_9  and  N1_10 
ROOT
HETATM    1  C5  UNL     1      -0.782  -0.775  -1.400  1.00  0.00    -0.018 C 
HETATM    2  C6  UNL     1       0.561  -0.632  -0.949  1.00  0.00     0.016 C 
ENDROOT
BRANCH   2   3
HETATM    3  C7  UNL     1       1.030  -0.041   0.095  1.00  0.00     0.115 C 
BRANCH   3   4
HETATM    4  N1  UNL     1       2.450  -0.018   0.367  1.00  0.00    -0.279 N 
HETATM    5  C8  UNL     1       3.100   0.541   1.387  1.00  0.00     0.117 A 
HETATM    6  C9  UNL     1       4.453   0.317   1.242  1.00  0.00     0.038 A 
HETATM    7  C10 UNL     1       4.595  -0.409   0.077  1.00  0.00     0.109 A 
HETATM    8  N2  UNL     1       3.359  -0.577  -0.401  1.00  0.00    -0.306 N 
ATOM      9  H2  UNL     1       3.145  -1.081  -1.262  1.00  0.00     0.186 HD
ENDBRANCH   3   4
ENDBRANCH   2   3
BRANCH   1  10
HETATM   10  C4  UNL     1      -1.959  -0.320  -0.691  1.00  0.00     0.037 C 
HETATM   11  C1  UNL     1      -2.221   1.077  -0.302  1.00  0.00     0.126 C 
HETATM   12  C2  UNL     1      -3.192   0.496   0.745  1.00  0.00     0.033 C 
HETATM   13  C3  UNL     1      -2.258  -0.730   0.719  1.00  0.00     0.013 C 
BRANCH  11  14
HETATM   14  O1  UNL     1      -2.984   1.846  -1.186  1.00  0.00    -0.395 OA
ATOM     15  H1  UNL     1      -2.386   2.204  -1.831  1.00  0.00     0.210 HD
ENDBRANCH  11  14
ENDBRANCH   1  10
TORSDOF 4
