REMARK  4 active torsions:
REMARK  status: ('A' for Active; 'I' for Inactive)
REMARK    1  A    between atoms: O1_1  and  C1_3 
REMARK    2  A    between atoms: C1_3  and  C2_4 
REMARK    3  A    between atoms: C3_5  and  C4_6 
REMARK    4  A    between atoms: C4_6  and  C5_7 
ROOT
HETATM    1  C5  UNL     1      -0.080  -0.555   0.611  1.00  0.00     0.325 C 
HETATM    2  N1  UNL     1      -0.600  -1.793   0.153  1.00  0.00    -0.373 N 
ATOM      3  H1  UNL     1       0.060  -2.566   0.066  1.00  0.00     0.160 HD
HETATM    4  C6  UNL     1      -1.797  -2.030  -0.156  1.00  0.00     0.059 C 
HETATM    5  C7  UNL     1      -2.774  -0.912  -0.035  1.00  0.00     0.080 C 
HETATM    6  C8  UNL     1      -2.380  -0.104   1.169  1.00  0.00     0.232 C 
HETATM    7  C9  UNL     1      -2.821   1.350   0.956  1.00  0.00     0.066 C 
HETATM    8  C10 UNL     1      -1.437   1.455   0.303  1.00  0.00     0.278 C 
HETATM    9  N2  UNL     1      -1.028   0.358   1.123  1.00  0.00     0.116 N 
ENDROOT
BRANCH   1  10
HETATM   10  C4  UNL     1       0.788   0.037  -0.508  1.00  0.00     0.084 C 
BRANCH  10  11
HETATM   11  C3  UNL     1       1.874  -0.943  -0.777  1.00  0.00    -0.025 C 
HETATM   12  C2  UNL     1       3.161  -0.701  -0.656  1.00  0.00    -0.005 C 
BRANCH  12  13
HETATM   13  C1  UNL     1       3.781   0.563  -0.238  1.00  0.00     0.191 C 
BRANCH  13  14
HETATM   14  O1  UNL     1       4.614   1.019  -1.282  1.00  0.00    -0.397 OA
ATOM     15  H1  UNL     1       5.015   1.837  -1.012  1.00  0.00     0.209 HD
ENDBRANCH  13  14
ENDBRANCH  12  13
ENDBRANCH  10  11
ENDBRANCH   1  10
TORSDOF 4
