REMARK  11 active torsions:
REMARK  status: ('A' for Active; 'I' for Inactive)
REMARK    1  A    between atoms: C3_3  and  C4_4 
REMARK    2  A    between atoms: C7_8  and  N1_9 
REMARK       I    between atoms: N1_9  and  C8_11 
REMARK    3  A    between atoms: C8_11  and  C9_13 
REMARK    4  A    between atoms: C9_13  and  N2_14 
REMARK    5  A    between atoms: C10_18  and  C11_19 
REMARK    6  A    between atoms: C11_19  and  C12_21 
REMARK    7  A    between atoms: C12_21  and  S2_22 
REMARK    8  A    between atoms: S2_22  and  C13_23 
REMARK    9  A    between atoms: N4_26  and  N5_27 
REMARK   10  A    between atoms: N6_32  and  N7_33 
REMARK       I    between atoms: N7_33  and  C15_35 
REMARK   11  A    between atoms: C15_35  and  C16_37 
ROOT
HETATM    1  C11 UNL     1      -0.113   0.339   0.636  1.00  0.00     0.172 C 
HETATM    2  O2  UNL     1       0.329   1.551   0.729  1.00  0.00    -0.291 OA
ENDROOT
BRANCH   1   3
HETATM    3  C10 UNL     1      -1.564   0.209   0.378  1.00  0.00     0.052 A 
HETATM    4  C2  UNL     1      -2.227  -0.955   0.217  1.00  0.00    -0.028 A 
HETATM    5  C1  UNL     1      -1.609  -2.337   0.205  1.00  0.00     0.050 C 
HETATM    6  C3  UNL     1      -3.591  -0.910  -0.048  1.00  0.00     0.015 A 
HETATM    7  S1  UNL     1      -3.900   0.749  -0.073  1.00  0.00    -0.071 SA
HETATM    8  C7  UNL     1      -2.325   1.346   0.254  1.00  0.00     0.091 A 
BRANCH   6   9
HETATM    9  C4  UNL     1      -4.596  -2.036  -0.109  1.00  0.00    -0.070 C 
HETATM   10  C5  UNL     1      -4.712  -2.675  -1.451  1.00  0.00     0.044 C 
HETATM   11  C6  UNL     1      -4.799  -2.860   1.081  1.00  0.00     0.044 C 
ENDBRANCH   6   9
BRANCH   8  12
HETATM   12  N1  UNL     1      -2.060   2.753   0.388  1.00  0.00    -0.319 N 
HETATM   13  C8  UNL     1      -3.142   3.679   0.268  1.00  0.00     0.248 C 
HETATM   14  O1  UNL     1      -4.302   3.208   0.064  1.00  0.00    -0.271 OA
ATOM     15  H1  UNL     1      -1.112   3.086   0.566  1.00  0.00     0.169 HD
BRANCH  13  16
HETATM   16  C9  UNL     1      -2.944   5.113   0.369  1.00  0.00     0.332 C 
BRANCH  16  17
HETATM   17  N2  UNL     1      -4.264   5.755   0.167  1.00  0.00    -0.071 N 
ATOM     18  H23 UNL     1      -4.715   5.475  -0.704  1.00  0.00     0.274 HD
ATOM     19  H22 UNL     1      -4.979   5.405   0.804  1.00  0.00     0.274 HD
ATOM     20  H21 UNL     1      -4.125   6.763   0.238  1.00  0.00     0.274 HD
ENDBRANCH  16  17
ENDBRANCH  13  16
ENDBRANCH   8  12
ENDBRANCH   1   3
BRANCH   1  21
HETATM   21  C12 UNL     1       0.823  -0.771   0.795  1.00  0.00     0.166 C 
BRANCH  21  22
HETATM   22  S2  UNL     1       2.537  -0.172   1.101  1.00  0.00    -0.083 SA
BRANCH  22  23
HETATM   23  C13 UNL     1       3.540  -0.650  -0.321  1.00  0.00     0.185 A 
HETATM   24  N3  UNL     1       3.110  -1.311  -1.387  1.00  0.00    -0.255 N 
HETATM   25  N4  UNL     1       4.108  -1.567  -2.162  1.00  0.00    -0.171 N 
ATOM     26  H3  UNL     1       2.141  -1.576  -1.566  1.00  0.00     0.191 HD
HETATM   27  C14 UNL     1       5.229  -1.044  -1.560  1.00  0.00     0.237 A 
HETATM   28  S3  UNL     1       6.687  -1.196  -2.238  1.00  0.00    -0.035 SA
HETATM   29  N6  UNL     1       4.906  -0.466  -0.415  1.00  0.00    -0.200 N 
BRANCH  25  30
HETATM   30  N5  UNL     1       4.158  -2.281  -3.395  1.00  0.00    -0.321 N 
ATOM     31  H52 UNL     1       3.327  -2.669  -3.841  1.00  0.00     0.179 HD
ATOM     32  H51 UNL     1       4.948  -2.484  -4.008  1.00  0.00     0.179 HD
ENDBRANCH  25  30
BRANCH  29  33
HETATM   33  N7  UNL     1       5.620   0.213   0.569  1.00  0.00    -0.258 N 
HETATM   34  C15 UNL     1       6.981   0.475   0.677  1.00  0.00     0.250 C 
HETATM   35  O3  UNL     1       7.852   0.140  -0.141  1.00  0.00    -0.271 OA
ATOM     36  H7  UNL     1       5.053   0.577   1.334  1.00  0.00     0.190 HD
BRANCH  34  37
HETATM   37  C16 UNL     1       7.462   1.239   1.910  1.00  0.00     0.219 C 
HETATM   38 CL1  UNL     1       6.129   1.547   3.001  1.00  0.00    -0.121 Cl
ENDBRANCH  34  37
ENDBRANCH  29  33
ENDBRANCH  22  23
ENDBRANCH  21  22
ENDBRANCH   1  21
TORSDOF 11
