REMARK  13 active torsions:
REMARK  status: ('A' for Active; 'I' for Inactive)
REMARK    1  A    between atoms: C2_2  and  O1_4 
REMARK    2  A    between atoms: O1_4  and  C4_5 
REMARK    3  A    between atoms: C4_5  and  C5_7 
REMARK    4  A    between atoms: C6_12  and  N3_13 
REMARK    5  A    between atoms: N4_15  and  C7_17 
REMARK    6  A    between atoms: C7_17  and  C8_18 
REMARK    7  A    between atoms: C8_18  and  C9_19 
REMARK    8  A    between atoms: C9_19  and  C10_20 
REMARK    9  A    between atoms: C11_21  and  C12_22 
REMARK   10  A    between atoms: C12_22  and  C13_24 
REMARK   11  A    between atoms: C14_29  and  C15_30 
REMARK   12  A    between atoms: C16_32  and  O6_33 
REMARK   13  A    between atoms: C17_35  and  C18_36 
ROOT
HETATM    1  C5  UNL     1      -2.622  -1.144  -0.142  1.00  0.00     0.138 A 
HETATM    2  N1  UNL     1      -1.529  -1.980  -0.202  1.00  0.00    -0.293 N 
ATOM      3  H1  UNL     1      -1.591  -2.804  -0.800  1.00  0.00     0.187 HD
HETATM    4  N2  UNL     1      -0.430  -1.789   0.450  1.00  0.00    -0.281 N 
ATOM      5  H2  UNL     1       0.337  -2.454   0.354  1.00  0.00     0.188 HD
HETATM    6  C6  UNL     1      -0.287  -0.699   1.270  1.00  0.00     0.169 A 
HETATM    7  C16 UNL     1      -1.314   0.198   1.404  1.00  0.00     0.126 A 
HETATM    8  C17 UNL     1      -2.498  -0.050   0.673  1.00  0.00     0.050 A 
ENDROOT
BRANCH   6   9
HETATM    9  N3  UNL     1       0.807  -0.597   1.863  1.00  0.00    -0.282 N 
HETATM   10  N4  UNL     1       1.507   0.099   2.677  1.00  0.00    -0.310 N 
ATOM     11  H4  UNL     1       0.933   0.284   3.500  1.00  0.00     0.186 HD
ATOM     12  H3  UNL     1       1.376  -1.396   1.584  1.00  0.00     0.188 HD
BRANCH  10  13
HETATM   13  C7  UNL     1       2.605   0.634   2.856  1.00  0.00     0.107 C 
BRANCH  13  14
HETATM   14  C8  UNL     1       3.754   0.637   1.946  1.00  0.00     0.020 C 
BRANCH  14  15
HETATM   15  C9  UNL     1       3.735   0.052   0.801  1.00  0.00     0.018 C 
BRANCH  15  16
HETATM   16  C10 UNL     1       4.829   0.024  -0.150  1.00  0.00     0.035 A 
HETATM   17  C11 UNL     1       5.817   0.931  -0.373  1.00  0.00     0.115 A 
HETATM   18  N5  UNL     1       6.667   0.267  -1.247  1.00  0.00    -0.256 N 
HETATM   19  O4  UNL     1       6.238  -0.887  -1.518  1.00  0.00    -0.233 OA
ATOM     20  H5  UNL     1       7.529   0.663  -1.622  1.00  0.00     0.195 HD
HETATM   21  C14 UNL     1       5.120  -1.154  -0.909  1.00  0.00     0.148 A 
BRANCH  17  22
HETATM   22  C12 UNL     1       6.021   2.298   0.048  1.00  0.00     0.192 C 
HETATM   23  O3  UNL     1       5.263   2.960   0.795  1.00  0.00    -0.289 OA
BRANCH  22  24
HETATM   24  C13 UNL     1       7.225   3.072  -0.406  1.00  0.00     0.200 C 
HETATM   25 CL1  UNL     1       8.284   2.153  -1.422  1.00  0.00    -0.122 Cl
ENDBRANCH  22  24
ENDBRANCH  17  22
BRANCH  21  26
HETATM   26  C15 UNL     1       4.316  -2.348  -0.954  1.00  0.00     0.298 C 
HETATM   27  O5  UNL     1       3.252  -2.583  -0.359  1.00  0.00    -0.299 OA
ENDBRANCH  21  26
ENDBRANCH  15  16
ENDBRANCH  14  15
ENDBRANCH  13  14
ENDBRANCH  10  13
ENDBRANCH   6   9
BRANCH   7  28
HETATM   28  O6  UNL     1      -1.243   1.311   2.206  1.00  0.00    -0.356 OA
ATOM     29  H6  UNL     1      -1.955   1.933   2.299  1.00  0.00     0.218 HD
ENDBRANCH   7  28
BRANCH   8  30
HETATM   30  C18 UNL     1      -3.573   0.900   0.824  1.00  0.00     0.097 C 
HETATM   31  N6  UNL     1      -3.568   1.913   1.525  1.00  0.00    -0.407 N 
ATOM     32  H62 UNL     1      -2.707   2.083   2.046  1.00  0.00     0.155 HD
ATOM     33  H61 UNL     1      -4.328   2.585   1.632  1.00  0.00     0.155 HD
ENDBRANCH   8  30
BRANCH   1  34
HETATM   34  C4  UNL     1      -3.783  -1.467  -0.913  1.00  0.00     0.312 C 
HETATM   35  O2  UNL     1      -3.721  -2.547  -1.624  1.00  0.00    -0.258 OA
BRANCH  34  36
HETATM   36  O1  UNL     1      -4.957  -0.812  -1.022  1.00  0.00    -0.312 OA
BRANCH  36  37
HETATM   37  C2  UNL     1      -6.074  -1.147  -1.780  1.00  0.00     0.124 C 
HETATM   38  C1  UNL     1      -7.261  -1.281  -0.857  1.00  0.00     0.040 C 
HETATM   39  C3  UNL     1      -6.427  -0.098  -2.811  1.00  0.00     0.040 C 
ENDBRANCH  36  37
ENDBRANCH  34  36
ENDBRANCH   1  34
TORSDOF 13
