REMARK  7 active torsions:
REMARK  status: ('A' for Active; 'I' for Inactive)
REMARK    1  A    between atoms: S1_2  and  C2_3 
REMARK    2  A    between atoms: C3_8  and  C4_9 
REMARK    3  A    between atoms: C4_9  and  N3_10 
REMARK    4  A    between atoms: N5_20  and  C12_21 
REMARK    5  A    between atoms: C12_21  and  C13_22 
REMARK    6  A    between atoms: C13_22  and  C14_23 
REMARK    7  A    between atoms: C14_23  and  C15_24 
ROOT
HETATM    1  C2  UNL     1      -0.319   2.704  -1.392  1.00  0.00     0.162 A 
HETATM    2  N1  UNL     1      -1.469   2.584  -2.077  1.00  0.00    -0.278 N 
ATOM      3  H1  UNL     1      -1.681   2.997  -2.985  1.00  0.00     0.189 HD
HETATM    4  N2  UNL     1      -2.269   1.833  -1.352  1.00  0.00    -0.285 N 
ATOM      5  H2  UNL     1      -3.218   1.563  -1.610  1.00  0.00     0.188 HD
HETATM    6  C3  UNL     1      -1.627   1.470  -0.194  1.00  0.00     0.118 A 
HETATM    7  N5  UNL     1      -0.409   2.024  -0.237  1.00  0.00    -0.314 N 
ENDROOT
BRANCH   6   8
HETATM    8  C4  UNL     1      -2.333   0.668   0.813  1.00  0.00     0.208 C 
BRANCH   8   9
HETATM    9  N3  UNL     1      -2.882  -0.546   0.264  1.00  0.00    -0.334 N 
HETATM   10  C5  UNL     1      -2.312  -1.741   0.201  1.00  0.00     0.184 A 
HETATM   11  N4  UNL     1      -3.188  -2.603  -0.387  1.00  0.00    -0.350 N 
HETATM   12  C6  UNL     1      -4.297  -1.914  -0.680  1.00  0.00     0.060 A 
ATOM     13  H4  UNL     1      -3.028  -3.593  -0.570  1.00  0.00     0.166 HD
HETATM   14  C7  UNL     1      -5.501  -2.299  -1.284  1.00  0.00     0.032 A 
HETATM   15  C11 UNL     1      -4.130  -0.632  -0.284  1.00  0.00     0.062 A 
HETATM   16  C8  UNL     1      -6.520  -1.395  -1.482  1.00  0.00     0.002 A 
HETATM   17  C9  UNL     1      -6.329  -0.095  -1.071  1.00  0.00     0.002 A 
HETATM   18  C10 UNL     1      -5.145   0.293  -0.474  1.00  0.00     0.032 A 
ENDBRANCH   8   9
ENDBRANCH   6   8
BRANCH   7  19
HETATM   19  C12 UNL     1       0.602   1.985   0.756  1.00  0.00     0.133 C 
BRANCH  19  20
HETATM   20  C13 UNL     1       1.682   0.982   0.613  1.00  0.00     0.022 C 
BRANCH  20  21
HETATM   21  C14 UNL     1       1.299  -0.445   0.593  1.00  0.00     0.034 C 
BRANCH  21  22
HETATM   22  C15 UNL     1       2.456  -1.370   0.445  1.00  0.00     0.186 C 
HETATM   23  C16 UNL     1       3.454  -1.238   1.558  1.00  0.00     0.033 C 
HETATM   24  C17 UNL     1       4.537  -2.281   1.392  1.00  0.00     0.004 C 
HETATM   25  C18 UNL     1       5.120  -2.260  -0.005  1.00  0.00     0.027 C 
HETATM   26  C19 UNL     1       3.961  -2.439  -0.974  1.00  0.00     0.232 C 
HETATM   27  N6  UNL     1       3.106  -1.271  -0.852  1.00  0.00    -0.071 N 
ATOM     28  H62 UNL     1       2.450  -1.168  -1.626  1.00  0.00     0.277 HD
ATOM     29  H61 UNL     1       3.603  -0.391  -0.989  1.00  0.00     0.277 HD
ENDBRANCH  21  22
ENDBRANCH  20  21
ENDBRANCH  19  20
ENDBRANCH   7  19
BRANCH   1  30
HETATM   30  S1  UNL     1       1.101   3.618  -1.926  1.00  0.00    -0.097 SA
HETATM   31  C1  UNL     1       1.068   5.337  -1.394  1.00  0.00     0.099 C 
ENDBRANCH   1  30
TORSDOF 7
