REMARK  7 active torsions:
REMARK  status: ('A' for Active; 'I' for Inactive)
REMARK    1  A    between atoms: C5_5  and  C6_6 
REMARK    2  A    between atoms: C7_11  and  S1_12 
REMARK    3  A    between atoms: S1_12  and  C8_13 
REMARK    4  A    between atoms: C8_13  and  C9_14 
REMARK    5  A    between atoms: C9_14  and  C10_15 
REMARK    6  A    between atoms: C10_15  and  C11_16 
REMARK    7  A    between atoms: C11_16  and  N3_17 
ROOT
HETATM    1  S1  UNL     1       0.194   0.660  -0.264  1.00  0.00    -0.085 SA
ENDROOT
BRANCH   1   2
HETATM    2  C7  UNL     1       1.926   0.517   0.087  1.00  0.00     0.203 A 
HETATM    3  N2  UNL     1       2.438   0.209   1.288  1.00  0.00    -0.272 N 
HETATM    4  N1  UNL     1       3.760   0.178   1.229  1.00  0.00    -0.276 N 
ATOM      5  H2  UNL     1       1.887   0.025   2.127  1.00  0.00     0.189 HD
HETATM    6  C6  UNL     1       4.060   0.477  -0.054  1.00  0.00     0.182 A 
ATOM      7  H1  UNL     1       4.411  -0.027   1.987  1.00  0.00     0.189 HD
HETATM    8  O1  UNL     1       2.961   0.671  -0.701  1.00  0.00    -0.267 OA
BRANCH   6   9
HETATM    9  C5  UNL     1       5.458   0.545  -0.535  1.00  0.00     0.058 A 
HETATM   10  C4  UNL     1       5.891   0.835  -1.807  1.00  0.00     0.024 A 
HETATM   11  C3  UNL     1       7.213   0.839  -2.017  1.00  0.00     0.015 A 
HETATM   12  C2  UNL     1       8.025   0.556  -0.954  1.00  0.00    -0.021 A 
HETATM   13  C1  UNL     1       9.519   0.486  -0.879  1.00  0.00     0.056 C 
HETATM   14  S2  UNL     1       6.916   0.292   0.311  1.00  0.00    -0.091 SA
ENDBRANCH   6   9
ENDBRANCH   1   2
BRANCH   1  15
HETATM   15  C8  UNL     1      -0.536  -0.900  -0.783  1.00  0.00     0.083 C 
BRANCH  15  16
HETATM   16  C9  UNL     1      -0.586  -1.965   0.227  1.00  0.00     0.012 C 
BRANCH  16  17
HETATM   17  C10 UNL     1      -1.393  -1.816   1.454  1.00  0.00     0.031 C 
BRANCH  17  18
HETATM   18  C11 UNL     1      -2.872  -1.689   1.291  1.00  0.00     0.272 C 
BRANCH  18  19
HETATM   19  N3  UNL     1      -3.372  -0.535   0.616  1.00  0.00     0.092 N 
HETATM   20  C12 UNL     1      -3.215   0.604   1.511  1.00  0.00     0.305 C 
HETATM   21  C13 UNL     1      -3.906   1.828   0.948  1.00  0.00     0.214 C 
HETATM   22  C14 UNL     1      -3.795   1.925  -0.552  1.00  0.00     0.037 C 
HETATM   23  N4  UNL     1      -5.342   1.569   1.121  1.00  0.00    -0.063 N 
HETATM   24  C15 UNL     1      -5.011   1.203  -1.113  1.00  0.00     0.037 C 
HETATM   25  C16 UNL     1      -5.542   0.528   0.135  1.00  0.00     0.214 C 
HETATM   26  C17 UNL     1      -4.796  -0.735   0.420  1.00  0.00     0.305 C 
ATOM     27  H42 UNL     1      -5.639   1.341   2.070  1.00  0.00     0.278 HD
ATOM     28  H41 UNL     1      -5.951   2.382   1.034  1.00  0.00     0.278 HD
ENDBRANCH  18  19
ENDBRANCH  17  18
ENDBRANCH  16  17
ENDBRANCH  15  16
ENDBRANCH   1  15
TORSDOF 7
