REMARK  3 active torsions:
REMARK  status: ('A' for Active; 'I' for Inactive)
REMARK    1  A    between atoms: N1_2  and  C4_5 
REMARK    2  A    between atoms: C5_6  and  C6_7 
REMARK    3  A    between atoms: C7_8  and  C8_9 
ROOT
HETATM    1  C4  UNL     1      -0.254  -0.138   0.171  1.00  0.00     0.129 C 
HETATM    2  C5  UNL     1       0.941  -0.171  -0.006  1.00  0.00     0.016 C 
ENDROOT
BRANCH   2   3
HETATM    3  C6  UNL     1       2.345  -0.186  -0.210  1.00  0.00    -0.007 C 
HETATM    4  C7  UNL     1       3.540  -0.179  -0.384  1.00  0.00    -0.048 C 
BRANCH   4   5
HETATM    5  C8  UNL     1       4.973  -0.151  -0.595  1.00  0.00     0.147 C 
HETATM    6  N2  UNL     1       5.613   0.959  -0.798  1.00  0.00    -0.401 N 
ATOM      7  H22 UNL     1       5.078   1.827  -0.806  1.00  0.00     0.156 HD
ATOM      8  H21 UNL     1       6.622   0.979  -0.947  1.00  0.00     0.156 HD
ENDBRANCH   4   5
ENDBRANCH   2   3
BRANCH   1   9
HETATM    9  N1  UNL     1      -1.655  -0.078   0.372  1.00  0.00    -0.013 N 
HETATM   10  C1  UNL     1      -1.925  -0.589   1.711  1.00  0.00     0.289 C 
HETATM   11  C2  UNL     1      -2.267  -0.896  -0.634  1.00  0.00     0.289 C 
HETATM   12  C3  UNL     1      -2.127   1.288   0.330  1.00  0.00     0.289 C 
ENDBRANCH   1   9
TORSDOF 3
