REMARK  15 active torsions:
REMARK  status: ('A' for Active; 'I' for Inactive)
REMARK    1  A    between atoms: C2_2  and  C3_3 
REMARK    2  A    between atoms: C3_3  and  C4_4 
REMARK    3  A    between atoms: C7_9  and  O3_10 
REMARK    4  A    between atoms: C10_14  and  O4_15 
REMARK    5  A    between atoms: O4_15  and  C11_16 
REMARK    6  A    between atoms: C11_16  and  C12_17 
REMARK    7  A    between atoms: C13_18  and  C14_19 
REMARK    8  A    between atoms: C14_19  and  C15_20 
REMARK    9  A    between atoms: C15_20  and  C16_21 
REMARK   10  A    between atoms: C16_21  and  C17_22 
REMARK   11  A    between atoms: C17_22  and  C18_23 
REMARK   12  A    between atoms: C19_24  and  C20_25 
REMARK   13  A    between atoms: C20_25  and  O5_26 
REMARK   14  A    between atoms: C22_28  and  O6_29 
REMARK   15  A    between atoms: C34_43  and  O8_44 
ROOT
HETATM    1  C4  UNL     1      -4.981  -2.125  -1.340  1.00  0.00     0.161 C 
HETATM    2  O1  UNL     1      -3.698  -2.660  -1.116  1.00  0.00    -0.313 OA
HETATM    3  C5  UNL     1      -2.490  -2.355  -1.616  1.00  0.00     0.261 C 
HETATM    4  O2  UNL     1      -1.861  -3.291  -2.218  1.00  0.00    -0.265 OA
HETATM    5  C6  UNL     1      -1.774  -1.052  -1.560  1.00  0.00     0.143 C 
HETATM    6  C7  UNL     1      -0.390  -1.273  -0.977  1.00  0.00     0.133 C 
HETATM    7  C8  UNL     1       0.541  -0.112  -1.152  1.00  0.00     0.042 C 
HETATM    8  C9  UNL     1       0.167   0.630  -2.396  1.00  0.00     0.015 C 
HETATM    9  C10 UNL     1       0.829   0.673   0.075  1.00  0.00     0.161 C 
HETATM   10  C22 UNL     1       0.558   2.100   0.136  1.00  0.00     0.176 C 
HETATM   11  C23 UNL     1      -0.603   2.551   1.045  1.00  0.00    -0.053 C 
HETATM   12  C24 UNL     1      -0.533   2.018   2.408  1.00  0.00     0.046 C 
HETATM   13  C25 UNL     1      -1.870   2.625   0.336  1.00  0.00     0.007 C 
HETATM   14  C26 UNL     1      -3.091   2.208   0.595  1.00  0.00    -0.080 C 
HETATM   15  C27 UNL     1      -4.148   2.507  -0.456  1.00  0.00     0.043 C 
HETATM   16  C28 UNL     1      -3.525   1.486   1.787  1.00  0.00     0.071 C 
HETATM   17  C29 UNL     1      -4.965   1.275   2.037  1.00  0.00    -0.034 C 
HETATM   18  C30 UNL     1      -5.780   2.566   1.984  1.00  0.00     0.048 C 
HETATM   19  C31 UNL     1      -5.645   0.164   1.385  1.00  0.00     0.158 C 
HETATM   20  O7  UNL     1      -6.835   0.274   1.151  1.00  0.00    -0.293 OA
HETATM   21  C32 UNL     1      -5.009  -1.108   0.974  1.00  0.00     0.087 C 
HETATM   22  C33 UNL     1      -5.013  -1.968   2.248  1.00  0.00     0.021 C 
HETATM   23  C34 UNL     1      -5.737  -1.857  -0.082  1.00  0.00     0.159 C 
ENDROOT
BRANCH   9  24
HETATM   24  O4  UNL     1       2.176   0.439   0.453  1.00  0.00    -0.371 OA
BRANCH  24  25
HETATM   25  C11 UNL     1       2.359  -0.258   1.594  1.00  0.00     0.261 C 
BRANCH  25  26
HETATM   26  C12 UNL     1       3.828  -0.381   1.806  1.00  0.00    -0.081 C 
HETATM   27  C13 UNL     1       5.015  -0.465   1.992  1.00  0.00    -0.104 C 
BRANCH  27  28
HETATM   28  C14 UNL     1       6.460  -0.547   2.237  1.00  0.00     0.094 C 
BRANCH  28  29
HETATM   29  C15 UNL     1       7.234  -0.004   1.061  1.00  0.00     0.013 C 
BRANCH  29  30
HETATM   30  C16 UNL     1       6.915  -0.800  -0.187  1.00  0.00     0.013 C 
BRANCH  30  31
HETATM   31  C17 UNL     1       7.723  -0.199  -1.318  1.00  0.00     0.094 C 
BRANCH  31  32
HETATM   32  C18 UNL     1       9.158  -0.275  -1.024  1.00  0.00    -0.104 C 
HETATM   33  C19 UNL     1      10.332  -0.315  -0.785  1.00  0.00    -0.081 C 
BRANCH  33  34
HETATM   34  C20 UNL     1      11.768  -0.341  -0.482  1.00  0.00     0.260 C 
BRANCH  34  35
HETATM   35  O5  UNL     1      12.405  -1.393  -1.153  1.00  0.00    -0.384 OA
HETATM   36  C21 UNL     1      11.825  -2.593  -0.738  1.00  0.00     0.202 C 
ENDBRANCH  34  35
ENDBRANCH  33  34
ENDBRANCH  31  32
ENDBRANCH  30  31
ENDBRANCH  29  30
ENDBRANCH  28  29
ENDBRANCH  27  28
ENDBRANCH  25  26
ENDBRANCH  24  25
ENDBRANCH   9  24
BRANCH  10  37
HETATM   37  O6  UNL     1       0.347   2.793  -1.045  1.00  0.00    -0.389 OA
ATOM     38  H6  UNL     1       0.170   3.725  -1.005  1.00  0.00     0.210 HD
ENDBRANCH  10  37
BRANCH   6  39
HETATM   39  O3  UNL     1      -0.627  -1.586   0.378  1.00  0.00    -0.395 OA
ATOM     40  H3  UNL     1       0.239  -1.724   0.743  1.00  0.00     0.210 HD
ENDBRANCH   6  39
BRANCH   1  41
HETATM   41  C3  UNL     1      -5.023  -1.086  -2.400  1.00  0.00     0.035 C 
BRANCH  41  42
HETATM   42  C2  UNL     1      -6.401  -0.542  -2.617  1.00  0.00    -0.002 C 
HETATM   43  C1  UNL     1      -6.426   0.505  -3.722  1.00  0.00     0.005 C 
ENDBRANCH  41  42
ENDBRANCH   1  41
BRANCH  23  44
HETATM   44  O8  UNL     1      -6.087  -3.127   0.444  1.00  0.00    -0.392 OA
ATOM     45  H8  UNL     1      -6.568  -2.956   1.245  1.00  0.00     0.210 HD
ENDBRANCH  23  44
TORSDOF 15
