REMARK  2 active torsions:
REMARK  status: ('A' for Active; 'I' for Inactive)
REMARK    1  A    between atoms: N1_2  and  C1_4 
REMARK    2  A    between atoms: C2_5  and  N2_6 
ROOT
HETATM    1  C1  UNL     1       2.153   0.014   0.219  1.00  0.00     0.172 A 
HETATM    2  C2  UNL     1       1.028  -0.113   0.981  1.00  0.00     0.145 A 
HETATM    3  N3  UNL     1       1.198  -0.269   2.287  1.00  0.00    -0.309 N 
ATOM      4  H3  UNL     1       0.474  -0.378   2.998  1.00  0.00     0.176 HD
HETATM    5  S1  UNL     1       2.855  -0.248   2.518  1.00  0.00    -0.003 SA
HETATM    6  C7  UNL     1       3.341  -0.035   0.904  1.00  0.00     0.105 A 
HETATM    7 BR1  UNL     1       5.120   0.109   0.159  1.00  0.00    -0.039 Br
ENDROOT
BRANCH   2   8
HETATM    8  N2  UNL     1      -0.332  -0.088   0.447  1.00  0.00    -0.365 N 
HETATM    9  C3  UNL     1      -0.854   1.055  -0.254  1.00  0.00     0.124 C 
HETATM   10  C4  UNL     1      -2.326   0.753  -0.449  1.00  0.00     0.021 C 
HETATM   11  C5  UNL     1      -2.345  -0.760  -0.551  1.00  0.00     0.021 C 
HETATM   12  C6  UNL     1      -1.333  -1.131   0.519  1.00  0.00     0.124 C 
ENDBRANCH   2   8
BRANCH   1  13
HETATM   13  N1  UNL     1       2.136   0.190  -1.229  1.00  0.00    -0.110 N 
HETATM   14  O1  UNL     1       1.841  -0.787  -1.912  1.00  0.00    -0.532 OA
HETATM   15  O2  UNL     1       2.432   1.382  -1.823  1.00  0.00    -0.532 OA
ENDBRANCH   1  13
TORSDOF 2
