REMARK  9 active torsions:
REMARK  status: ('A' for Active; 'I' for Inactive)
REMARK    1  A    between atoms: C2_2  and  O2_4 
REMARK    2  A    between atoms: O2_4  and  C3_5 
REMARK    3  A    between atoms: C3_5  and  C4_6 
REMARK    4  A    between atoms: C4_6  and  S1_7 
REMARK    5  A    between atoms: S1_7  and  C5_10 
REMARK    6  A    between atoms: C8_13  and  O5_14 
REMARK    7  A    between atoms: C10_17  and  C11_18 
REMARK    8  A    between atoms: C16_24  and  O7_25 
REMARK    9  A    between atoms: O7_25  and  C17_26 
ROOT
HETATM    1  C5  UNL     1       1.488   0.058  -0.995  1.00  0.00     0.072 C 
HETATM    2  C6  UNL     1       1.681   0.193   0.492  1.00  0.00     0.029 C 
HETATM    3  C7  UNL     1       1.694   1.558   1.045  1.00  0.00     0.039 C 
HETATM    4  C8  UNL     1       0.368   2.276   0.927  1.00  0.00     0.059 C 
HETATM    5  C9  UNL     1      -0.809   1.520   1.410  1.00  0.00     0.043 C 
HETATM    6  C10 UNL     1      -1.699   1.047   0.249  1.00  0.00     0.003 C 
HETATM    7  C19 UNL     1      -1.048   0.034  -0.597  1.00  0.00     0.016 C 
HETATM    8  C20 UNL     1       0.110   0.399  -1.436  1.00  0.00    -0.018 C 
HETATM    9  C21 UNL     1      -0.134  -0.088  -2.879  1.00  0.00     0.017 C 
HETATM   10  C22 UNL     1       0.488   1.821  -1.548  1.00  0.00    -0.000 C 
HETATM   11  C23 UNL     1       0.238   2.780  -0.477  1.00  0.00     0.043 C 
HETATM   12  C24 UNL     1       1.921   1.361  -1.723  1.00  0.00     0.031 C 
ENDROOT
BRANCH   6  13
HETATM   13  C11 UNL     1      -2.919   0.465   0.922  1.00  0.00     0.089 C 
HETATM   14  C12 UNL     1      -3.686   1.512   1.659  1.00  0.00     0.134 C 
HETATM   15  O6  UNL     1      -3.592   2.687   1.453  1.00  0.00    -0.297 OA
HETATM   16  C13 UNL     1      -4.617   1.019   2.706  1.00  0.00     0.079 C 
HETATM   17  C14 UNL     1      -5.538   0.040   1.958  1.00  0.00     0.010 C 
HETATM   18  C15 UNL     1      -5.328   0.190   0.460  1.00  0.00     0.034 C 
HETATM   19  C16 UNL     1      -3.885  -0.268   0.072  1.00  0.00     0.143 C 
BRANCH  19  20
HETATM   20  O7  UNL     1      -3.941  -1.676   0.344  1.00  0.00    -0.316 OA
BRANCH  20  21
HETATM   21  C17 UNL     1      -3.990  -2.543  -0.722  1.00  0.00     0.255 C 
HETATM   22  C18 UNL     1      -4.044  -4.008  -0.454  1.00  0.00     0.126 C 
HETATM   23  O8  UNL     1      -3.992  -2.164  -1.916  1.00  0.00    -0.266 OA
ENDBRANCH  20  21
ENDBRANCH  19  20
ENDBRANCH   6  13
BRANCH   4  24
HETATM   24  O5  UNL     1       0.497   3.430   1.741  1.00  0.00    -0.390 OA
ATOM     25  H5  UNL     1      -0.336   3.881   1.667  1.00  0.00     0.210 HD
ENDBRANCH   4  24
BRANCH   1  26
HETATM   26  S1  UNL     1       2.314  -1.345  -1.620  1.00  0.00     0.155 S 
HETATM   27  O3  UNL     1       1.767  -1.808  -2.983  1.00  0.00    -0.227 OA
HETATM   28  O4  UNL     1       1.933  -2.589  -0.764  1.00  0.00    -0.227 OA
BRANCH  26  29
HETATM   29  C4  UNL     1       4.047  -1.369  -1.623  1.00  0.00     0.168 C 
BRANCH  29  30
HETATM   30  C3  UNL     1       4.705  -1.211  -0.304  1.00  0.00     0.193 C 
BRANCH  30  31
HETATM   31  O2  UNL     1       6.156  -1.357  -0.464  1.00  0.00    -0.321 OA
BRANCH  31  32
HETATM   32  C2  UNL     1       6.947  -1.242   0.655  1.00  0.00     0.254 C 
HETATM   33  C1  UNL     1       8.427  -1.391   0.484  1.00  0.00     0.126 C 
HETATM   34  O1  UNL     1       6.418  -1.020   1.762  1.00  0.00    -0.266 OA
ENDBRANCH  31  32
ENDBRANCH  30  31
ENDBRANCH  29  30
ENDBRANCH  26  29
ENDBRANCH   1  26
TORSDOF 9
