REMARK  5 active torsions:
REMARK  status: ('A' for Active; 'I' for Inactive)
REMARK    1  A    between atoms: C2_2  and  N1_3 
REMARK    2  A    between atoms: C6_7  and  N2_8 
REMARK    3  A    between atoms: N2_8  and  C7_10 
REMARK    4  A    between atoms: C13_22  and  N6_23 
REMARK    5  A    between atoms: N6_23  and  C14_25 
ROOT
HETATM    1  C7  UNL     1      -0.676   1.454   0.088  1.00  0.00     0.147 A 
HETATM    2  N3  UNL     1       0.179   0.445  -0.091  1.00  0.00    -0.336 N 
ATOM      3  H3  UNL     1      -0.188  -0.424  -0.479  1.00  0.00     0.168 HD
HETATM    4  C8  UNL     1       1.498   0.493   0.205  1.00  0.00     0.085 A 
HETATM    5  C9  UNL     1       2.327  -0.598  -0.009  1.00  0.00    -0.019 A 
HETATM    6  C10 UNL     1       3.642  -0.461   0.318  1.00  0.00    -0.026 A 
HETATM    7  C11 UNL     1       4.111   0.733   0.842  1.00  0.00     0.098 A 
HETATM    8  N4  UNL     1       3.284   1.774   1.038  1.00  0.00    -0.350 N 
ATOM      9  H4  UNL     1       3.648   2.645   1.425  1.00  0.00     0.166 HD
HETATM   10  C12 UNL     1       1.967   1.673   0.724  1.00  0.00     0.134 A 
HETATM   11  N5  UNL     1       1.154   2.746   0.934  1.00  0.00    -0.324 N 
ATOM     12  H5  UNL     1       1.530   3.612   1.321  1.00  0.00     0.169 HD
HETATM   13  C13 UNL     1      -0.130   2.649   0.629  1.00  0.00     0.148 A 
HETATM   14  C17 UNL     1       4.318  -1.740   0.012  1.00  0.00    -0.018 C 
HETATM   15  C18 UNL     1       4.283  -2.645   1.233  1.00  0.00     0.020 C 
HETATM   16  C19 UNL     1       5.738  -1.511  -0.460  1.00  0.00     0.020 C 
HETATM   17  C20 UNL     1       3.449  -2.353  -1.042  1.00  0.00     0.018 C 
HETATM   18  C21 UNL     1       2.050  -1.951  -0.552  1.00  0.00     0.043 C 
ENDROOT
BRANCH   1  19
HETATM   19  N2  UNL     1      -1.887   1.458  -0.166  1.00  0.00    -0.367 N 
ATOM     20  H2  UNL     1      -2.301   2.360   0.068  1.00  0.00     0.161 HD
BRANCH  19  21
HETATM   21  C6  UNL     1      -2.851   0.591  -0.678  1.00  0.00     0.111 C 
HETATM   22  C5  UNL     1      -2.600   0.324  -2.150  1.00  0.00     0.028 C 
HETATM   23  C4  UNL     1      -3.604  -0.621  -2.738  1.00  0.00     0.032 C 
HETATM   24  C3  UNL     1      -4.002  -1.749  -1.846  1.00  0.00     0.272 C 
HETATM   25  N1  UNL     1      -4.165  -1.409  -0.469  1.00  0.00     0.090 N 
HETATM   26  C22 UNL     1      -3.077  -0.681   0.114  1.00  0.00     0.297 C 
BRANCH  25  27
HETATM   27  C2  UNL     1      -4.555  -2.538   0.308  1.00  0.00     0.268 C 
HETATM   28  C1  UNL     1      -3.523  -3.611   0.454  1.00  0.00     0.037 C 
ENDBRANCH  25  27
ENDBRANCH  19  21
ENDBRANCH   1  19
BRANCH  13  29
HETATM   29  N6  UNL     1      -0.946   3.576   0.786  1.00  0.00    -0.366 N 
ATOM     30  H6  UNL     1      -1.864   3.256   0.477  1.00  0.00     0.161 HD
BRANCH  29  31
HETATM   31  C14 UNL     1      -1.060   4.879   1.226  1.00  0.00     0.120 A 
HETATM   32  C15 UNL     1      -0.332   5.283   2.537  1.00  0.00     0.067 A 
HETATM   33  C16 UNL     1       0.012   5.917   1.255  1.00  0.00     0.195 A 
HETATM   34  F1  UNL     1      -0.398   7.258   1.143  1.00  0.00    -0.247 F 
ENDBRANCH  29  31
ENDBRANCH  13  29
TORSDOF 5
