REMARK  1 active torsions:
REMARK  status: ('A' for Active; 'I' for Inactive)
REMARK       I    between atoms: C2_2  and  N1_4 
REMARK    1  A    between atoms: N5_29  and  C20_30 
ROOT
HETATM    1  C1  UNL     1      -5.127  -1.861  -1.188  1.00  0.00     0.117 C 
HETATM    2  C2  UNL     1      -4.751  -0.779  -0.226  1.00  0.00     0.220 C 
HETATM    3  O1  UNL     1      -5.520  -0.470   0.743  1.00  0.00    -0.274 OA
HETATM    4  N1  UNL     1      -3.529  -0.071  -0.367  1.00  0.00    -0.292 N 
ATOM      5  H1  UNL     1      -3.490   0.841  -0.822  1.00  0.00     0.172 HD
HETATM    6  C3  UNL     1      -2.457  -0.642   0.114  1.00  0.00     0.238 A 
HETATM    7  O2  UNL     1      -2.517  -1.876   0.730  1.00  0.00    -0.278 OA
HETATM    8  C4  UNL     1      -1.307  -2.397   1.210  1.00  0.00     0.091 A 
HETATM    9  C5  UNL     1      -1.310  -3.642   1.841  1.00  0.00     0.040 A 
HETATM   10  C6  UNL     1      -0.140  -4.159   2.313  1.00  0.00     0.025 A 
HETATM   11  C7  UNL     1       1.078  -3.512   2.201  1.00  0.00     0.045 A 
HETATM   12  C8  UNL     1       2.284  -4.098   2.715  1.00  0.00     0.099 C 
HETATM   13  N2  UNL     1       3.260  -4.593   3.143  1.00  0.00    -0.191 NA
HETATM   14  C9  UNL     1       1.068  -2.288   1.579  1.00  0.00     0.039 A 
HETATM   15  C10 UNL     1      -0.127  -1.734   1.084  1.00  0.00     0.048 A 
HETATM   16  C11 UNL     1      -0.010  -0.420   0.438  1.00  0.00     0.226 A 
HETATM   17  N3  UNL     1       0.653   0.543   1.309  1.00  0.00    -0.339 N 
ATOM     18  H3  UNL     1       0.300   0.918   2.189  1.00  0.00     0.164 HD
HETATM   19  C12 UNL     1       1.763   0.821   0.747  1.00  0.00     0.070 A 
HETATM   20  C13 UNL     1       1.928   0.102  -0.487  1.00  0.00     0.070 A 
HETATM   21  N4  UNL     1       0.913  -0.625  -0.688  1.00  0.00    -0.339 N 
ATOM     22  H4  UNL     1       0.762  -1.242  -1.486  1.00  0.00     0.164 HD
HETATM   23  C14 UNL     1       3.233   0.706  -0.727  1.00  0.00     0.005 A 
HETATM   24  C15 UNL     1       4.394   0.914  -1.440  1.00  0.00     0.014 A 
HETATM   25  C16 UNL     1       5.383   1.773  -1.015  1.00  0.00     0.001 A 
HETATM   26  C17 UNL     1       5.215   2.465   0.180  1.00  0.00     0.001 A 
HETATM   27  C18 UNL     1       4.064   2.264   0.895  1.00  0.00     0.014 A 
HETATM   28  C19 UNL     1       3.079   1.395   0.452  1.00  0.00     0.005 A 
HETATM   29  N5  UNL     1      -1.260   0.087  -0.042  1.00  0.00    -0.263 N 
ENDROOT
BRANCH  29  30
HETATM   30  C20 UNL     1      -1.306   1.386  -0.710  1.00  0.00     0.042 A 
HETATM   31  C21 UNL     1      -1.143   1.483  -2.073  1.00  0.00     0.030 A 
HETATM   32  C22 UNL     1      -1.189   2.726  -2.698  1.00  0.00     0.002 A 
HETATM   33  C23 UNL     1      -1.398   3.870  -1.959  1.00  0.00     0.000 A 
HETATM   34  C24 UNL     1      -1.559   3.755  -0.600  1.00  0.00     0.002 A 
HETATM   35  C25 UNL     1      -1.513   2.538   0.003  1.00  0.00     0.030 A 
ENDBRANCH  29  30
TORSDOF 1
