REMARK  4 active torsions:
REMARK  status: ('A' for Active; 'I' for Inactive)
REMARK    1  A    between atoms: C2_2  and  N1_4 
REMARK       I    between atoms: N1_4  and  C4_6 
REMARK       I    between atoms: C4_6  and  N2_8 
REMARK    2  A    between atoms: N2_8  and  C5_10 
REMARK    3  A    between atoms: C6_11  and  C7_12 
REMARK    4  A    between atoms: C7_12  and  C9_14 
ROOT
HETATM    1  C5  UNL     1       0.424   0.704  -0.050  1.00  0.00     0.127 C 
HETATM    2  C6  UNL     1      -0.331   1.073   1.181  1.00  0.00     0.162 C 
HETATM    3  O4  UNL     1      -1.533   0.388   1.383  1.00  0.00    -0.350 OA
HETATM    4  C10 UNL     1      -1.440  -0.836   0.900  1.00  0.00     0.299 C 
HETATM    5  O5  UNL     1      -2.340  -1.809   1.253  1.00  0.00    -0.323 OA
HETATM    6  C11 UNL     1      -2.113  -2.808   0.299  1.00  0.00     0.165 C 
HETATM    7  C12 UNL     1      -1.685  -4.124   0.908  1.00  0.00     0.079 C 
HETATM    8  C13 UNL     1      -3.462  -2.961  -0.419  1.00  0.00     0.069 C 
HETATM    9  C14 UNL     1      -3.897  -1.499  -0.639  1.00  0.00     0.013 C 
HETATM   10  C15 UNL     1      -2.709  -0.857  -1.329  1.00  0.00     0.030 C 
HETATM   11  C16 UNL     1      -3.157   0.461  -1.855  1.00  0.00    -0.012 C 
HETATM   12  C17 UNL     1      -4.201   1.139  -0.965  1.00  0.00     0.010 C 
HETATM   13  C18 UNL     1      -2.086   1.422  -2.219  1.00  0.00     0.005 C 
HETATM   14  C19 UNL     1      -0.717   0.887  -2.211  1.00  0.00     0.015 C 
HETATM   15  C20 UNL     1      -0.349  -0.066  -1.103  1.00  0.00     0.016 C 
HETATM   16  C21 UNL     1       0.659  -1.026  -1.780  1.00  0.00     0.020 C 
HETATM   17  C22 UNL     1      -1.430  -0.923  -0.594  1.00  0.00     0.127 C 
HETATM   18  O6  UNL     1      -1.128  -2.324  -0.590  1.00  0.00    -0.338 OA
ENDROOT
BRANCH   1  19
HETATM   19  N2  UNL     1       1.653  -0.027   0.182  1.00  0.00    -0.335 N 
HETATM   20  C4  UNL     1       2.947   0.484   0.274  1.00  0.00     0.316 C 
HETATM   21  N1  UNL     1       4.104  -0.345   0.479  1.00  0.00    -0.339 N 
HETATM   22  O1  UNL     1       3.196   1.711   0.186  1.00  0.00    -0.247 OA
ATOM     23  H1  UNL     1       3.967  -1.356   0.499  1.00  0.00     0.164 HD
ATOM     24  H2  UNL     1       1.561  -1.037   0.291  1.00  0.00     0.164 HD
BRANCH  21  25
HETATM   25  C2  UNL     1       5.429   0.148   0.656  1.00  0.00     0.078 C 
HETATM   26  C1  UNL     1       6.215   0.314  -0.626  1.00  0.00     0.032 C 
HETATM   27  C3  UNL     1       6.150  -0.776   1.576  1.00  0.00     0.032 C 
ENDBRANCH  21  25
ENDBRANCH   1  19
BRANCH   2  28
HETATM   28  C7  UNL     1      -0.712   2.513   1.332  1.00  0.00     0.114 C 
HETATM   29  C8  UNL     1       0.364   3.522   1.357  1.00  0.00     0.024 C 
BRANCH  28  30
HETATM   30  C9  UNL     1      -1.491   2.588   2.624  1.00  0.00     0.179 C 
HETATM   31  O2  UNL     1      -2.710   2.893   2.650  1.00  0.00    -0.648 OA
HETATM   32  O3  UNL     1      -0.885   2.314   3.867  1.00  0.00    -0.648 OA
ENDBRANCH  28  30
ENDBRANCH   2  28
TORSDOF 4
