REMARK  7 active torsions:
REMARK  status: ('A' for Active; 'I' for Inactive)
REMARK    1  A    between atoms: C4_4  and  S1_5 
REMARK    2  A    between atoms: S1_5  and  S2_6 
REMARK    3  A    between atoms: S2_6  and  C5_7 
REMARK    4  A    between atoms: C5_7  and  N1_9 
REMARK    5  A    between atoms: C11_16  and  O2_17 
REMARK    6  A    between atoms: C12_20  and  O4_21 
REMARK    7  A    between atoms: C19_30  and  O6_31 
ROOT
HETATM    1  C1  UNL     1       0.225   3.385  -0.195  1.00  0.00     0.040 C 
HETATM    2  C2  UNL     1       0.468   2.121   0.554  1.00  0.00     0.122 C 
HETATM    3  C3  UNL     1       1.297   1.089  -0.143  1.00  0.00     0.048 C 
HETATM    4  C4  UNL     1       1.537   1.252  -1.576  1.00  0.00     0.072 C 
HETATM    5  C8  UNL     1       0.431   1.285  -2.541  1.00  0.00     0.071 C 
HETATM    6  C9  UNL     1       0.914   0.860  -3.946  1.00  0.00     0.019 C 
HETATM    7  C10 UNL     1      -0.791   0.549  -2.309  1.00  0.00     0.186 C 
HETATM    8  O1  UNL     1      -1.881   1.152  -2.208  1.00  0.00    -0.292 OA
HETATM    9  C11 UNL     1      -0.977  -0.920  -2.160  1.00  0.00     0.331 C 
HETATM   10  O3  UNL     1      -1.494  -1.148  -0.893  1.00  0.00    -0.325 OA
HETATM   11  C12 UNL     1      -2.783  -1.652  -0.898  1.00  0.00     0.261 C 
HETATM   12  C13 UNL     1      -3.246  -1.719   0.537  1.00  0.00     0.069 C 
HETATM   13  C14 UNL     1      -4.010  -0.531   0.993  1.00  0.00    -0.037 C 
HETATM   14  C15 UNL     1      -4.929  -0.980   2.136  1.00  0.00     0.015 C 
HETATM   15  C16 UNL     1      -4.953  -0.084  -0.119  1.00  0.00     0.015 C 
HETATM   16  C17 UNL     1      -3.221   0.653   1.415  1.00  0.00     0.092 C 
HETATM   17  C18 UNL     1      -2.117   0.397   2.351  1.00  0.00     0.181 C 
HETATM   18  O5  UNL     1      -2.168  -0.503   3.149  1.00  0.00    -0.293 OA
HETATM   19  C19 UNL     1      -0.923   1.322   2.254  1.00  0.00     0.328 C 
HETATM   20  O7  UNL     1      -0.737   1.591   0.937  1.00  0.00    -0.349 OA
ENDROOT
BRANCH   4  21
HETATM   21  S1  UNL     1       2.735  -0.013  -2.116  1.00  0.00    -0.084 SA
BRANCH  21  22
HETATM   22  S2  UNL     1       4.633   0.240  -1.267  1.00  0.00    -0.028 SA
BRANCH  22  23
HETATM   23  C5  UNL     1       4.825  -0.652   0.233  1.00  0.00     0.146 C 
HETATM   24  S3  UNL     1       3.635  -1.638   0.746  1.00  0.00    -0.052 SA
BRANCH  23  25
HETATM   25  N1  UNL     1       6.010  -0.540   0.993  1.00  0.00    -0.375 N 
HETATM   26  C6  UNL     1       6.124  -1.293   2.220  1.00  0.00     0.150 C 
HETATM   27  C7  UNL     1       7.067   0.325   0.516  1.00  0.00     0.150 C 
ENDBRANCH  23  25
ENDBRANCH  22  23
ENDBRANCH  21  22
ENDBRANCH   4  21
BRANCH   9  28
HETATM   28  O2  UNL     1       0.121  -1.690  -2.378  1.00  0.00    -0.365 OA
ATOM     29  H2  UNL     1       0.002  -2.628  -2.283  1.00  0.00     0.213 HD
ENDBRANCH   9  28
BRANCH  19  30
HETATM   30  O6  UNL     1       0.164   0.826   2.933  1.00  0.00    -0.365 OA
ATOM     31  H6  UNL     1       0.913   1.407   2.872  1.00  0.00     0.213 HD
ENDBRANCH  19  30
BRANCH  11  32
HETATM   32  O4  UNL     1      -2.821  -2.971  -1.383  1.00  0.00    -0.371 OA
ATOM     33  H4  UNL     1      -3.706  -3.317  -1.386  1.00  0.00     0.212 HD
ENDBRANCH  11  32
TORSDOF 7
