REMARK  8 active torsions:
REMARK  status: ('A' for Active; 'I' for Inactive)
REMARK    1  A    between atoms: O1_2  and  C2_3 
REMARK    2  A    between atoms: C4_5  and  C5_6 
REMARK    3  A    between atoms: C5_6  and  C6_7 
REMARK    4  A    between atoms: C6_7  and  C7_8 
REMARK    5  A    between atoms: C6_7  and  N1_10 
REMARK       I    between atoms: N1_10  and  C8_12 
REMARK    6  A    between atoms: C10_18  and  S1_19 
REMARK    7  A    between atoms: S1_19  and  N4_20 
REMARK    8  A    between atoms: C11_25  and  O5_26 
ROOT
HETATM    1  C2  UNL     1      -2.400   0.298   0.836  1.00  0.00     0.103 A 
HETATM    2  C3  UNL     1      -1.118   0.862   0.850  1.00  0.00     0.047 A 
HETATM    3  C4  UNL     1      -0.245   0.634  -0.199  1.00  0.00    -0.051 A 
HETATM    4  C9  UNL     1      -0.638  -0.149  -1.259  1.00  0.00     0.035 A 
HETATM    5  C10 UNL     1      -1.903  -0.695  -1.253  1.00  0.00     0.115 A 
HETATM    6  C11 UNL     1      -2.801  -0.490  -0.225  1.00  0.00     0.122 A 
ENDROOT
BRANCH   3   7
HETATM    7  C5  UNL     1       1.126   1.219  -0.217  1.00  0.00     0.070 C 
BRANCH   7   8
HETATM    8  C6  UNL     1       2.132   0.294   0.437  1.00  0.00     0.149 C 
BRANCH   8   9
HETATM    9  C7  UNL     1       2.211  -1.018  -0.245  1.00  0.00     0.256 C 
HETATM   10  O2  UNL     1       3.257  -1.422  -0.738  1.00  0.00    -0.305 OA
ENDBRANCH   8   9
BRANCH   8  11
HETATM   11  N1  UNL     1       3.417   0.919   0.396  1.00  0.00    -0.354 N 
HETATM   12  C8  UNL     1       4.530   0.222   0.961  1.00  0.00     0.182 C 
HETATM   13  N2  UNL     1       4.380  -0.411   2.079  1.00  0.00    -0.374 N 
HETATM   14  N3  UNL     1       5.771   0.243   0.282  1.00  0.00    -0.064 NA
ATOM     15  H22 UNL     1       3.485  -0.426   2.569  1.00  0.00     0.158 HD
ATOM     16  H21 UNL     1       5.174  -0.908   2.482  1.00  0.00     0.158 HD
ATOM     17  H1  UNL     1       3.537   1.840  -0.026  1.00  0.00     0.163 HD
ENDBRANCH   8  11
ENDBRANCH   7   8
ENDBRANCH   3   7
BRANCH   1  18
HETATM   18  O1  UNL     1      -3.300   0.511   1.880  1.00  0.00    -0.353 OA
HETATM   19  C1  UNL     1      -2.880   1.313   2.952  1.00  0.00     0.210 C 
ENDBRANCH   1  18
BRANCH   5  20
HETATM   20  S1  UNL     1      -2.434  -1.693  -2.583  1.00  0.00     0.259 S 
HETATM   21  O3  UNL     1      -2.763  -3.079  -2.115  1.00  0.00    -0.201 OA
HETATM   22  O4  UNL     1      -1.300  -1.834  -3.569  1.00  0.00    -0.201 OA
BRANCH  20  23
HETATM   23  N4  UNL     1      -3.813  -0.971  -3.308  1.00  0.00    -0.324 N 
ATOM     24  H42 UNL     1      -4.241  -0.098  -2.999  1.00  0.00     0.169 HD
ATOM     25  H41 UNL     1      -4.123  -1.554  -4.085  1.00  0.00     0.169 HD
ENDBRANCH  20  23
ENDBRANCH   5  20
BRANCH   6  26
HETATM   26  O5  UNL     1      -4.076  -1.030  -0.201  1.00  0.00    -0.357 OA
ATOM     27  H5  UNL     1      -4.352  -1.572  -0.931  1.00  0.00     0.218 HD
ENDBRANCH   6  26
TORSDOF 8
