REMARK  9 active torsions:
REMARK  status: ('A' for Active; 'I' for Inactive)
REMARK    1  A    between atoms: C2_2  and  C3_3 
REMARK    2  A    between atoms: C3_3  and  C4_4 
REMARK    3  A    between atoms: C3_3  and  C5_7 
REMARK    4  A    between atoms: C3_3  and  C16_20 
REMARK    5  A    between atoms: C4_4  and  O1_5 
REMARK    6  A    between atoms: C5_7  and  C6_8 
REMARK    7  A    between atoms: C6_8  and  O3_10 
REMARK    8  A    between atoms: O3_10  and  C7_11 
REMARK    9  A    between atoms: C18_22  and  O4_23 
ROOT
HETATM    1  C3  UNL     1      -2.565  -0.131  -0.322  1.00  0.00     0.019 C 
ENDROOT
BRANCH   1   2
HETATM    2  C2  UNL     1      -3.062  -1.508  -0.477  1.00  0.00     0.013 C 
HETATM    3  C1  UNL     1      -3.150  -2.494   0.564  1.00  0.00     0.006 C 
ENDBRANCH   1   2
BRANCH   1   4
HETATM    4  C4  UNL     1      -2.644   0.432  -1.762  1.00  0.00     0.179 C 
BRANCH   4   5
HETATM    5  O1  UNL     1      -1.937  -0.267  -2.680  1.00  0.00    -0.400 OA
ATOM      6  H1  UNL     1      -1.985   0.078  -3.564  1.00  0.00     0.209 HD
ENDBRANCH   4   5
ENDBRANCH   1   4
BRANCH   1   7
HETATM    7  C5  UNL     1      -1.232   0.097   0.233  1.00  0.00     0.127 C 
BRANCH   7   8
HETATM    8  C6  UNL     1      -0.040  -0.491  -0.382  1.00  0.00     0.260 C 
HETATM    9  O2  UNL     1       0.055  -1.304  -1.313  1.00  0.00    -0.265 OA
BRANCH   8  10
HETATM   10  O3  UNL     1       1.240  -0.121   0.112  1.00  0.00    -0.316 OA
BRANCH  10  11
HETATM   11  C7  UNL     1       2.433  -0.640  -0.423  1.00  0.00     0.137 C 
HETATM   12  C8  UNL     1       3.204  -1.458   0.588  1.00  0.00     0.037 C 
HETATM   13  C9  UNL     1       4.631  -0.956   0.650  1.00  0.00    -0.011 C 
HETATM   14  C10 UNL     1       4.528   0.469   1.202  1.00  0.00     0.010 C 
HETATM   15  C14 UNL     1       5.209  -0.930  -0.761  1.00  0.00     0.010 C 
HETATM   16  C11 UNL     1       3.931   1.310   0.114  1.00  0.00    -0.007 C 
HETATM   17  C12 UNL     1       5.048   1.499  -0.925  1.00  0.00     0.010 C 
HETATM   18  C15 UNL     1       3.215   0.508  -0.954  1.00  0.00     0.023 C 
HETATM   19  C13 UNL     1       4.550   0.183  -1.535  1.00  0.00    -0.007 C 
ENDBRANCH  10  11
ENDBRANCH   8  10
ENDBRANCH   7   8
ENDBRANCH   1   7
BRANCH   1  20
HETATM   20  C16 UNL     1      -3.529   0.787   0.430  1.00  0.00    -0.013 A 
HETATM   21  C17 UNL     1      -4.156   1.906  -0.148  1.00  0.00     0.074 A 
HETATM   22  C18 UNL     1      -4.993   2.501   0.780  1.00  0.00     0.183 A 
HETATM   23  O5  UNL     1      -4.887   1.798   1.848  1.00  0.00    -0.292 OA
HETATM   24  C19 UNL     1      -4.024   0.765   1.689  1.00  0.00     0.059 A 
HETATM   25  C20 UNL     1      -3.732  -0.176   2.768  1.00  0.00     0.077 C 
BRANCH  22  26
HETATM   26  O4  UNL     1      -5.793   3.642   0.582  1.00  0.00    -0.341 OA
ATOM     27  H4  UNL     1      -6.367   4.050   1.219  1.00  0.00     0.220 HD
ENDBRANCH  22  26
ENDBRANCH   1  20
TORSDOF 9
