REMARK  10 active torsions:
REMARK  status: ('A' for Active; 'I' for Inactive)
REMARK    1  A    between atoms: C2_2  and  C4_4 
REMARK    2  A    between atoms: C4_4  and  C5_5 
REMARK    3  A    between atoms: C5_5  and  O1_6 
REMARK    4  A    between atoms: C5_5  and  C6_8 
REMARK    5  A    between atoms: C6_8  and  C8_10 
REMARK    6  A    between atoms: C16_18  and  C17_19 
REMARK    7  A    between atoms: C19_22  and  O3_23 
REMARK    8  A    between atoms: C22_26  and  C23_27 
REMARK    9  A    between atoms: C23_27  and  O5_29 
REMARK   10  A    between atoms: C28_35  and  O7_36 
ROOT
HETATM    1  C8  UNL     1      -2.865  -0.103  -0.159  1.00  0.00     0.001 C 
HETATM    2  C9  UNL     1      -2.427   0.618   1.127  1.00  0.00     0.007 C 
HETATM    3  C10 UNL     1      -1.270  -0.184   1.669  1.00  0.00     0.011 C 
HETATM    4  C11 UNL     1      -0.908  -1.173   0.615  1.00  0.00    -0.032 C 
HETATM    5  C12 UNL     1      -1.521  -2.501   1.029  1.00  0.00     0.016 C 
HETATM    6  C13 UNL     1       0.569  -1.392   0.419  1.00  0.00     0.002 C 
HETATM    7  C14 UNL     1       1.105  -1.853   1.755  1.00  0.00     0.007 C 
HETATM    8  C15 UNL     1       2.435  -2.488   1.656  1.00  0.00     0.015 C 
HETATM    9  C16 UNL     1       3.364  -1.865   0.607  1.00  0.00     0.090 C 
HETATM   10  C19 UNL     1       3.618  -0.443   0.882  1.00  0.00     0.082 C 
HETATM   11  C21 UNL     1       4.368   0.222  -0.238  1.00  0.00     0.062 C 
HETATM   12  C22 UNL     1       4.174   1.717   0.007  1.00  0.00     0.158 C 
HETATM   13  C25 UNL     1       2.736   1.740   0.380  1.00  0.00     0.148 C 
HETATM   14  O6  UNL     1       2.102   2.782   0.336  1.00  0.00    -0.296 OA
HETATM   15  C26 UNL     1       2.294   0.379   0.773  1.00  0.00     0.098 C 
HETATM   16  C27 UNL     1       1.313  -0.218  -0.163  1.00  0.00     0.033 C 
HETATM   17  C28 UNL     1       0.370   0.807  -0.793  1.00  0.00     0.124 C 
HETATM   18  C29 UNL     1      -0.718   0.011  -1.504  1.00  0.00     0.042 C 
HETATM   19  C30 UNL     1      -1.620  -0.764  -0.654  1.00  0.00    -0.030 C 
HETATM   20  C31 UNL     1      -2.000  -2.040  -1.423  1.00  0.00     0.016 C 
ENDROOT
BRANCH   1  21
HETATM   21  C6  UNL     1      -3.480   0.923  -1.025  1.00  0.00     0.015 C 
HETATM   22  C7  UNL     1      -4.010   0.448  -2.349  1.00  0.00     0.013 C 
BRANCH  21  23
HETATM   23  C5  UNL     1      -4.664   1.531  -0.282  1.00  0.00     0.126 C 
BRANCH  23  24
HETATM   24  C4  UNL     1      -5.778   0.533  -0.053  1.00  0.00     0.065 C 
BRANCH  24  25
HETATM   25  C2  UNL     1      -6.963   1.153   0.577  1.00  0.00    -0.091 C 
HETATM   26  C1  UNL     1      -7.393   0.728   1.740  1.00  0.00     0.014 C 
HETATM   27  C3  UNL     1      -7.665   2.262  -0.114  1.00  0.00     0.042 C 
ENDBRANCH  24  25
ENDBRANCH  23  24
BRANCH  23  28
HETATM   28  O1  UNL     1      -5.129   2.557  -1.126  1.00  0.00    -0.395 OA
ATOM     29  H1  UNL     1      -4.430   3.184  -1.270  1.00  0.00     0.210 HD
ENDBRANCH  23  28
ENDBRANCH  21  23
ENDBRANCH   1  21
BRANCH  17  30
HETATM   30  O7  UNL     1       1.009   1.446  -1.897  1.00  0.00    -0.395 OA
ATOM     31  H7  UNL     1       0.423   2.083  -2.289  1.00  0.00     0.210 HD
ENDBRANCH  17  30
BRANCH   9  32
HETATM   32  C17 UNL     1       4.557  -2.720   0.607  1.00  0.00     0.130 C 
HETATM   33  C18 UNL     1       5.754  -2.599  -0.261  1.00  0.00     0.091 C 
HETATM   34  O2  UNL     1       4.654  -3.694   1.405  1.00  0.00    -0.298 OA
ENDBRANCH   9  32
BRANCH  10  35
HETATM   35  O3  UNL     1       4.067  -0.199   2.113  1.00  0.00    -0.383 OA
HETATM   36  C20 UNL     1       5.172  -0.614   2.689  1.00  0.00     0.202 C 
ENDBRANCH  10  35
BRANCH  12  37
HETATM   37  C23 UNL     1       4.542   2.531  -1.140  1.00  0.00     0.270 C 
HETATM   38  O4  UNL     1       3.751   3.352  -1.664  1.00  0.00    -0.264 OA
BRANCH  37  39
HETATM   39  O5  UNL     1       5.807   2.463  -1.748  1.00  0.00    -0.326 OA
HETATM   40  C24 UNL     1       6.140   3.257  -2.851  1.00  0.00     0.213 C 
ENDBRANCH  37  39
ENDBRANCH  12  37
TORSDOF 10
