REMARK  6 active torsions:
REMARK  status: ('A' for Active; 'I' for Inactive)
REMARK    1  A    between atoms: C2_2  and  C3_3 
REMARK    2  A    between atoms: C2_2  and  N2_7 
REMARK    3  A    between atoms: C3_3  and  N1_4 
REMARK       I    between atoms: N2_7  and  C6_9 
REMARK    4  A    between atoms: C6_9  and  C7_11 
REMARK    5  A    between atoms: C7_11  and  N3_12 
REMARK    6  A    between atoms: C10_15  and  C11_16 
ROOT
HETATM    1  N3  UNL     1       0.485  -0.407  -0.503  1.00  0.00    -0.385 N 
HETATM    2  C8  UNL     1      -0.037   0.650  -1.303  1.00  0.00     0.122 C 
HETATM    3  C9  UNL     1      -1.571   0.654  -1.342  1.00  0.00     0.025 C 
HETATM    4  C10 UNL     1      -2.012  -0.128  -0.099  1.00  0.00     0.001 C 
HETATM    5  C21 UNL     1      -1.218   0.259   1.097  1.00  0.00     0.004 C 
HETATM    6  C22 UNL     1      -1.020   1.740   1.258  1.00  0.00     0.012 C 
HETATM    7  C23 UNL     1       0.187  -0.349   0.885  1.00  0.00     0.127 C 
ENDROOT
BRANCH   1   8
HETATM    8  C7  UNL     1       1.811  -0.733  -0.828  1.00  0.00     0.160 C 
BRANCH   8   9
HETATM    9  C6  UNL     1       2.856   0.240  -0.520  1.00  0.00     0.256 C 
HETATM   10  N2  UNL     1       4.207  -0.030  -0.825  1.00  0.00    -0.350 N 
ATOM     11  H2  UNL     1       4.465  -0.906  -1.279  1.00  0.00     0.163 HD
HETATM   12  O1  UNL     1       2.563   1.327   0.021  1.00  0.00    -0.267 OA
BRANCH  10  13
HETATM   13  C2  UNL     1       5.231   0.951  -0.487  1.00  0.00     0.109 C 
HETATM   14  C1  UNL     1       5.989   1.472  -1.642  1.00  0.00     0.034 C 
BRANCH  13  15
HETATM   15  C3  UNL     1       6.020   0.349   0.637  1.00  0.00     0.296 C 
BRANCH  15  16
HETATM   16  N1  UNL     1       6.806  -0.783   0.193  1.00  0.00     0.081 N 
HETATM   17  C4  UNL     1       7.240  -1.515   1.447  1.00  0.00     0.309 C 
HETATM   18  C5  UNL     1       8.101  -0.239  -0.250  1.00  0.00     0.309 C 
ENDBRANCH  15  16
ENDBRANCH  13  15
ENDBRANCH  10  13
ENDBRANCH   8   9
ENDBRANCH   1   8
BRANCH   4  19
HETATM   19  C11 UNL     1      -3.488  -0.168   0.048  1.00  0.00    -0.035 C 
HETATM   20  C12 UNL     1      -3.847  -0.963   1.281  1.00  0.00     0.014 C 
HETATM   21  C13 UNL     1      -5.327  -1.289   1.343  1.00  0.00    -0.013 C 
HETATM   22  C14 UNL     1      -6.044   0.042   1.457  1.00  0.00     0.009 C 
HETATM   23  C18 UNL     1      -5.775  -1.975   0.088  1.00  0.00     0.009 C 
HETATM   24  C15 UNL     1      -5.666   0.924   0.316  1.00  0.00    -0.013 C 
HETATM   25  C16 UNL     1      -6.203   0.289  -0.954  1.00  0.00     0.009 C 
HETATM   26  C20 UNL     1      -4.170   1.164   0.183  1.00  0.00     0.014 C 
HETATM   27  C17 UNL     1      -5.550  -1.067  -1.093  1.00  0.00    -0.013 C 
HETATM   28  C19 UNL     1      -4.035  -0.874  -1.181  1.00  0.00     0.014 C 
ENDBRANCH   4  19
TORSDOF 6
