REMARK  5 active torsions:
REMARK  status: ('A' for Active; 'I' for Inactive)
REMARK    1  A    between atoms: C2_2  and  C3_3 
REMARK    2  A    between atoms: C9_9  and  C10_10 
REMARK       I    between atoms: C10_10  and  N1_12 
REMARK    3  A    between atoms: N1_12  and  C11_14 
REMARK    4  A    between atoms: C11_14  and  C12_15 
REMARK       I    between atoms: N2_19  and  C16_20 
REMARK    5  A    between atoms: C16_20  and  C17_22 
ROOT
HETATM    1  C11 UNL     1      -0.154  -0.501   0.306  1.00  0.00     0.128 C 
ENDROOT
BRANCH   1   2
HETATM    2  N1  UNL     1      -1.462   0.105   0.050  1.00  0.00    -0.360 N 
HETATM    3  C10 UNL     1      -2.674  -0.584   0.385  1.00  0.00     0.222 C 
HETATM    4  O1  UNL     1      -2.520  -1.726   0.906  1.00  0.00    -0.273 OA
ATOM      5  H1  UNL     1      -1.512   1.032  -0.373  1.00  0.00     0.162 HD
BRANCH   3   6
HETATM    6  C9  UNL     1      -3.947   0.072   0.107  1.00  0.00     0.090 C 
HETATM    7  C3  UNL     1      -5.181  -0.690   0.446  1.00  0.00     0.025 C 
HETATM    8  C4  UNL     1      -6.057  -0.584  -0.790  1.00  0.00    -0.006 C 
HETATM    9  C5  UNL     1      -6.453   0.842  -0.951  1.00  0.00     0.005 C 
HETATM   10  C8  UNL     1      -4.951  -0.707  -1.856  1.00  0.00     0.011 C 
HETATM   11  C6  UNL     1      -5.173   1.547  -1.375  1.00  0.00     0.006 C 
HETATM   12  C7  UNL     1      -4.120   0.460  -1.339  1.00  0.00    -0.001 C 
BRANCH   7  13
HETATM   13  C2  UNL     1      -5.012  -2.094   0.809  1.00  0.00    -0.031 C 
HETATM   14  C1  UNL     1      -5.392  -2.517   1.994  1.00  0.00     0.007 C 
ENDBRANCH   7  13
ENDBRANCH   3   6
ENDBRANCH   1   2
BRANCH   1  15
HETATM   15  C12 UNL     1       0.886   0.492  -0.157  1.00  0.00     0.021 C 
HETATM   16  C13 UNL     1       0.837   1.801   0.547  1.00  0.00     0.009 C 
HETATM   17  C14 UNL     1       1.457   1.803   1.914  1.00  0.00     0.020 C 
HETATM   18  C15 UNL     1       2.444   0.705   2.130  1.00  0.00     0.126 C 
HETATM   19  N2  UNL     1       3.082   0.386   0.873  1.00  0.00    -0.351 N 
HETATM   20  C16 UNL     1       4.479   0.613   0.726  1.00  0.00     0.224 C 
HETATM   21  C22 UNL     1       2.243  -0.153  -0.176  1.00  0.00     0.132 C 
HETATM   22  O2  UNL     1       5.116   1.090   1.699  1.00  0.00    -0.273 OA
BRANCH  20  23
HETATM   23  C17 UNL     1       5.216   0.315  -0.513  1.00  0.00     0.078 C 
HETATM   24  C18 UNL     1       6.663   0.709  -0.325  1.00  0.00     0.014 C 
HETATM   25  C19 UNL     1       7.490  -0.256  -1.128  1.00  0.00     0.001 C 
HETATM   26  C20 UNL     1       6.513  -1.194  -1.766  1.00  0.00     0.001 C 
HETATM   27  C21 UNL     1       5.348  -1.170  -0.767  1.00  0.00     0.014 C 
ENDBRANCH  20  23
ENDBRANCH   1  15
TORSDOF 5
