REMARK  3 active torsions:
REMARK  status: ('A' for Active; 'I' for Inactive)
REMARK    1  A    between atoms: N1_1  and  C1_4 
REMARK    2  A    between atoms: C2_11  and  C3_12 
REMARK    3  A    between atoms: C3_12  and  C4_14 
ROOT
HETATM    1  C3  UNL     1      -0.468  -0.869  -0.143  1.00  0.00     0.230 C 
HETATM    2  O1  UNL     1      -0.756  -2.081  -0.285  1.00  0.00    -0.283 OA
ENDROOT
BRANCH   1   3
HETATM    3  C2  UNL     1      -1.533   0.107  -0.249  1.00  0.00     0.147 A 
HETATM    4  C1  UNL     1      -2.907  -0.114  -0.100  1.00  0.00     0.147 A 
HETATM    5  N2  UNL     1      -3.533   1.062  -0.295  1.00  0.00    -0.269 N 
HETATM    6  N3  UNL     1      -2.641   1.996  -0.554  1.00  0.00    -0.240 N 
ATOM      7  H2  UNL     1      -4.542   1.207  -0.249  1.00  0.00     0.190 HD
HETATM    8  N4  UNL     1      -1.457   1.419  -0.525  1.00  0.00    -0.279 N 
ATOM      9  H3  UNL     1      -2.831   2.980  -0.742  1.00  0.00     0.208 HD
ATOM     10  H4  UNL     1      -0.581   1.913  -0.693  1.00  0.00     0.189 HD
BRANCH   4  11
HETATM   11  N1  UNL     1      -3.503  -1.205   0.171  1.00  0.00    -0.382 N 
ATOM     12  H12 UNL     1      -4.504  -1.366   0.280  1.00  0.00     0.157 HD
ATOM     13  H11 UNL     1      -3.029  -2.096   0.319  1.00  0.00     0.157 HD
ENDBRANCH   4  11
ENDBRANCH   1   3
BRANCH   1  14
HETATM   14  C4  UNL     1       0.926  -0.544   0.119  1.00  0.00     0.094 A 
HETATM   15  C5  UNL     1       1.938  -1.430  -0.246  1.00  0.00     0.108 A 
HETATM   16  C6  UNL     1       3.254  -1.146   0.002  1.00  0.00     0.251 A 
HETATM   17  O2  UNL     1       4.163  -1.960  -0.336  1.00  0.00    -0.268 OA
HETATM   18  N5  UNL     1       3.555   0.009   0.607  1.00  0.00    -0.275 N 
HETATM   19  C7  UNL     1       2.578   0.853   0.954  1.00  0.00     0.327 A 
ATOM     20  H5  UNL     1       4.528   0.245   0.803  1.00  0.00     0.173 HD
HETATM   21  O3  UNL     1       2.837   1.961   1.533  1.00  0.00    -0.247 OA
HETATM   22  N6  UNL     1       1.268   0.604   0.725  1.00  0.00    -0.305 N 
ATOM     23  H6  UNL     1       0.554   1.276   1.007  1.00  0.00     0.171 HD
ENDBRANCH   1  14
TORSDOF 3
