REMARK  4 active torsions:
REMARK  status: ('A' for Active; 'I' for Inactive)
REMARK    1  A    between atoms: C4_5  and  C5_6 
REMARK    2  A    between atoms: C5_6  and  O2_8 
REMARK    3  A    between atoms: O2_8  and  C6_9 
REMARK    4  A    between atoms: C13_16  and  O3_17 
ROOT
HETATM    1  C1  UNL     1      -2.979  -2.148   0.102  1.00  0.00     0.311 C 
HETATM    2  N1  UNL     1      -2.219  -1.030   0.566  1.00  0.00     0.097 N 
HETATM    3  C2  UNL     1      -3.083   0.064   1.046  1.00  0.00     0.252 C 
HETATM    4  C3  UNL     1      -2.026   1.118   1.317  1.00  0.00     0.055 C 
HETATM    5  C4  UNL     1      -1.020   0.887   0.207  1.00  0.00     0.121 C 
HETATM    6  C11 UNL     1      -1.605  -0.284  -0.546  1.00  0.00     0.239 C 
HETATM    7  C12 UNL     1      -2.793   0.228  -1.317  1.00  0.00     0.070 C 
HETATM    8  C13 UNL     1      -3.830   0.399  -0.202  1.00  0.00     0.153 C 
ENDROOT
BRANCH   5   9
HETATM    9  C5  UNL     1       0.328   0.597   0.740  1.00  0.00     0.265 C 
HETATM   10  O1  UNL     1       0.519   0.566   1.969  1.00  0.00    -0.265 OA
BRANCH   9  11
HETATM   11  O2  UNL     1       1.395   0.355  -0.100  1.00  0.00    -0.316 OA
BRANCH  11  12
HETATM   12  C6  UNL     1       2.657   0.084   0.479  1.00  0.00     0.132 C 
HETATM   13  C7  UNL     1       3.606   1.161  -0.033  1.00  0.00     0.032 C 
HETATM   14  C8  UNL     1       4.755   0.429  -0.688  1.00  0.00     0.002 C 
HETATM   15  C9  UNL     1       4.671  -0.968  -0.129  1.00  0.00     0.002 C 
HETATM   16  C10 UNL     1       3.182  -1.205  -0.068  1.00  0.00     0.032 C 
ENDBRANCH  11  12
ENDBRANCH   9  11
ENDBRANCH   5   9
BRANCH   8  17
HETATM   17  O3  UNL     1      -4.324   1.701  -0.211  1.00  0.00    -0.393 OA
ATOM     18  H3  UNL     1      -4.799   1.914  -1.005  1.00  0.00     0.210 HD
ENDBRANCH   8  17
TORSDOF 4
