REMARK  7 active torsions:
REMARK  status: ('A' for Active; 'I' for Inactive)
REMARK    1  A    between atoms: C3_3  and  C4_4 
REMARK    2  A    between atoms: C4_4  and  C5_5 
REMARK    3  A    between atoms: C5_5  and  C6_6 
REMARK    4  A    between atoms: C9_12  and  N3_13 
REMARK    5  A    between atoms: N3_13  and  C10_15 
REMARK    6  A    between atoms: N6_23  and  C13_24 
REMARK    7  A    between atoms: C13_24  and  C14_25 
ROOT
HETATM    1  C1  UNL     1       8.295  -1.383  -0.571  1.00  0.00     0.113 C 
HETATM    2  C2  UNL     1       6.882  -0.984  -0.485  1.00  0.00    -0.097 C 
HETATM    3  C3  UNL     1       5.721  -0.660  -0.395  1.00  0.00    -0.015 C 
ENDROOT
BRANCH   3   4
HETATM    4  C4  UNL     1       4.357  -0.287  -0.267  1.00  0.00    -0.009 C 
BRANCH   4   5
HETATM    5  C5  UNL     1       3.186   0.015  -0.146  1.00  0.00    -0.044 C 
BRANCH   5   6
HETATM    6  C6  UNL     1       1.797   0.358  -0.010  1.00  0.00     0.125 A 
HETATM    7  C7  UNL     1       1.384   1.623   0.353  1.00  0.00     0.154 A 
HETATM    8  C8  UNL     1       2.356   2.631   0.602  1.00  0.00     0.120 C 
HETATM    9  N2  UNL     1       0.066   1.939   0.479  1.00  0.00    -0.180 N 
HETATM   10  N1  UNL     1       3.168   3.455   0.793  1.00  0.00    -0.190 NA
HETATM   11  C9  UNL     1      -0.846   0.988   0.244  1.00  0.00     0.690 A 
ATOM     12  H2  UNL     1      -0.221   2.881   0.747  1.00  0.00     0.185 HD
HETATM   13  N6  UNL     1      -0.502  -0.278  -0.117  1.00  0.00    -0.145 N 
HETATM   14  C17 UNL     1       0.787  -0.576  -0.238  1.00  0.00     0.283 A 
HETATM   15  O2  UNL     1       1.134  -1.736  -0.569  1.00  0.00    -0.266 OA
BRANCH  11  16
HETATM   16  N3  UNL     1      -2.213   1.332   0.380  1.00  0.00    -0.172 N 
ATOM     17  H3  UNL     1      -2.781   0.869   1.090  1.00  0.00     0.186 HD
BRANCH  16  18
HETATM   18  C10 UNL     1      -2.744   2.216  -0.377  1.00  0.00     0.167 A 
HETATM   19  N4  UNL     1      -2.140   2.914  -1.353  1.00  0.00    -0.223 N 
HETATM   20  O1  UNL     1      -3.022   3.706  -1.882  1.00  0.00    -0.155 OA
ATOM     21  H4  UNL     1      -1.161   2.836  -1.630  1.00  0.00     0.198 HD
HETATM   22  N5  UNL     1      -4.177   3.578  -1.315  1.00  0.00    -0.242 N 
HETATM   23  C11 UNL     1      -4.050   2.656  -0.366  1.00  0.00     0.076 A 
ATOM     24  H5  UNL     1      -5.027   4.089  -1.552  1.00  0.00     0.196 HD
HETATM   25  C12 UNL     1      -5.102   2.170   0.548  1.00  0.00     0.074 C 
ENDBRANCH  16  18
ENDBRANCH  11  16
BRANCH  13  26
HETATM   26  C13 UNL     1      -1.523  -1.249  -0.355  1.00  0.00     0.155 C 
BRANCH  26  27
HETATM   27  C14 UNL     1      -1.899  -2.020   0.904  1.00  0.00     0.005 A 
HETATM   28  C15 UNL     1      -2.971  -3.053   0.695  1.00  0.00     0.007 A 
HETATM   29  C16 UNL     1      -1.568  -3.459   1.026  1.00  0.00     0.007 A 
ENDBRANCH  26  27
ENDBRANCH  13  26
ENDBRANCH   5   6
ENDBRANCH   4   5
ENDBRANCH   3   4
TORSDOF 7
