REMARK  4 active torsions:
REMARK  status: ('A' for Active; 'I' for Inactive)
REMARK    1  A    between atoms: N1_2  and  O1_3 
REMARK    2  A    between atoms: N1_2  and  N2_5 
REMARK    3  A    between atoms: N2_5  and  O2_6 
REMARK    4  A    between atoms: N2_5  and  C2_8 
ROOT
HETATM    1  C2  UNL     1      -0.587   0.245  -0.070  1.00  0.00     0.210 A 
HETATM    2  N3  UNL     1      -0.114  -0.894   0.456  1.00  0.00    -0.326 N 
ATOM      3  H3  UNL     1      -0.689  -1.683   0.753  1.00  0.00     0.168 HD
HETATM    4  C3  UNL     1       1.231  -0.846   0.535  1.00  0.00     0.079 A 
HETATM    5  C4  UNL     1       2.214  -1.688   0.971  1.00  0.00     0.039 A 
HETATM    6  C5  UNL     1       3.541  -1.350   0.923  1.00  0.00     0.077 A 
HETATM    7  C6  UNL     1       3.870  -0.114   0.415  1.00  0.00     0.246 A 
HETATM    8  O3  UNL     1       5.057   0.256   0.343  1.00  0.00    -0.268 OA
HETATM    9  N4  UNL     1       2.895   0.732  -0.022  1.00  0.00    -0.307 N 
ATOM     10  H4  UNL     1       3.150   1.646  -0.397  1.00  0.00     0.170 HD
HETATM   11  C7  UNL     1       1.599   0.375   0.036  1.00  0.00     0.139 A 
HETATM   12  N5  UNL     1       0.465   1.035  -0.332  1.00  0.00    -0.309 N 
HETATM   13  C8  UNL     1       0.416   2.367  -0.910  1.00  0.00     0.161 C 
ENDROOT
BRANCH   1  14
HETATM   14  N2  UNL     1      -1.921   0.566  -0.307  1.00  0.00    -0.013 NA
BRANCH  14  15
HETATM   15  N1  UNL     1      -2.755  -0.469  -0.598  1.00  0.00    -0.195 N 
HETATM   16  C1  UNL     1      -3.925  -0.596   0.186  1.00  0.00     0.204 C 
BRANCH  15  17
HETATM   17  O1  UNL     1      -2.234  -1.564  -1.092  1.00  0.00    -0.275 OA
ATOM     18  H1  UNL     1      -1.448  -1.479  -1.619  1.00  0.00     0.246 HD
ENDBRANCH  15  17
ENDBRANCH  14  15
BRANCH  14  19
HETATM   19  O2  UNL     1      -1.967   1.427  -1.377  1.00  0.00    -0.285 OA
ATOM     20  H2  UNL     1      -1.385   2.150  -1.174  1.00  0.00     0.239 HD
ENDBRANCH  14  19
ENDBRANCH   1  14
TORSDOF 4
