REMARK  10 active torsions:
REMARK  status: ('A' for Active; 'I' for Inactive)
REMARK    1  A    between atoms: O1_2  and  C2_3 
REMARK       I    between atoms: C2_3  and  N1_5 
REMARK    2  A    between atoms: N1_5  and  C3_7 
REMARK    3  A    between atoms: C3_7  and  C4_8 
REMARK    4  A    between atoms: C4_8  and  C5_9 
REMARK    5  A    between atoms: C5_9  and  C6_10 
REMARK    6  A    between atoms: C6_10  and  C7_11 
REMARK    7  A    between atoms: C8_12  and  C9_13 
REMARK    8  A    between atoms: C9_13  and  O3_14 
REMARK    9  A    between atoms: C11_17  and  O4_18 
REMARK   10  A    between atoms: C16_25  and  O5_26 
ROOT
HETATM    1  C9  UNL     1      -1.383   0.528  -0.658  1.00  0.00     0.082 C 
HETATM    2  C10 UNL     1      -1.647   2.010  -0.547  1.00  0.00     0.074 C 
HETATM    3  C11 UNL     1      -2.658   2.520  -1.531  1.00  0.00     0.122 C 
HETATM    4  C12 UNL     1      -3.754   1.558  -1.795  1.00  0.00     0.048 C 
HETATM    5  C13 UNL     1      -4.405   1.248  -0.454  1.00  0.00     0.075 C 
HETATM    6 BR1  UNL     1      -4.518   2.845   0.646  1.00  0.00    -0.090 Br
HETATM    7  C14 UNL     1      -3.757   0.100   0.242  1.00  0.00     0.025 C 
HETATM    8  C15 UNL     1      -3.716   0.397   1.724  1.00  0.00     0.024 C 
HETATM    9  C16 UNL     1      -4.699  -1.055   0.131  1.00  0.00     0.055 C 
HETATM   10  C17 UNL     1      -4.322  -2.298   0.316  1.00  0.00    -0.054 C 
HETATM   11  C18 UNL     1      -5.328  -3.427   0.188  1.00  0.00     0.046 C 
HETATM   12  C19 UNL     1      -2.945  -2.650   0.648  1.00  0.00     0.037 C 
HETATM   13  C20 UNL     1      -2.001  -1.486   0.632  1.00  0.00     0.013 C 
HETATM   14  C21 UNL     1      -2.477  -0.377  -0.325  1.00  0.00     0.040 C 
ENDROOT
BRANCH   1  15
HETATM   15  C8  UNL     1      -0.119   0.282   0.080  1.00  0.00     0.007 C 
HETATM   16  C7  UNL     1       1.074   0.482  -0.431  1.00  0.00    -0.028 C 
BRANCH  16  17
HETATM   17  C6  UNL     1       2.345   0.241   0.292  1.00  0.00     0.027 C 
BRANCH  17  18
HETATM   18  C5  UNL     1       3.097   1.534   0.363  1.00  0.00     0.005 C 
BRANCH  18  19
HETATM   19  C4  UNL     1       4.422   1.411   1.085  1.00  0.00     0.020 C 
BRANCH  19  20
HETATM   20  C3  UNL     1       5.337   0.425   0.408  1.00  0.00     0.125 C 
BRANCH  20  21
HETATM   21  N1  UNL     1       6.572   0.351   1.134  1.00  0.00    -0.337 N 
HETATM   22  C2  UNL     1       7.575  -0.547   0.630  1.00  0.00     0.360 C 
HETATM   23  O2  UNL     1       7.409  -1.242  -0.385  1.00  0.00    -0.239 OA
ATOM     24  H1  UNL     1       6.732   0.911   1.971  1.00  0.00     0.164 HD
BRANCH  22  25
HETATM   25  O1  UNL     1       8.773  -0.638   1.308  1.00  0.00    -0.309 OA
HETATM   26  C1  UNL     1       9.818  -1.504   0.876  1.00  0.00     0.215 C 
ENDBRANCH  22  25
ENDBRANCH  20  21
ENDBRANCH  19  20
ENDBRANCH  18  19
ENDBRANCH  17  18
ENDBRANCH  16  17
ENDBRANCH   1  15
BRANCH   1  27
HETATM   27  O3  UNL     1      -0.997   0.372  -2.024  1.00  0.00    -0.385 OA
ATOM     28  H3  UNL     1      -1.806   0.529  -2.496  1.00  0.00     0.211 HD
ENDBRANCH   1  27
BRANCH   3  29
HETATM   29  O4  UNL     1      -2.075   2.859  -2.769  1.00  0.00    -0.395 OA
ATOM     30  H4  UNL     1      -2.715   3.182  -3.392  1.00  0.00     0.210 HD
ENDBRANCH   3  29
BRANCH   9  31
HETATM   31  O5  UNL     1      -6.054  -0.864  -0.181  1.00  0.00    -0.364 OA
ATOM     32  H5  UNL     1      -6.653  -1.598  -0.252  1.00  0.00     0.217 HD
ENDBRANCH   9  31
TORSDOF 10
