REMARK  11 active torsions:
REMARK  status: ('A' for Active; 'I' for Inactive)
REMARK    1  A    between atoms: C2_2  and  O1_3 
REMARK    2  A    between atoms: O1_3  and  C3_4 
REMARK    3  A    between atoms: C6_7  and  C7_8 
REMARK    4  A    between atoms: C7_8  and  O2_9 
REMARK    5  A    between atoms: C7_8  and  N1_11 
REMARK    6  A    between atoms: N1_11  and  C8_12 
REMARK    7  A    between atoms: N1_11  and  C12_16 
REMARK    8  A    between atoms: C8_12  and  C9_13 
REMARK    9  A    between atoms: C13_17  and  O3_18 
REMARK   10  A    between atoms: C16_24  and  O4_25 
REMARK   11  A    between atoms: C23_35  and  O6_36 
ROOT
HETATM    1  N1  UNL     1      -0.959   0.209  -1.138  1.00  0.00    -0.297 N 
ENDROOT
BRANCH   1   2
HETATM    2  C7  UNL     1       0.083  -0.623  -0.753  1.00  0.00     0.157 C 
BRANCH   2   3
HETATM    3  C6  UNL     1       1.439  -0.417  -0.313  1.00  0.00     0.018 A 
HETATM    4  C5  UNL     1       2.170  -1.539   0.114  1.00  0.00     0.018 A 
HETATM    5  C4  UNL     1       3.485  -1.390   0.506  1.00  0.00     0.040 A 
HETATM    6  C3  UNL     1       4.147  -0.198   0.508  1.00  0.00     0.102 A 
HETATM    7  C23 UNL     1       3.450   0.917   0.093  1.00  0.00     0.102 A 
HETATM    8  C22 UNL     1       2.118   0.772  -0.304  1.00  0.00     0.055 A 
BRANCH   6   9
HETATM    9  O1  UNL     1       5.465  -0.123   0.913  1.00  0.00    -0.349 OA
BRANCH   9  10
HETATM   10  C2  UNL     1       6.120  -1.305   1.331  1.00  0.00     0.171 C 
HETATM   11  C1  UNL     1       7.545  -1.009   1.723  1.00  0.00     0.034 C 
ENDBRANCH   9  10
ENDBRANCH   6   9
BRANCH   7  12
HETATM   12  O6  UNL     1       4.089   2.150   0.080  1.00  0.00    -0.353 OA
HETATM   13  C24 UNL     1       3.502   3.347  -0.318  1.00  0.00     0.210 C 
ENDBRANCH   7  12
ENDBRANCH   2   3
BRANCH   2  14
HETATM   14  O2  UNL     1      -0.205  -1.937  -0.787  1.00  0.00    -0.345 OA
ATOM     15  H2  UNL     1      -1.099  -2.073  -1.077  1.00  0.00     0.219 HD
ENDBRANCH   2  14
ENDBRANCH   1   2
BRANCH   1  16
HETATM   16  C8  UNL     1      -1.006   1.589  -1.219  1.00  0.00     0.101 C 
BRANCH  16  17
HETATM   17  C9  UNL     1      -1.443   2.495  -0.162  1.00  0.00    -0.072 C 
HETATM   18  C10 UNL     1      -0.775   2.545   1.152  1.00  0.00     0.044 C 
HETATM   19  C11 UNL     1      -2.953   2.525   0.038  1.00  0.00     0.044 C 
ENDBRANCH  16  17
ENDBRANCH   1  16
BRANCH   1  20
HETATM   20  C12 UNL     1      -2.163  -0.526  -1.544  1.00  0.00     0.105 A 
HETATM   21  C13 UNL     1      -2.463  -0.630  -2.875  1.00  0.00     0.169 A 
HETATM   22  N2  UNL     1      -3.596  -1.338  -2.964  1.00  0.00    -0.334 N 
HETATM   23  C14 UNL     1      -4.031  -1.689  -1.748  1.00  0.00     0.050 A 
ATOM     24  H2  UNL     1      -4.063  -1.577  -3.839  1.00  0.00     0.168 HD
HETATM   25  C15 UNL     1      -5.132  -2.412  -1.290  1.00  0.00     0.070 A 
HETATM   26  C21 UNL     1      -3.106  -1.164  -0.841  1.00  0.00     0.036 A 
HETATM   27  C16 UNL     1      -5.302  -2.606   0.059  1.00  0.00     0.102 A 
HETATM   28  C17 UNL     1      -4.397  -2.094   0.974  1.00  0.00     0.121 A 
HETATM   29  O5  UNL     1      -4.333  -2.137   2.291  1.00  0.00    -0.299 OA
HETATM   30  C20 UNL     1      -3.308  -1.377   0.503  1.00  0.00     0.019 A 
HETATM   31  C18 UNL     1      -3.279  -1.499   2.718  1.00  0.00     0.123 A 
HETATM   32 BR1  UNL     1      -2.813  -1.321   4.572  1.00  0.00    -0.023 Br
HETATM   33  C19 UNL     1      -2.606  -1.004   1.604  1.00  0.00     0.060 A 
BRANCH  21  34
HETATM   34  O3  UNL     1      -1.788  -0.135  -3.983  1.00  0.00    -0.344 OA
ATOM     35  H3  UNL     1      -1.996  -0.207  -4.907  1.00  0.00     0.219 HD
ENDBRANCH  21  34
BRANCH  27  36
HETATM   36  O4  UNL     1      -6.385  -3.321   0.531  1.00  0.00    -0.358 OA
ATOM     37  H4  UNL     1      -6.503  -3.455   1.464  1.00  0.00     0.217 HD
ENDBRANCH  27  36
ENDBRANCH   1  20
TORSDOF 11
