REMARK  6 active torsions:
REMARK  status: ('A' for Active; 'I' for Inactive)
REMARK    1  A    between atoms: C4_4  and  C5_5 
REMARK    2  A    between atoms: C5_5  and  N1_6 
REMARK    3  A    between atoms: N1_6  and  C6_8 
REMARK    4  A    between atoms: N5_19  and  C11_20 
REMARK    5  A    between atoms: C11_20  and  C12_21 
REMARK    6  A    between atoms: C15_24  and  N6_25 
ROOT
HETATM    1  C6  UNL     1       3.273   1.001  -0.203  1.00  0.00     0.132 A 
HETATM    2  N2  UNL     1       3.091   1.516  -1.433  1.00  0.00    -0.351 N 
ATOM      3  H2  UNL     1       3.834   1.386  -2.120  1.00  0.00     0.166 HD
HETATM    4  C7  UNL     1       2.000   2.186  -1.811  1.00  0.00     0.092 A 
HETATM    5  C8  UNL     1       0.953   2.395  -0.918  1.00  0.00     0.051 A 
HETATM    6  C9  UNL     1       1.103   1.883   0.349  1.00  0.00     0.085 A 
HETATM    7  C10 UNL     1       2.240   1.200   0.698  1.00  0.00     0.121 A 
HETATM    8  N3  UNL     1       2.084   0.838   1.977  1.00  0.00    -0.280 N 
ATOM      9  H3  UNL     1       2.753   0.313   2.541  1.00  0.00     0.188 HD
HETATM   10  N4  UNL     1       0.896   1.288   2.379  1.00  0.00    -0.239 N 
ATOM     11  H4  UNL     1       0.513   1.156   3.315  1.00  0.00     0.208 HD
HETATM   12  N5  UNL     1       0.285   1.925   1.404  1.00  0.00    -0.271 N 
ENDROOT
BRANCH  12  13
HETATM   13  C11 UNL     1      -1.018   2.539   1.481  1.00  0.00     0.189 C 
BRANCH  13  14
HETATM   14  C12 UNL     1      -2.129   1.612   1.130  1.00  0.00    -0.038 A 
HETATM   15  C13 UNL     1      -2.618   1.539  -0.154  1.00  0.00     0.011 A 
HETATM   16  C14 UNL     1      -3.661   0.668  -0.500  1.00  0.00     0.030 A 
HETATM   17  C15 UNL     1      -4.247  -0.155   0.431  1.00  0.00     0.030 A 
HETATM   18  C20 UNL     1      -3.740  -0.069   1.725  1.00  0.00     0.030 A 
HETATM   19  C21 UNL     1      -2.715   0.785   2.072  1.00  0.00     0.011 A 
BRANCH  17  20
HETATM   20  N6  UNL     1      -5.304  -1.056   0.137  1.00  0.00    -0.377 N 
HETATM   21  C16 UNL     1      -5.856  -1.223  -1.162  1.00  0.00     0.149 C 
HETATM   22  C17 UNL     1      -7.321  -0.846  -1.092  1.00  0.00     0.187 C 
HETATM   23  O1  UNL     1      -7.922  -1.381   0.020  1.00  0.00    -0.388 OA
HETATM   24  C18 UNL     1      -7.199  -2.399   0.629  1.00  0.00     0.187 C 
HETATM   25  C19 UNL     1      -5.896  -1.882   1.200  1.00  0.00     0.149 C 
ENDBRANCH  17  20
ENDBRANCH  13  14
ENDBRANCH  12  13
BRANCH   1  26
HETATM   26  N1  UNL     1       4.340   0.354   0.140  1.00  0.00    -0.370 N 
ATOM     27  H1  UNL     1       4.454  -0.028   1.079  1.00  0.00     0.161 HD
BRANCH  26  28
HETATM   28  C5  UNL     1       5.368   0.197  -0.876  1.00  0.00     0.160 C 
BRANCH  28  29
HETATM   29  C4  UNL     1       6.515  -0.583  -0.384  1.00  0.00    -0.041 A 
HETATM   30  C3  UNL     1       6.503  -1.953  -0.541  1.00  0.00     0.009 A 
HETATM   31  C2  UNL     1       7.549  -2.723  -0.099  1.00  0.00     0.001 A 
HETATM   32  C1  UNL     1       8.624  -2.109   0.510  1.00  0.00     0.000 A 
HETATM   33  C23 UNL     1       8.635  -0.742   0.666  1.00  0.00     0.001 A 
HETATM   34  C22 UNL     1       7.584   0.046   0.223  1.00  0.00     0.009 A 
ENDBRANCH  28  29
ENDBRANCH  26  28
ENDBRANCH   1  26
TORSDOF 6
