REMARK  6 active torsions:
REMARK  status: ('A' for Active; 'I' for Inactive)
REMARK    1  A    between atoms: C1_2  and  C2_3 
REMARK       I    between atoms: C1_2  and  N4_20 
REMARK    2  A    between atoms: C2_3  and  N1_4 
REMARK    3  A    between atoms: C4_6  and  C5_7 
REMARK    4  A    between atoms: C5_7  and  C6_8 
REMARK    5  A    between atoms: C16_23  and  O2_24 
REMARK    6  A    between atoms: C16_23  and  C17_26 
ROOT
HETATM    1  N1  UNL     1      -1.085   0.790  -0.783  1.00  0.00    -0.278 N 
HETATM    2  C3  UNL     1      -2.221   0.484  -0.146  1.00  0.00     0.139 A 
HETATM    3  C4  UNL     1      -2.755  -0.634  -0.731  1.00  0.00     0.057 A 
HETATM    4  N2  UNL     1      -1.913  -0.980  -1.725  1.00  0.00    -0.288 N 
ATOM      5  H2  UNL     1      -2.023  -1.773  -2.358  1.00  0.00     0.188 HD
HETATM    6  N3  UNL     1      -0.922  -0.110  -1.733  1.00  0.00    -0.240 N 
ATOM      7  H3  UNL     1      -0.137  -0.130  -2.384  1.00  0.00     0.208 HD
ENDROOT
BRANCH   1   8
HETATM    8  C2  UNL     1      -0.249   1.940  -0.428  1.00  0.00     0.252 C 
BRANCH   8   9
HETATM    9  C1  UNL     1       0.673   1.458   0.627  1.00  0.00     0.239 C 
HETATM   10  O1  UNL     1       0.338   1.630   1.829  1.00  0.00    -0.271 OA
HETATM   11  N4  UNL     1       1.874   0.826   0.293  1.00  0.00    -0.350 N 
HETATM   12  C14 UNL     1       2.679   0.360   1.434  1.00  0.00     0.129 C 
HETATM   13  C22 UNL     1       2.353   0.602  -1.030  1.00  0.00     0.129 C 
HETATM   14  C15 UNL     1       3.824  -0.435   0.855  1.00  0.00     0.065 C 
HETATM   15  C16 UNL     1       4.644   0.532   0.009  1.00  0.00     0.109 C 
HETATM   16  C21 UNL     1       3.805   0.912  -1.172  1.00  0.00     0.065 C 
BRANCH  15  17
HETATM   17  O2  UNL     1       4.901   1.688   0.773  1.00  0.00    -0.383 OA
ATOM     18  H2  UNL     1       5.412   2.291   0.246  1.00  0.00     0.211 HD
ENDBRANCH  15  17
BRANCH  15  19
HETATM   19  C17 UNL     1       5.895  -0.162  -0.328  1.00  0.00     0.087 A 
HETATM   20  C18 UNL     1       6.485  -0.462  -1.534  1.00  0.00     0.038 A 
HETATM   21  C19 UNL     1       7.648  -1.124  -1.231  1.00  0.00     0.027 A 
HETATM   22  C20 UNL     1       7.732  -1.206   0.137  1.00  0.00     0.142 A 
HETATM   23  O3  UNL     1       6.682  -0.629   0.655  1.00  0.00    -0.324 OA
ENDBRANCH  15  19
ENDBRANCH   8   9
ENDBRANCH   1   8
BRANCH   3  24
HETATM   24  C5  UNL     1      -3.999  -1.308  -0.303  1.00  0.00     0.032 A 
HETATM   25  C12 UNL     1      -3.745  -2.177   0.964  1.00  0.00     0.022 A 
HETATM   26  C13 UNL     1      -4.100  -2.783  -0.371  1.00  0.00     0.022 A 
BRANCH  24  27
HETATM   27  C6  UNL     1      -5.209  -0.473  -0.279  1.00  0.00    -0.043 A 
HETATM   28  C7  UNL     1      -5.289   0.743  -0.900  1.00  0.00     0.008 A 
HETATM   29  C8  UNL     1      -6.439   1.537  -0.885  1.00  0.00     0.001 A 
HETATM   30  C9  UNL     1      -7.546   1.055  -0.206  1.00  0.00     0.000 A 
HETATM   31  C10 UNL     1      -7.495  -0.171   0.429  1.00  0.00     0.001 A 
HETATM   32  C11 UNL     1      -6.346  -0.929   0.398  1.00  0.00     0.008 A 
ENDBRANCH  24  27
ENDBRANCH   3  24
TORSDOF 6
