REMARK  5 active torsions:
REMARK  status: ('A' for Active; 'I' for Inactive)
REMARK       I    between atoms: N1_3  and  C3_5 
REMARK       I    between atoms: C3_5  and  N6_20 
REMARK    1  A    between atoms: N2_6  and  N3_8 
REMARK       I    between atoms: N3_8  and  C4_10 
REMARK    2  A    between atoms: C4_10  and  C5_12 
REMARK    3  A    between atoms: C5_12  and  N4_13 
REMARK    4  A    between atoms: C5_12  and  C6_17 
REMARK    5  A    between atoms: N6_20  and  N7_22 
ROOT
HETATM    1  C1  UNL     1       4.678   1.700   0.068  1.00  0.00     0.037 C 
HETATM    2  C2  UNL     1       3.594   1.224   0.276  1.00  0.00     0.015 C 
HETATM    3  N1  UNL     1       2.339   0.646   0.524  1.00  0.00    -0.147 N 
ATOM      4  H1  UNL     1       1.691   1.072   1.187  1.00  0.00     0.195 HD
HETATM    5  C3  UNL     1       1.990  -0.549  -0.171  1.00  0.00     0.718 C 
HETATM    6  N2  UNL     1       0.796  -0.787  -0.602  1.00  0.00    -0.128 N 
ATOM      7  H2  UNL     1       0.631  -1.668  -1.090  1.00  0.00     0.205 HD
HETATM    8  N6  UNL     1       3.020  -1.501  -0.384  1.00  0.00    -0.137 N 
ATOM      9  H6  UNL     1       3.823  -1.241  -0.957  1.00  0.00     0.205 HD
ENDROOT
BRANCH   6  10
HETATM   10  N3  UNL     1      -0.270   0.073  -0.445  1.00  0.00    -0.253 N 
HETATM   11  C4  UNL     1      -1.564  -0.375  -0.824  1.00  0.00     0.276 C 
HETATM   12  O1  UNL     1      -1.761  -1.528  -1.296  1.00  0.00    -0.269 OA
ATOM     13  H3  UNL     1      -0.133   1.010  -0.065  1.00  0.00     0.190 HD
BRANCH  11  14
HETATM   14  C5  UNL     1      -2.788   0.484  -0.692  1.00  0.00     0.364 C 
BRANCH  14  15
HETATM   15  N4  UNL     1      -2.487   1.771  -0.147  1.00  0.00    -0.058 N 
ATOM     16  H43 UNL     1      -1.995   1.689   0.743  1.00  0.00     0.275 HD
ATOM     17  H42 UNL     1      -1.762   2.241  -0.689  1.00  0.00     0.275 HD
ATOM     18  H41 UNL     1      -3.319   2.355  -0.057  1.00  0.00     0.275 HD
ENDBRANCH  14  15
BRANCH  14  19
HETATM   19  C6  UNL     1      -3.737  -0.197   0.202  1.00  0.00     0.271 C 
HETATM   20  N5  UNL     1      -4.191   0.437   1.372  1.00  0.00    -0.060 NA
HETATM   21  O2  UNL     1      -4.138  -1.340  -0.080  1.00  0.00    -0.274 OA
ENDBRANCH  14  19
ENDBRANCH  11  14
ENDBRANCH   6  10
BRANCH   8  22
HETATM   22  N7  UNL     1       2.969  -2.768   0.161  1.00  0.00    -0.331 N 
ATOM     23  H72 UNL     1       2.159  -3.011   0.732  1.00  0.00     0.177 HD
ATOM     24  H71 UNL     1       3.710  -3.452   0.008  1.00  0.00     0.177 HD
ENDBRANCH   8  22
TORSDOF 5
