REMARK  9 active torsions:
REMARK  status: ('A' for Active; 'I' for Inactive)
REMARK    1  A    between atoms: C2_2  and  C3_3 
REMARK    2  A    between atoms: C3_3  and  C4_4 
REMARK    3  A    between atoms: C4_4  and  N1_5 
REMARK    4  A    between atoms: C5_6  and  C6_7 
REMARK    5  A    between atoms: C12_13  and  N2_14 
REMARK    6  A    between atoms: C15_19  and  N4_20 
REMARK    7  A    between atoms: N4_20  and  C16_22 
REMARK    8  A    between atoms: C16_22  and  C18_24 
REMARK    9  A    between atoms: C18_24  and  O1_25 
ROOT
HETATM    1  N1  UNL     1      -2.532  -0.661   0.458  1.00  0.00    -0.307 N 
HETATM    2  C5  UNL     1      -1.152  -0.665   0.979  1.00  0.00     0.095 A 
HETATM    3  C12 UNL     1      -0.298  -0.698  -0.015  1.00  0.00     0.144 A 
HETATM    4  N5  UNL     1      -0.987  -0.722  -1.278  1.00  0.00    -0.316 N 
HETATM    5  C21 UNL     1      -0.306  -0.840  -2.527  1.00  0.00     0.136 C 
HETATM    6  C22 UNL     1      -0.892  -0.194  -3.713  1.00  0.00     0.049 C 
HETATM    7  C23 UNL     1      -2.283  -0.534  -3.988  1.00  0.00     0.005 C 
HETATM    8  C24 UNL     1      -3.299  -0.807  -3.199  1.00  0.00     0.042 A 
HETATM    9  N6  UNL     1      -4.541  -1.096  -3.677  1.00  0.00    -0.359 N 
ATOM     10  H6  UNL     1      -4.784  -1.182  -4.664  1.00  0.00     0.166 HD
HETATM   11  C25 UNL     1      -5.390  -1.250  -2.665  1.00  0.00     0.006 A 
HETATM   12  C26 UNL     1      -6.839  -1.572  -2.786  1.00  0.00     0.068 C 
HETATM   13  C27 UNL     1      -4.703  -1.062  -1.464  1.00  0.00     0.042 A 
HETATM   14  C28 UNL     1      -3.409  -0.793  -1.820  1.00  0.00     0.037 A 
HETATM   15  C29 UNL     1      -2.389  -0.696  -0.947  1.00  0.00     0.128 A 
ENDROOT
BRANCH   3  16
HETATM   16  N2  UNL     1       1.113  -0.715   0.066  1.00  0.00    -0.313 N 
HETATM   17  C13 UNL     1       1.961   0.291  -0.172  1.00  0.00     0.129 A 
HETATM   18  C14 UNL     1       3.290  -0.147   0.015  1.00  0.00     0.069 A 
HETATM   19  N3  UNL     1       4.500   0.340  -0.061  1.00  0.00    -0.335 N 
HETATM   20  C19 UNL     1       3.144  -1.457   0.371  1.00  0.00     0.052 A 
HETATM   21  C15 UNL     1       5.533  -0.460   0.212  1.00  0.00     0.146 A 
ATOM     22  H3  UNL     1       4.652   1.314  -0.324  1.00  0.00     0.168 HD
HETATM   23  S1  UNL     1       4.768  -1.944   0.586  1.00  0.00    -0.051 SA
HETATM   24  C20 UNL     1       1.788  -1.825   0.407  1.00  0.00     0.119 A 
BRANCH  21  25
HETATM   25  N4  UNL     1       6.817  -0.178   0.202  1.00  0.00    -0.364 N 
ATOM     26  H4  UNL     1       7.511  -0.889   0.432  1.00  0.00     0.162 HD
BRANCH  25  27
HETATM   27  C16 UNL     1       7.214   1.155  -0.141  1.00  0.00     0.103 C 
HETATM   28  C17 UNL     1       7.073   2.019   1.100  1.00  0.00     0.034 C 
BRANCH  27  29
HETATM   29  C18 UNL     1       8.671   1.179  -0.609  1.00  0.00     0.188 C 
BRANCH  29  30
HETATM   30  O1  UNL     1       8.812   0.368  -1.720  1.00  0.00    -0.399 OA
ATOM     31  H1  UNL     1       9.716   0.383  -2.010  1.00  0.00     0.209 HD
ENDBRANCH  29  30
ENDBRANCH  27  29
ENDBRANCH  25  27
ENDBRANCH  21  25
ENDBRANCH   3  16
BRANCH   2  32
HETATM   32  C6  UNL     1      -0.829  -0.591   2.397  1.00  0.00    -0.005 A 
HETATM   33  C7  UNL     1      -0.116   0.543   2.810  1.00  0.00     0.014 A 
HETATM   34  C8  UNL     1       0.325   0.757   4.076  1.00  0.00     0.001 A 
HETATM   35  C9  UNL     1       0.055  -0.204   5.025  1.00  0.00     0.000 A 
HETATM   36  C10 UNL     1      -0.642  -1.337   4.674  1.00  0.00     0.001 A 
HETATM   37  C11 UNL     1      -1.076  -1.514   3.353  1.00  0.00     0.014 A 
ENDBRANCH   2  32
BRANCH   1  38
HETATM   38  C4  UNL     1      -3.657  -0.587   1.290  1.00  0.00     0.072 C 
BRANCH  38  39
HETATM   39  C3  UNL     1      -3.964   0.721   1.954  1.00  0.00     0.045 C 
BRANCH  39  40
HETATM   40  C2  UNL     1      -4.274   1.907   1.118  1.00  0.00     0.001 C 
HETATM   41  C1  UNL     1      -3.239   2.450   0.209  1.00  0.00     0.005 C 
ENDBRANCH  39  40
ENDBRANCH  38  39
ENDBRANCH   1  38
TORSDOF 9
