REMARK  8 active torsions:
REMARK  status: ('A' for Active; 'I' for Inactive)
REMARK       I    between atoms: C1_2  and  N1_3 
REMARK    1  A    between atoms: C1_2  and  C11_22 
REMARK    2  A    between atoms: N1_3  and  C2_5 
REMARK    3  A    between atoms: C5_8  and  S1_9 
REMARK    4  A    between atoms: S1_9  and  N2_12 
REMARK    5  A    between atoms: N2_12  and  C6_14 
REMARK    6  A    between atoms: C14_25  and  C15_26 
REMARK    7  A    between atoms: C15_26  and  S3_27 
REMARK    8  A    between atoms: S3_27  and  C16_29 
ROOT
HETATM    1  O1  UNL     1      -1.275   0.975   0.340  1.00  0.00    -0.266 OA
HETATM    2  C1  UNL     1      -0.652  -0.141   0.323  1.00  0.00     0.272 C 
HETATM    3  N1  UNL     1      -1.354  -1.336   0.370  1.00  0.00    -0.322 N 
ATOM      4  H1  UNL     1      -0.802  -2.194   0.347  1.00  0.00     0.169 HD
ENDROOT
BRANCH   2   5
HETATM    5  C11 UNL     1       0.810  -0.119   0.253  1.00  0.00     0.103 A 
HETATM    6  C12 UNL     1       1.459   1.116   0.205  1.00  0.00     0.036 A 
HETATM    7  C13 UNL     1       2.836   1.130   0.139  1.00  0.00     0.016 A 
HETATM    8  C14 UNL     1       3.594  -0.003   0.120  1.00  0.00     0.022 A 
HETATM    9  C22 UNL     1       2.907  -1.199   0.169  1.00  0.00     0.253 A 
HETATM   10  O5  UNL     1       3.567  -2.272   0.154  1.00  0.00    -0.268 OA
HETATM   11  N4  UNL     1       1.534  -1.230   0.235  1.00  0.00    -0.319 N 
ATOM     12  H4  UNL     1       1.059  -2.132   0.271  1.00  0.00     0.169 HD
BRANCH   8  13
HETATM   13  C15 UNL     1       5.054  -0.006   0.030  1.00  0.00     0.158 C 
BRANCH  13  14
HETATM   14  S3  UNL     1       5.667   1.650   0.033  1.00  0.00     0.054 S 
HETATM   15  O4  UNL     1       5.221   2.391   1.458  1.00  0.00    -0.252 OA
BRANCH  14  16
HETATM   16  C16 UNL     1       7.371   1.742  -0.194  1.00  0.00     0.031 A 
HETATM   17  C17 UNL     1       8.215   1.719   0.905  1.00  0.00     0.021 A 
HETATM   18  C18 UNL     1       9.570   1.791   0.739  1.00  0.00     0.001 A 
HETATM   19  C19 UNL     1      10.081   1.887  -0.530  1.00  0.00     0.000 A 
HETATM   20  C20 UNL     1       9.256   1.912  -1.647  1.00  0.00     0.001 A 
HETATM   21  C21 UNL     1       7.891   1.838  -1.465  1.00  0.00     0.021 A 
ENDBRANCH  14  16
ENDBRANCH  13  14
ENDBRANCH   8  13
ENDBRANCH   2   5
BRANCH   3  22
HETATM   22  C2  UNL     1      -2.776  -1.486   0.447  1.00  0.00     0.035 A 
HETATM   23  C3  UNL     1      -3.660  -0.517   0.814  1.00  0.00     0.031 A 
HETATM   24  C4  UNL     1      -5.044  -0.766   0.833  1.00  0.00     0.027 A 
HETATM   25  C5  UNL     1      -5.570  -1.983   0.487  1.00  0.00     0.080 A 
HETATM   26  C9  UNL     1      -4.674  -2.961   0.116  1.00  0.00     0.027 A 
HETATM   27  C10 UNL     1      -3.324  -2.736   0.092  1.00  0.00     0.031 A 
BRANCH  25  28
HETATM   28  S1  UNL     1      -7.299  -2.272   0.514  1.00  0.00     0.264 S 
HETATM   29  O2  UNL     1      -7.490  -3.767   0.757  1.00  0.00    -0.200 OA
HETATM   30  O3  UNL     1      -7.953  -1.598   1.689  1.00  0.00    -0.200 OA
BRANCH  28  31
HETATM   31  N2  UNL     1      -8.028  -1.932  -0.980  1.00  0.00    -0.260 N 
ATOM     32  H2  UNL     1      -8.163  -2.710  -1.625  1.00  0.00     0.181 HD
BRANCH  31  33
HETATM   33  C6  UNL     1      -8.432  -0.744  -1.370  1.00  0.00     0.158 A 
HETATM   34  N3  UNL     1      -8.357   0.403  -0.696  1.00  0.00    -0.345 N 
HETATM   35  C7  UNL     1      -8.820   1.489  -1.264  1.00  0.00     0.097 A 
ATOM     36  H3  UNL     1      -7.949   0.435   0.238  1.00  0.00     0.167 HD
HETATM   37  C8  UNL     1      -9.354   1.379  -2.516  1.00  0.00     0.070 A 
HETATM   38  S2  UNL     1      -9.171  -0.287  -2.835  1.00  0.00    -0.064 SA
ENDBRANCH  31  33
ENDBRANCH  28  31
ENDBRANCH  25  28
ENDBRANCH   3  22
TORSDOF 8
