REMARK  11 active torsions:
REMARK  status: ('A' for Active; 'I' for Inactive)
REMARK    1  A    between atoms: C2_2  and  C3_3 
REMARK    2  A    between atoms: C5_5  and  O1_6 
REMARK    3  A    between atoms: C6_8  and  O2_9 
REMARK    4  A    between atoms: C7_11  and  O3_12 
REMARK    5  A    between atoms: C8_14  and  S1_15 
REMARK    6  A    between atoms: S1_15  and  C9_16 
REMARK    7  A    between atoms: C9_16  and  C10_17 
REMARK    8  A    between atoms: C10_17  and  C11_18 
REMARK    9  A    between atoms: C11_18  and  O4_20 
REMARK   10  A    between atoms: O4_20  and  C13_21 
REMARK   11  A    between atoms: N1_24  and  O6_26 
ROOT
HETATM    1  C3  UNL     1      -1.897  -0.209   0.825  1.00  0.00    -0.001 C 
HETATM    2  C4  UNL     1      -1.439   0.100   2.232  1.00  0.00     0.019 C 
HETATM    3  C5  UNL     1      -3.273   0.339   0.539  1.00  0.00     0.158 C 
HETATM    4  C6  UNL     1      -3.299   0.606  -0.950  1.00  0.00     0.177 C 
HETATM    5  C7  UNL     1      -1.862   0.675  -1.392  1.00  0.00     0.164 C 
HETATM    6  C8  UNL     1      -1.038   0.617  -0.125  1.00  0.00     0.095 C 
ENDROOT
BRANCH   6   7
HETATM    7  S1  UNL     1       0.563  -0.115  -0.365  1.00  0.00    -0.106 SA
BRANCH   7   8
HETATM    8  C9  UNL     1       1.750   0.808  -1.255  1.00  0.00     0.071 C 
HETATM    9  N1  UNL     1       1.687   2.051  -1.465  1.00  0.00    -0.265 N 
ATOM     10  H1  UNL     1       2.432   2.494  -2.003  1.00  0.00     0.194 HD
BRANCH   8  11
HETATM   11  C10 UNL     1       3.003   0.133  -1.771  1.00  0.00     0.098 C 
BRANCH  11  12
HETATM   12  C11 UNL     1       3.744  -0.297  -0.514  1.00  0.00     0.134 C 
HETATM   13  C12 UNL     1       4.063   0.918   0.321  1.00  0.00     0.040 C 
BRANCH  12  14
HETATM   14  O4  UNL     1       2.945  -1.229   0.151  1.00  0.00    -0.316 OA
BRANCH  14  15
HETATM   15  C13 UNL     1       3.310  -2.545   0.383  1.00  0.00     0.255 C 
HETATM   16  C14 UNL     1       2.420  -3.501   1.100  1.00  0.00     0.126 C 
HETATM   17  O5  UNL     1       4.428  -2.909  -0.035  1.00  0.00    -0.266 OA
ENDBRANCH  14  15
ENDBRANCH  12  14
ENDBRANCH  11  12
ENDBRANCH   8  11
BRANCH   9  18
HETATM   18  O6  UNL     1       0.681   2.815  -1.011  1.00  0.00    -0.285 OA
HETATM   19  C15 UNL     1       0.870   4.170  -0.606  1.00  0.00     0.237 C 
ENDBRANCH   9  18
ENDBRANCH   7   8
ENDBRANCH   6   7
BRANCH   1  20
HETATM   20  C2  UNL     1      -1.846  -1.671   0.515  1.00  0.00     0.009 C 
HETATM   21  C1  UNL     1      -2.747  -2.417   1.476  1.00  0.00     0.006 C 
ENDBRANCH   1  20
BRANCH   5  22
HETATM   22  O3  UNL     1      -1.514  -0.352  -2.273  1.00  0.00    -0.392 OA
ATOM     23  H3  UNL     1      -0.607  -0.308  -2.552  1.00  0.00     0.210 HD
ENDBRANCH   5  22
BRANCH   3  24
HETATM   24  O1  UNL     1      -3.526   1.524   1.239  1.00  0.00    -0.392 OA
ATOM     25  H1  UNL     1      -4.393   1.869   1.059  1.00  0.00     0.210 HD
ENDBRANCH   3  24
BRANCH   4  26
HETATM   26  O2  UNL     1      -4.024  -0.389  -1.602  1.00  0.00    -0.390 OA
ATOM     27  H2  UNL     1      -4.040  -0.221  -2.537  1.00  0.00     0.210 HD
ENDBRANCH   4  26
TORSDOF 11
