REMARK  9 active torsions:
REMARK  status: ('A' for Active; 'I' for Inactive)
REMARK    1  A    between atoms: C2_2  and  C3_3 
REMARK    2  A    between atoms: C3_3  and  N1_4 
REMARK    3  A    between atoms: N2_7  and  C6_8 
REMARK    4  A    between atoms: C6_8  and  C7_9 
REMARK    5  A    between atoms: C10_12  and  C11_13 
REMARK    6  A    between atoms: C11_13  and  N3_14 
REMARK    7  A    between atoms: C11_13  and  N4_18 
REMARK    8  A    between atoms: C15_25  and  C16_26 
REMARK    9  A    between atoms: C16_26  and  O1_27 
ROOT
HETATM    1  C7  UNL     1       1.620   1.204   0.648  1.00  0.00    -0.040 A 
HETATM    2  C8  UNL     1       2.205   1.326  -0.588  1.00  0.00     0.009 A 
HETATM    3  C9  UNL     1       3.421   0.721  -0.858  1.00  0.00     0.011 A 
HETATM    4  C10 UNL     1       4.072  -0.018   0.108  1.00  0.00    -0.001 A 
HETATM    5  C12 UNL     1       3.507  -0.155   1.351  1.00  0.00     0.011 A 
HETATM    6  C13 UNL     1       2.281   0.463   1.603  1.00  0.00     0.009 A 
ENDROOT
BRANCH   1   7
HETATM    7  C6  UNL     1       0.339   1.826   0.975  1.00  0.00     0.166 C 
BRANCH   7   8
HETATM    8  N2  UNL     1      -0.805   0.983   0.697  1.00  0.00    -0.359 N 
HETATM    9  C5  UNL     1      -1.341   0.124   1.581  1.00  0.00     0.108 A 
HETATM   10  C4  UNL     1      -2.424  -0.668   1.305  1.00  0.00     0.108 A 
HETATM   11  N1  UNL     1      -3.006  -0.611   0.094  1.00  0.00    -0.352 N 
HETATM   12  C15 UNL     1      -2.496   0.245  -0.834  1.00  0.00     0.051 A 
HETATM   13  C14 UNL     1      -1.390   1.036  -0.512  1.00  0.00     0.118 A 
BRANCH  11  14
HETATM   14  C3  UNL     1      -4.149  -1.454  -0.177  1.00  0.00     0.155 C 
BRANCH  14  15
HETATM   15  C2  UNL     1      -5.394  -0.726   0.202  1.00  0.00    -0.017 C 
HETATM   16  C1  UNL     1      -6.227  -1.197   1.118  1.00  0.00     0.008 C 
ENDBRANCH  14  15
ENDBRANCH  11  14
BRANCH  12  17
HETATM   17  C16 UNL     1      -3.127   0.315  -2.171  1.00  0.00     0.222 C 
BRANCH  17  18
HETATM   18  O1  UNL     1      -2.412   1.235  -2.947  1.00  0.00    -0.395 OA
ATOM     19  H1  UNL     1      -2.817   1.280  -3.805  1.00  0.00     0.209 HD
ENDBRANCH  17  18
ENDBRANCH  12  17
ENDBRANCH   7   8
ENDBRANCH   1   7
BRANCH   4  20
HETATM   20  C11 UNL     1       5.373  -0.651  -0.219  1.00  0.00     0.411 C 
BRANCH  20  21
HETATM   21  N3  UNL     1       5.225  -1.274  -1.528  1.00  0.00    -0.046 N 
ATOM     22  H33 UNL     1       4.440  -1.923  -1.577  1.00  0.00     0.277 HD
ATOM     23  H32 UNL     1       4.902  -0.626  -2.247  1.00  0.00     0.277 HD
ATOM     24  H31 UNL     1       6.120  -1.709  -1.753  1.00  0.00     0.277 HD
ENDBRANCH  20  21
BRANCH  20  25
HETATM   25  N4  UNL     1       5.774  -1.615   0.767  1.00  0.00    -0.046 N 
ATOM     26  H43 UNL     1       5.789  -1.203   1.700  1.00  0.00     0.277 HD
ATOM     27  H42 UNL     1       5.049  -2.318   0.911  1.00  0.00     0.277 HD
ATOM     28  H41 UNL     1       6.669  -2.050   0.542  1.00  0.00     0.277 HD
ENDBRANCH  20  25
ENDBRANCH   4  20
TORSDOF 9
