REMARK  8 active torsions:
REMARK  status: ('A' for Active; 'I' for Inactive)
REMARK    1  A    between atoms: C1_2  and  C2_4 
REMARK    2  A    between atoms: C2_4  and  C3_5 
REMARK    3  A    between atoms: C3_5  and  N2_6 
REMARK    4  A    between atoms: N2_6  and  C4_8 
REMARK    5  A    between atoms: C7_13  and  N4_14 
REMARK    6  A    between atoms: N4_14  and  C8_16 
REMARK    7  A    between atoms: C8_16  and  C9_17 
REMARK    8  A    between atoms: C9_17  and  C10_18 
ROOT
HETATM    1  C4  UNL     1       2.393  -0.727  -0.318  1.00  0.00     0.118 A 
HETATM    2  C5  UNL     1       2.066  -1.319  -1.521  1.00  0.00     0.066 A 
HETATM    3  C6  UNL     1       0.747  -1.379  -1.946  1.00  0.00     0.110 A 
HETATM    4  N3  UNL     1      -0.192  -0.833  -1.131  1.00  0.00    -0.202 N 
ATOM      5  H3  UNL     1      -1.171  -0.860  -1.416  1.00  0.00     0.183 HD
HETATM    6  C7  UNL     1       0.131  -0.258   0.039  1.00  0.00     0.679 A 
HETATM    7  N5  UNL     1       1.416  -0.204   0.445  1.00  0.00    -0.177 N 
ATOM      8  H5  UNL     1       1.648   0.236   1.335  1.00  0.00     0.185 HD
ENDROOT
BRANCH   6   9
HETATM    9  N4  UNL     1      -0.784   0.245   0.778  1.00  0.00    -0.226 N 
ATOM     10  H4  UNL     1      -0.498   0.673   1.659  1.00  0.00     0.177 HD
BRANCH   9  11
HETATM   11  C8  UNL     1      -2.180   0.252   0.460  1.00  0.00     0.142 C 
BRANCH  11  12
HETATM   12  C9  UNL     1      -2.970   1.155   1.400  1.00  0.00     0.058 C 
BRANCH  12  13
HETATM   13  C10 UNL     1      -4.410   1.133   1.037  1.00  0.00    -0.057 A 
HETATM   14  C11 UNL     1      -4.945   2.038   0.123  1.00  0.00     0.007 A 
HETATM   15  C12 UNL     1      -6.284   2.014  -0.211  1.00  0.00     0.001 A 
HETATM   16  C13 UNL     1      -7.141   1.082   0.357  1.00  0.00     0.000 A 
HETATM   17  C14 UNL     1      -6.619   0.179   1.265  1.00  0.00     0.001 A 
HETATM   18  C15 UNL     1      -5.286   0.224   1.580  1.00  0.00     0.007 A 
ENDBRANCH  12  13
ENDBRANCH  11  12
ENDBRANCH   9  11
ENDBRANCH   6   9
BRANCH   1  19
HETATM   19  N2  UNL     1       3.632  -0.698   0.030  1.00  0.00    -0.375 N 
ATOM     20  H2  UNL     1       3.868  -0.259   0.920  1.00  0.00     0.161 HD
BRANCH  19  21
HETATM   21  C3  UNL     1       4.697  -1.242  -0.751  1.00  0.00     0.130 C 
BRANCH  21  22
HETATM   22  C2  UNL     1       6.005  -1.300   0.005  1.00  0.00     0.119 C 
BRANCH  22  23
HETATM   23  C1  UNL     1       6.388   0.066   0.412  1.00  0.00     0.232 C 
HETATM   24  N1  UNL     1       7.570   0.351   1.140  1.00  0.00    -0.062 NA
HETATM   25  O1  UNL     1       5.643   1.020   0.105  1.00  0.00    -0.277 OA
ENDBRANCH  22  23
ENDBRANCH  21  22
ENDBRANCH  19  21
ENDBRANCH   1  19
TORSDOF 8
