REMARK  6 active torsions:
REMARK  status: ('A' for Active; 'I' for Inactive)
REMARK    1  A    between atoms: C7_7  and  C8_8 
REMARK    2  A    between atoms: C8_8  and  C14_14 
REMARK    3  A    between atoms: C9_9  and  C10_10 
REMARK    4  A    between atoms: C10_10  and  C11_11 
REMARK    5  A    between atoms: C14_14  and  C15_15 
REMARK    6  A    between atoms: C23_24  and  O1_25 
ROOT
HETATM    1  C1  UNL     1      -3.974   0.646  -2.463  1.00  0.00     0.013 C 
HETATM    2  C2  UNL     1      -3.518   0.591  -1.360  1.00  0.00    -0.104 C 
HETATM    3  C3  UNL     1      -2.998   0.533  -0.033  1.00  0.00     0.053 C 
HETATM    4  C4  UNL     1      -1.581   0.973   0.151  1.00  0.00     0.036 C 
HETATM    5  C5  UNL     1      -0.833  -0.126  -0.539  1.00  0.00    -0.031 C 
HETATM    6  C6  UNL     1      -0.626   0.164  -2.011  1.00  0.00     0.016 C 
HETATM    7  C7  UNL     1       0.435  -0.608   0.001  1.00  0.00     0.023 C 
HETATM    8  C17 UNL     1       0.002  -1.315   1.241  1.00  0.00     0.010 C 
HETATM    9  C18 UNL     1      -0.944  -2.332   0.541  1.00  0.00     0.006 C 
HETATM   10  C19 UNL     1      -1.741  -1.381  -0.369  1.00  0.00     0.000 C 
HETATM   11  C20 UNL     1      -2.843  -0.895   0.457  1.00  0.00     0.014 C 
HETATM   12  C21 UNL     1      -4.230  -1.353   0.239  1.00  0.00     0.009 C 
HETATM   13  C22 UNL     1      -5.018  -0.182   0.859  1.00  0.00     0.034 C 
HETATM   14  C23 UNL     1      -4.006   0.976   0.972  1.00  0.00     0.139 C 
ENDROOT
BRANCH  14  15
HETATM   15  O1  UNL     1      -3.492   1.009   2.247  1.00  0.00    -0.394 OA
ATOM     16  H1  UNL     1      -4.134   1.291   2.887  1.00  0.00     0.210 HD
ENDBRANCH  14  15
BRANCH   7  17
HETATM   17  C8  UNL     1       1.655   0.200   0.045  1.00  0.00    -0.074 C 
HETATM   18  C9  UNL     1       1.750   1.469  -0.218  1.00  0.00     0.012 C 
BRANCH  18  19
HETATM   19  C10 UNL     1       2.762   2.501  -0.268  1.00  0.00     0.065 C 
BRANCH  19  20
HETATM   20  C11 UNL     1       4.150   2.244  -0.210  1.00  0.00    -0.079 C 
HETATM   21  C12 UNL     1       5.342   2.064  -0.185  1.00  0.00    -0.106 C 
HETATM   22  C13 UNL     1       6.779   1.820  -0.154  1.00  0.00     0.112 C 
ENDBRANCH  19  20
ENDBRANCH  18  19
BRANCH  17  23
HETATM   23  C14 UNL     1       2.871  -0.553   0.504  1.00  0.00     0.048 C 
BRANCH  23  24
HETATM   24  C15 UNL     1       3.257  -1.654  -0.483  1.00  0.00     0.128 C 
HETATM   25  C16 UNL     1       4.464  -2.347   0.031  1.00  0.00     0.059 C 
HETATM   26  N1  UNL     1       5.414  -2.876   0.420  1.00  0.00    -0.197 NA
ENDBRANCH  23  24
ENDBRANCH  17  23
ENDBRANCH   7  17
TORSDOF 6
