REMARK  4 active torsions:
REMARK  status: ('A' for Active; 'I' for Inactive)
REMARK    1  A    between atoms: C2_2  and  C3_3 
REMARK    2  A    between atoms: C2_2  and  C20_24 
REMARK    3  A    between atoms: C12_12  and  N1_13 
REMARK    4  A    between atoms: C20_24  and  O1_27 
ROOT
HETATM    1  C3  UNL     1      -2.174  -0.322  -0.828  1.00  0.00     0.001 C 
HETATM    2  C4  UNL     1      -1.879   0.966  -1.521  1.00  0.00     0.006 C 
HETATM    3  C5  UNL     1      -0.740   0.541  -2.424  1.00  0.00     0.006 C 
HETATM    4  C6  UNL     1       0.004  -0.473  -1.630  1.00  0.00    -0.002 C 
HETATM    5  C7  UNL     1       1.391  -0.081  -1.266  1.00  0.00    -0.005 C 
HETATM    6  C8  UNL     1       1.628   1.339  -0.923  1.00  0.00     0.006 C 
HETATM    7  C9  UNL     1       2.669   1.566   0.148  1.00  0.00     0.012 C 
HETATM    8  C10 UNL     1       3.797   0.604   0.129  1.00  0.00    -0.012 A 
HETATM    9  C11 UNL     1       4.943   1.064  -0.765  1.00  0.00     0.018 C 
HETATM   10  C12 UNL     1       4.278   0.274   1.549  1.00  0.00     0.192 A 
HETATM   11  C13 UNL     1       3.973  -1.190   1.318  1.00  0.00     0.039 A 
HETATM   12  C14 UNL     1       3.406  -0.825  -0.014  1.00  0.00     0.002 A 
HETATM   13  C15 UNL     1       1.947  -1.058  -0.229  1.00  0.00    -0.005 C 
HETATM   14  C16 UNL     1       1.112  -1.143   0.984  1.00  0.00     0.006 C 
HETATM   15  C17 UNL     1      -0.290  -0.584   0.871  1.00  0.00     0.010 C 
HETATM   16  C18 UNL     1      -0.872  -0.894  -0.449  1.00  0.00    -0.036 C 
HETATM   17  C19 UNL     1      -1.047  -2.431  -0.478  1.00  0.00     0.016 C 
ENDROOT
BRANCH   1  18
HETATM   18  C2  UNL     1      -3.386  -0.457  -0.054  1.00  0.00     0.020 C 
HETATM   19  C1  UNL     1      -4.608  -0.300  -1.023  1.00  0.00     0.013 C 
BRANCH  18  20
HETATM   20  C20 UNL     1      -3.732   0.488   1.050  1.00  0.00     0.054 C 
HETATM   21  C21 UNL     1      -5.089  -0.079   1.569  1.00  0.00     0.045 C 
HETATM   22  C22 UNL     1      -4.000   1.898   0.686  1.00  0.00     0.045 C 
BRANCH  20  23
HETATM   23  O1  UNL     1      -2.945   0.459   2.171  1.00  0.00    -0.390 OA
ATOM     24  H1  UNL     1      -3.165   1.060   2.873  1.00  0.00     0.210 HD
ENDBRANCH  20  23
ENDBRANCH  18  20
ENDBRANCH   1  18
BRANCH  10  25
HETATM   25  N1  UNL     1       5.657   0.607   1.740  1.00  0.00    -0.074 N 
ATOM     26  H13 UNL     1       6.246   0.161   1.037  1.00  0.00     0.274 HD
ATOM     27  H12 UNL     1       5.838   1.583   1.506  1.00  0.00     0.274 HD
ATOM     28  H11 UNL     1       5.977   0.388   2.683  1.00  0.00     0.274 HD
ENDBRANCH  10  25
TORSDOF 4
