REMARK  1 active torsions:
REMARK  status: ('A' for Active; 'I' for Inactive)
REMARK    1  A    between atoms: S1_3  and  C2_4 
ROOT
HETATM    1  N1  UNL     1       2.914  -0.779  -0.053  1.00  0.00    -0.184 NA
HETATM    2  C1  UNL     1       2.113   0.046  -0.173  1.00  0.00     0.140 C 
HETATM    3  S1  UNL     1       0.919   1.317  -0.349  1.00  0.00     0.016 SA
ENDROOT
BRANCH   3   4
HETATM    4  C2  UNL     1      -0.737   0.700  -0.213  1.00  0.00     0.163 C 
HETATM    5  N2  UNL     1      -1.014  -0.669   0.011  1.00  0.00    -0.081 NA
HETATM    6  S2  UNL     1      -1.981   1.732  -0.351  1.00  0.00    -0.055 SA
ENDBRANCH   3   4
TORSDOF 1
