REMARK  2 active torsions:
REMARK  status: ('A' for Active; 'I' for Inactive)
REMARK    1  A    between atoms: O1_1  and  C1_3 
REMARK    2  A    between atoms: C6_8  and  O2_9 
ROOT
HETATM    1  C1  UNL     1      -1.364   0.631   0.070  1.00  0.00     0.169 A 
HETATM    2  C2  UNL     1      -0.317   1.458   0.175  1.00  0.00     0.003 A 
HETATM    3  C3  UNL     1       0.575   1.552   0.185  1.00  0.00    -0.028 A 
HETATM    4  C4  UNL     1       1.807   0.972   0.109  1.00  0.00     0.029 A 
HETATM    5  C5  UNL     1       1.088  -0.517  -0.043  1.00  0.00     0.038 A 
HETATM    6  C6  UNL     1      -0.349  -0.696  -0.139  1.00  0.00     0.151 A 
ENDROOT
BRANCH   1   7
HETATM    7  O1  UNL     1      -2.053   0.364   1.209  1.00  0.00    -0.389 OA
ATOM      8  H1  UNL     1      -2.796  -0.223   1.134  1.00  0.00     0.210 HD
ENDBRANCH   1   7
BRANCH   6   9
HETATM    9  O2  UNL     1      -0.808  -1.570   0.830  1.00  0.00    -0.393 OA
ATOM     10  H2  UNL     1      -0.235  -2.319   0.712  1.00  0.00     0.210 HD
ENDBRANCH   6   9
TORSDOF 2
