REMARK  5 active torsions:
REMARK  status: ('A' for Active; 'I' for Inactive)
REMARK    1  A    between atoms: N1_1  and  S1_4 
REMARK    2  A    between atoms: S1_4  and  C1_7 
REMARK    3  A    between atoms: C4_10  and  N2_11 
REMARK    4  A    between atoms: N2_11  and  C5_13 
REMARK    5  A    between atoms: C5_13  and  N3_15 
ROOT
HETATM    1  N3  UNL     1       0.224  -0.345   0.233  1.00  0.00    -0.266 N 
HETATM    2  C6  UNL     1      -0.026  -1.726  -0.057  1.00  0.00     0.153 C 
HETATM    3  C7  UNL     1      -1.441  -2.142   0.322  1.00  0.00     0.049 C 
HETATM    4  C8  UNL     1      -2.133  -2.914  -0.749  1.00  0.00     0.234 C 
HETATM    5  N4  UNL     1      -2.970  -2.096  -1.612  1.00  0.00    -0.071 N 
ATOM      6  H41 UNL     1      -3.270  -2.613  -2.438  1.00  0.00     0.277 HD
ATOM      7  H42 UNL     1      -2.428  -1.364  -2.071  1.00  0.00     0.277 HD
HETATM    8  C9  UNL     1      -4.083  -1.554  -0.904  1.00  0.00     0.277 C 
HETATM    9  C10 UNL     1      -4.299  -0.071  -1.158  1.00  0.00     0.092 C 
HETATM   10  N5  UNL     1      -4.367   0.604   0.061  1.00  0.00    -0.348 N 
HETATM   11  C11 UNL     1      -5.552   0.570   0.808  1.00  0.00     0.084 C 
HETATM   12  C12 UNL     1      -5.544   1.700   1.816  1.00  0.00     0.159 C 
HETATM   13  N6  UNL     1      -4.347   1.820   2.557  1.00  0.00    -0.413 N 
ATOM     14  H6  UNL     1      -4.336   2.086   3.542  1.00  0.00     0.153 HD
HETATM   15  C13 UNL     1      -3.132   1.536   1.810  1.00  0.00     0.161 C 
HETATM   16  C14 UNL     1      -3.476   1.673   0.328  1.00  0.00     0.205 C 
HETATM   17  N7  UNL     1      -2.429   1.924  -0.530  1.00  0.00    -0.362 N 
ATOM     18  H7  UNL     1      -2.527   2.707  -1.176  1.00  0.00     0.162 HD
HETATM   19  C15 UNL     1      -1.254   1.196  -0.584  1.00  0.00     0.194 C 
HETATM   20  N8  UNL     1      -0.761   0.568   0.598  1.00  0.00    -0.292 N 
ATOM     21  H8  UNL     1      -1.077   0.756   1.549  1.00  0.00     0.188 HD
ENDROOT
BRANCH   1  22
HETATM   22  C5  UNL     1       1.595   0.115   0.134  1.00  0.00     0.193 C 
HETATM   23  S2  UNL     1       1.858   1.660   0.513  1.00  0.00    -0.039 SA
BRANCH  22  24
HETATM   24  N2  UNL     1       2.625  -0.745  -0.229  1.00  0.00    -0.332 N 
ATOM     25  H2  UNL     1       2.373  -1.717  -0.407  1.00  0.00     0.168 HD
BRANCH  24  26
HETATM   26  C4  UNL     1       3.985  -0.403  -0.375  1.00  0.00     0.034 A 
HETATM   27  C3  UNL     1       4.446   0.806  -0.787  1.00  0.00     0.031 A 
HETATM   28  C2  UNL     1       5.814   1.069  -0.872  1.00  0.00     0.027 A 
HETATM   29  C1  UNL     1       6.759   0.132  -0.550  1.00  0.00     0.079 A 
HETATM   30  C17 UNL     1       6.300  -1.095  -0.133  1.00  0.00     0.027 A 
HETATM   31  C16 UNL     1       4.964  -1.356  -0.047  1.00  0.00     0.031 A 
BRANCH  29  32
HETATM   32  S1  UNL     1       8.464   0.494  -0.668  1.00  0.00     0.256 S 
HETATM   33  O1  UNL     1       9.229  -0.750  -0.959  1.00  0.00    -0.201 OA
HETATM   34  O2  UNL     1       8.661   1.538  -1.726  1.00  0.00    -0.201 OA
BRANCH  32  35
HETATM   35  N1  UNL     1       8.994   1.131   0.830  1.00  0.00    -0.324 N 
ATOM     36  H12 UNL     1       9.717   0.714   1.416  1.00  0.00     0.169 HD
ATOM     37  H11 UNL     1       8.470   1.983   1.029  1.00  0.00     0.169 HD
ENDBRANCH  32  35
ENDBRANCH  29  32
ENDBRANCH  24  26
ENDBRANCH  22  24
ENDBRANCH   1  22
TORSDOF 5
