REMARK  7 active torsions:
REMARK  status: ('A' for Active; 'I' for Inactive)
REMARK    1  A    between atoms: N1_2  and  C3_4 
REMARK    2  A    between atoms: N3_8  and  C5_10 
REMARK    3  A    between atoms: C8_13  and  N4_14 
REMARK    4  A    between atoms: C11_22  and  N7_23 
REMARK    5  A    between atoms: N7_23  and  C12_25 
REMARK    6  A    between atoms: C18_39  and  N12_40 
REMARK    7  A    between atoms: C20_47  and  N14_48 
ROOT
HETATM    1  C12 UNL     1       8.084   1.272   0.119  1.00  0.00     0.075 A 
HETATM    2  C13 UNL     1       8.521   1.903   1.251  1.00  0.00     0.049 A 
HETATM    3  C14 UNL     1       9.884   2.076   1.450  1.00  0.00     0.092 A 
HETATM    4  N8  UNL     1      10.772   1.628   0.539  1.00  0.00    -0.351 N 
ATOM      5  H8  UNL     1      11.771   1.760   0.696  1.00  0.00     0.166 HD
HETATM    6  C15 UNL     1      10.347   1.010  -0.572  1.00  0.00     0.122 A 
HETATM    7  N9  UNL     1      11.184   0.582  -1.452  1.00  0.00    -0.384 N 
ATOM      8  H91 UNL     1      10.861   0.112  -2.297  1.00  0.00     0.157 HD
ATOM      9  H92 UNL     1      12.180   0.721  -1.284  1.00  0.00     0.157 HD
HETATM   10  C16 UNL     1       9.002   0.823  -0.799  1.00  0.00     0.115 A 
HETATM   11  C17 UNL     1       8.553   0.161  -2.001  1.00  0.00     0.105 C 
HETATM   12  N10 UNL     1       8.180  -0.381  -2.957  1.00  0.00    -0.191 NA
ENDROOT
BRANCH   1  13
HETATM   13  N7  UNL     1       6.714   1.035  -0.157  1.00  0.00    -0.189 N 
ATOM     14  H7  UNL     1       6.214   1.601  -0.843  1.00  0.00     0.184 HD
BRANCH  13  15
HETATM   15  C11 UNL     1       6.106   0.073   0.489  1.00  0.00     0.698 A 
HETATM   16  N6  UNL     1       6.777  -0.668   1.393  1.00  0.00    -0.187 N 
HETATM   17  C10 UNL     1       6.111  -1.653   2.011  1.00  0.00     0.215 A 
ATOM     18  H6  UNL     1       7.759  -0.485   1.600  1.00  0.00     0.185 HD
HETATM   19  N5  UNL     1       4.833  -1.913   1.760  1.00  0.00    -0.187 N 
HETATM   20  C9  UNL     1       4.175  -1.136   0.827  1.00  0.00     0.694 A 
ATOM     21  H5  UNL     1       4.349  -2.669   2.245  1.00  0.00     0.185 HD
HETATM   22  N4  UNL     1       2.960  -1.410   0.607  1.00  0.00    -0.219 N 
HETATM   23  N11 UNL     1       4.820  -0.146   0.199  1.00  0.00    -0.022 N 
ATOM     24  H4  UNL     1       2.566  -2.184   1.143  1.00  0.00     0.178 HD
ATOM     25  H11 UNL     1       4.338   0.432  -0.490  1.00  0.00     0.203 HD
BRANCH  22  26
HETATM   26  C8  UNL     1       2.084  -0.762  -0.301  1.00  0.00     0.130 C 
HETATM   27  C7  UNL     1       1.287   0.333   0.365  1.00  0.00     0.030 C 
HETATM   28  C6  UNL     1       0.473   1.065  -0.663  1.00  0.00     0.028 C 
HETATM   29  C5  UNL     1      -0.434   0.097  -1.358  1.00  0.00     0.101 C 
HETATM   30  C19 UNL     1      -0.339  -1.278  -0.726  1.00  0.00     0.060 C 
HETATM   31  C18 UNL     1       1.085  -1.789  -0.854  1.00  0.00     0.208 C 
BRANCH  29  32
HETATM   32  N3  UNL     1      -1.748   0.554  -1.439  1.00  0.00    -0.220 N 
HETATM   33  C4  UNL     1      -2.830   0.269  -0.862  1.00  0.00     0.707 A 
HETATM   34  N2  UNL     1      -2.995  -0.657   0.086  1.00  0.00    -0.021 N 
HETATM   35  N13 UNL     1      -3.946   0.953  -1.262  1.00  0.00    -0.021 N 
HETATM   36  C3  UNL     1      -4.181  -0.914   0.626  1.00  0.00     0.708 A 
ATOM     37  H2  UNL     1      -2.183  -1.185   0.406  1.00  0.00     0.203 HD
HETATM   38  N15 UNL     1      -5.247  -0.231   0.215  1.00  0.00    -0.021 N 
HETATM   39  C20 UNL     1      -5.164   0.736  -0.754  1.00  0.00     0.709 A 
ATOM     40  H15 UNL     1      -6.155  -0.433   0.634  1.00  0.00     0.203 HD
ATOM     41  H13 UNL     1      -3.843   1.665  -1.985  1.00  0.00     0.203 HD
ATOM     42  H3  UNL     1      -1.860   1.296  -2.130  1.00  0.00     0.178 HD
BRANCH  36  43
HETATM   43  N1  UNL     1      -4.267  -1.918   1.624  1.00  0.00    -0.225 N 
HETATM   44  C1  UNL     1      -4.152  -1.519   3.003  1.00  0.00     0.168 C 
HETATM   45  C2  UNL     1      -4.461  -3.302   1.284  1.00  0.00     0.168 C 
ENDBRANCH  36  43
BRANCH  39  46
HETATM   46  N14 UNL     1      -6.349   1.393  -1.148  1.00  0.00    -0.217 N 
HETATM   47  C21 UNL     1      -6.633   2.740  -0.801  1.00  0.00     0.141 C 
HETATM   48  C22 UNL     1      -8.078   3.012  -0.530  1.00  0.00     0.020 C 
HETATM   49  C23 UNL     1      -9.046   1.949  -0.825  1.00  0.00     0.003 C 
HETATM   50  C24 UNL     1      -8.544   0.574  -1.073  1.00  0.00     0.020 C 
HETATM   51  C25 UNL     1      -7.314   0.633  -1.940  1.00  0.00     0.141 C 
ENDBRANCH  39  46
ENDBRANCH  29  32
BRANCH  31  52
HETATM   52  N12 UNL     1       1.283  -3.011  -0.110  1.00  0.00    -0.073 N 
ATOM     53 3H12 UNL     1       2.248  -3.340  -0.129  1.00  0.00     0.274 HD
ATOM     54 2H12 UNL     1       1.209  -2.883   0.899  1.00  0.00     0.274 HD
ATOM     55 1H12 UNL     1       0.619  -3.693  -0.477  1.00  0.00     0.274 HD
ENDBRANCH  31  52
ENDBRANCH  22  26
ENDBRANCH  13  15
ENDBRANCH   1  13
TORSDOF 7
