REMARK  2 active torsions:
REMARK  status: ('A' for Active; 'I' for Inactive)
REMARK    1  A    between atoms: C4_6  and  C5_7 
REMARK    2  A    between atoms: C5_7  and  O1_8 
ROOT
HETATM    1  C5  UNL     1      -0.071  -0.206  -0.236  1.00  0.00     0.106 C 
HETATM    2  C6  UNL     1      -0.703  -1.420   0.451  1.00  0.00     0.045 C 
HETATM    3  C7  UNL     1      -2.162  -1.319   0.131  1.00  0.00     0.007 C 
HETATM    4  C8  UNL     1      -2.818  -0.094   0.637  1.00  0.00    -0.018 C 
HETATM    5  C9  UNL     1      -4.021   0.174  -0.276  1.00  0.00     0.010 C 
HETATM    6  C10 UNL     1      -1.995   1.145   0.657  1.00  0.00     0.007 C 
HETATM    7  C11 UNL     1      -0.529   0.981   0.601  1.00  0.00     0.045 C 
ENDROOT
BRANCH   1   8
HETATM    8  C4  UNL     1       1.418  -0.217  -0.154  1.00  0.00     0.086 A 
HETATM    9  N1  UNL     1       2.314  -1.181  -0.147  1.00  0.00    -0.360 N 
HETATM   10  C3  UNL     1       3.572  -0.903  -0.077  1.00  0.00     0.102 A 
ATOM     11  H1  UNL     1       2.012  -2.154  -0.197  1.00  0.00     0.165 HD
HETATM   12  C2  UNL     1       3.942   0.416  -0.012  1.00  0.00    -0.004 A 
HETATM   13  C1  UNL     1       5.274   1.055   0.079  1.00  0.00     0.058 C 
HETATM   14  S1  UNL     1       2.404   1.179  -0.057  1.00  0.00    -0.077 SA
ENDBRANCH   1   8
BRANCH   1  15
HETATM   15  O1  UNL     1      -0.525  -0.125  -1.538  1.00  0.00    -0.383 OA
ATOM     16  H1  UNL     1      -1.474  -0.118  -1.590  1.00  0.00     0.211 HD
ENDBRANCH   1  15
TORSDOF 2
