REMARK  4 active torsions:
REMARK  status: ('A' for Active; 'I' for Inactive)
REMARK    1  A    between atoms: N1_2  and  C2_3 
REMARK    2  A    between atoms: N1_2  and  N2_8 
REMARK    3  A    between atoms: N2_8  and  O1_9 
REMARK    4  A    between atoms: N3_11  and  O2_13 
ROOT
HETATM    1  C1  UNL     1       0.161  -1.865   0.036  1.00  0.00     0.176 C 
HETATM    2  N1  UNL     1      -0.176  -0.494  -0.304  1.00  0.00    -0.273 N 
ENDROOT
BRANCH   2   3
HETATM    3  C2  UNL     1       0.865   0.435  -0.697  1.00  0.00     0.189 C 
HETATM    4  C3  UNL     1       1.819   0.522   0.467  1.00  0.00     0.125 C 
HETATM    5  S1  UNL     1       3.140   1.677   0.020  1.00  0.00    -0.083 SA
HETATM    6  S2  UNL     1       1.955   3.271  -0.830  1.00  0.00    -0.023 SA
HETATM    7  S3  UNL     1       0.164   2.073  -0.972  1.00  0.00    -0.058 SA
ENDBRANCH   2   3
BRANCH   2   8
HETATM    8  N2  UNL     1      -1.527  -0.142  -0.229  1.00  0.00    -0.076 N 
HETATM    9  N3  UNL     1      -2.147   0.392  -1.201  1.00  0.00    -0.168 N 
ATOM     10  H3  UNL     1      -1.622   0.562  -2.059  1.00  0.00     0.220 HD
BRANCH   8  11
HETATM   11  O1  UNL     1      -2.274  -0.355   0.916  1.00  0.00    -0.252 OA
ATOM     12  H1  UNL     1      -3.192  -0.116   0.967  1.00  0.00     0.248 HD
ENDBRANCH   8  11
BRANCH   9  13
HETATM   13  O2  UNL     1      -3.445   0.751  -1.185  1.00  0.00    -0.271 OA
ATOM     14  H2  UNL     1      -3.909   1.150  -1.912  1.00  0.00     0.246 HD
ENDBRANCH   9  13
ENDBRANCH   2   8
TORSDOF 4
