REMARK  2 active torsions:
REMARK  status: ('A' for Active; 'I' for Inactive)
REMARK    1  A    between atoms: C2_2  and  N1_4 
REMARK       I    between atoms: C4_6  and  N3_8 
REMARK    2  A    between atoms: N3_8  and  C5_10 
ROOT
HETATM    1  C5  UNL     1       0.843  -0.054  -1.221  1.00  0.00     0.086 C 
HETATM    2  C6  UNL     1       0.879   1.120  -0.298  1.00  0.00     0.025 C 
HETATM    3  C7  UNL     1       2.132   1.964  -0.575  1.00  0.00     0.002 C 
HETATM    4  C8  UNL     1       3.139   1.696   0.521  1.00  0.00     0.000 C 
HETATM    5  C9  UNL     1       3.642   0.267   0.288  1.00  0.00     0.003 C 
HETATM    6  C10 UNL     1       2.948  -0.659   1.203  1.00  0.00     0.037 C 
HETATM    7  C11 UNL     1       1.840  -1.469   0.646  1.00  0.00     0.172 C 
HETATM    8  F1  UNL     1       0.714  -1.464   1.483  1.00  0.00    -0.249 F 
HETATM    9  C12 UNL     1       1.508  -1.291  -0.779  1.00  0.00     0.062 C 
ENDROOT
BRANCH   1  10
HETATM   10  N3  UNL     1      -0.532  -0.285  -1.602  1.00  0.00    -0.360 N 
HETATM   11  C4  UNL     1      -1.578  -0.569  -0.700  1.00  0.00     0.184 C 
HETATM   12  N1  UNL     1      -2.086   0.287   0.105  1.00  0.00    -0.361 N 
HETATM   13  N2  UNL     1      -2.096  -1.894  -0.692  1.00  0.00    -0.064 NA
ATOM     14  H1  UNL     1      -1.689   1.226   0.070  1.00  0.00     0.162 HD
ATOM     15  H3  UNL     1      -0.762  -0.239  -2.595  1.00  0.00     0.162 HD
BRANCH  12  16
HETATM   16  C2  UNL     1      -3.125   0.090   1.032  1.00  0.00     0.076 C 
HETATM   17  C1  UNL     1      -4.226  -0.815   0.626  1.00  0.00     0.032 C 
HETATM   18  C3  UNL     1      -3.727   1.440   1.433  1.00  0.00     0.032 C 
ENDBRANCH  12  16
ENDBRANCH   1  10
TORSDOF 2
