REMARK  7 active torsions:
REMARK  status: ('A' for Active; 'I' for Inactive)
REMARK    1  A    between atoms: C2_2  and  C3_3 
REMARK    2  A    between atoms: C3_3  and  N1_4 
REMARK    3  A    between atoms: N1_4  and  C4_6 
REMARK    4  A    between atoms: C6_11  and  N3_12 
REMARK    5  A    between atoms: N3_12  and  C7_14 
REMARK    6  A    between atoms: C7_14  and  C8_15 
REMARK    7  A    between atoms: C8_15  and  N4_16 
ROOT
HETATM    1  C4  UNL     1       0.905  -0.336  -0.733  1.00  0.00     0.211 C 
HETATM    2  N2  UNL     1       1.136  -1.248   0.333  1.00  0.00    -0.336 N 
ATOM      3  H2  UNL     1       1.846  -1.963   0.489  1.00  0.00     0.164 HD
HETATM    4  C5  UNL     1       0.026  -0.809   1.104  1.00  0.00     0.245 C 
HETATM    5  O1  UNL     1      -0.373  -1.098   2.255  1.00  0.00    -0.271 OA
HETATM    6  C6  UNL     1      -0.403   0.064   0.019  1.00  0.00     0.212 C 
ENDROOT
BRANCH   6   7
HETATM    7  N3  UNL     1      -1.481  -0.380  -0.830  1.00  0.00    -0.405 N 
ATOM      8  H3  UNL     1      -1.499  -0.134  -1.820  1.00  0.00     0.154 HD
BRANCH   7   9
HETATM    9  C7  UNL     1      -2.505  -1.157  -0.268  1.00  0.00     0.136 C 
BRANCH   9  10
HETATM   10  C8  UNL     1      -3.379  -0.263   0.624  1.00  0.00     0.158 C 
BRANCH  10  11
HETATM   11  N4  UNL     1      -3.921   0.747  -0.244  1.00  0.00    -0.341 N 
HETATM   12  N5  UNL     1      -4.556   0.342  -1.226  1.00  0.00    -0.349 N 
ATOM     13  H52 UNL     1      -4.679  -0.656  -1.396  1.00  0.00     0.176 HD
ATOM     14  H51 UNL     1      -4.941   1.059  -1.842  1.00  0.00     0.176 HD
ATOM     15  H4  UNL     1      -3.789   1.742  -0.061  1.00  0.00     0.179 HD
ENDBRANCH  10  11
ENDBRANCH   9  10
ENDBRANCH   7   9
ENDBRANCH   6   7
BRANCH   1  16
HETATM   16  N1  UNL     1       1.684   0.830  -0.917  1.00  0.00    -0.396 N 
ATOM     17  H1  UNL     1       1.762   1.248  -1.844  1.00  0.00     0.155 HD
BRANCH  16  18
HETATM   18  C3  UNL     1       2.354   1.417   0.179  1.00  0.00     0.142 C 
BRANCH  18  19
HETATM   19  C2  UNL     1       3.681   0.725   0.448  1.00  0.00    -0.018 C 
HETATM   20  C1  UNL     1       4.085  -0.196  -0.415  1.00  0.00     0.008 C 
ENDBRANCH  18  19
ENDBRANCH  16  18
ENDBRANCH   1  16
TORSDOF 7
