REMARK  3 active torsions:
REMARK  status: ('A' for Active; 'I' for Inactive)
REMARK    1  A    between atoms: C4_5  and  C5_6 
REMARK       I    between atoms: C5_6  and  N2_8 
REMARK    2  A    between atoms: N2_8  and  C6_10 
REMARK    3  A    between atoms: C6_10  and  C7_11 
ROOT
HETATM    1  C1  UNL     1       2.787  -1.878   2.648  1.00  0.00     0.222 C 
HETATM    2  N1  UNL     1       2.865  -1.546   1.540  1.00  0.00    -0.458 NA
HETATM    3  C2  UNL     1       2.984  -1.158   0.206  1.00  0.00     0.123 A 
HETATM    4  C3  UNL     1       4.123  -1.796  -0.567  1.00  0.00     0.057 C 
HETATM    5  C4  UNL     1       1.778  -0.843  -0.536  1.00  0.00     0.148 A 
HETATM    6  C11 UNL     1       2.722   0.279  -0.187  1.00  0.00     0.087 A 
HETATM    7  C12 UNL     1       2.482   1.220   0.941  1.00  0.00     0.037 C 
HETATM    8 CL1  UNL     1       3.601   0.938  -1.587  1.00  0.00    -0.115 Cl
ENDROOT
BRANCH   5   9
HETATM    9  C5  UNL     1       0.425  -0.677   0.143  1.00  0.00     0.231 C 
HETATM   10  O1  UNL     1       0.428  -0.366   1.364  1.00  0.00    -0.273 OA
HETATM   11  N2  UNL     1      -0.688  -0.882  -0.645  1.00  0.00    -0.340 N 
ATOM     12  H2  UNL     1      -0.482  -1.147  -1.608  1.00  0.00     0.167 HD
BRANCH  11  13
HETATM   13  C6  UNL     1      -2.048  -0.788  -0.349  1.00  0.00     0.072 C 
BRANCH  13  14
HETATM   14  C7  UNL     1      -2.646   0.511  -0.057  1.00  0.00    -0.019 C 
HETATM   15  C8  UNL     1      -2.125   1.234   1.130  1.00  0.00     0.020 C 
HETATM   16  C9  UNL     1      -4.182   0.419   0.053  1.00  0.00     0.020 C 
HETATM   17  C10 UNL     1      -2.426   1.421  -1.294  1.00  0.00     0.020 C 
ENDBRANCH  13  14
ENDBRANCH  11  13
ENDBRANCH   5   9
TORSDOF 3
