REMARK  7 active torsions:
REMARK  status: ('A' for Active; 'I' for Inactive)
REMARK    1  A    between atoms: C2_2  and  N1_5 
REMARK       I    between atoms: N1_5  and  C5_7 
REMARK       I    between atoms: C5_7  and  N2_9 
REMARK    2  A    between atoms: N2_9  and  C6_11 
REMARK    3  A    between atoms: C7_12  and  C8_13 
REMARK    4  A    between atoms: C8_13  and  C9_14 
REMARK    5  A    between atoms: C9_14  and  N3_15 
REMARK    6  A    between atoms: C11_24  and  C12_25 
REMARK    7  A    between atoms: C15_33  and  C16_34 
ROOT
HETATM    1  C6  UNL     1      -0.722   2.089   0.372  1.00  0.00     0.073 A 
HETATM    2  C7  UNL     1      -1.152   3.217  -0.259  1.00  0.00    -0.006 A 
HETATM    3  C10 UNL     1      -0.004   3.680  -0.940  1.00  0.00     0.098 A 
HETATM    4  N4  UNL     1       1.005   2.835  -0.684  1.00  0.00    -0.362 N 
ATOM      5  H4  UNL     1       1.947   2.947  -1.059  1.00  0.00     0.165 HD
HETATM    6  C11 UNL     1       0.641   1.836   0.113  1.00  0.00     0.089 A 
ENDROOT
BRANCH   6   7
HETATM    7  C12 UNL     1       1.417   0.759   0.711  1.00  0.00     0.089 A 
HETATM    8  N5  UNL     1       1.160   0.054   1.825  1.00  0.00    -0.297 N 
HETATM    9  N6  UNL     1       2.060  -0.896   2.034  1.00  0.00    -0.296 N 
ATOM     10  H5  UNL     1       0.364   0.229   2.439  1.00  0.00     0.187 HD
HETATM   11  C13 UNL     1       2.966  -0.854   1.044  1.00  0.00     0.100 A 
ATOM     12  H6  UNL     1       2.064  -1.550   2.817  1.00  0.00     0.187 HD
HETATM   13  C14 UNL     1       4.087  -1.566   0.725  1.00  0.00     0.158 A 
HETATM   14  C21 UNL     1       2.585   0.189   0.185  1.00  0.00     0.026 A 
HETATM   15  F3  UNL     1       4.452  -2.578   1.566  1.00  0.00    -0.203 F 
HETATM   16  C15 UNL     1       4.888  -1.357  -0.374  1.00  0.00     0.040 A 
HETATM   17  C19 UNL     1       4.495  -0.332  -1.204  1.00  0.00     0.018 A 
HETATM   18  C20 UNL     1       3.352   0.437  -0.929  1.00  0.00     0.017 A 
BRANCH  16  19
HETATM   19  C16 UNL     1       6.071  -2.154  -0.656  1.00  0.00     0.105 A 
HETATM   20  C17 UNL     1       6.905  -1.996  -1.727  1.00  0.00     0.127 A 
HETATM   21  N7  UNL     1       7.864  -2.932  -1.603  1.00  0.00    -0.354 N 
HETATM   22  C18 UNL     1       7.629  -3.635  -0.503  1.00  0.00     0.233 A 
ATOM     23  H7  UNL     1       8.642  -3.077  -2.247  1.00  0.00     0.166 HD
HETATM   24  O2  UNL     1       6.543  -3.144   0.047  1.00  0.00    -0.304 OA
ENDBRANCH  16  19
ENDBRANCH   6   7
BRANCH   1  25
HETATM   25  N2  UNL     1      -1.532   1.235   1.173  1.00  0.00    -0.306 N 
HETATM   26  C5  UNL     1      -2.125   0.049   0.660  1.00  0.00     0.321 C 
HETATM   27  N1  UNL     1      -2.934  -0.799   1.472  1.00  0.00    -0.335 N 
HETATM   28  O1  UNL     1      -1.957  -0.299  -0.534  1.00  0.00    -0.247 OA
ATOM     29  H1  UNL     1      -3.085  -0.538   2.446  1.00  0.00     0.165 HD
ATOM     30  H2  UNL     1      -1.693   1.483   2.149  1.00  0.00     0.171 HD
BRANCH  27  31
HETATM   31  C2  UNL     1      -3.545  -1.999   0.987  1.00  0.00     0.023 C 
HETATM   32  C1  UNL     1      -2.533  -3.002   0.472  1.00  0.00     0.037 C 
HETATM   33  C3  UNL     1      -4.266  -2.673   2.139  1.00  0.00     0.037 C 
HETATM   34  C4  UNL     1      -4.536  -1.620  -0.102  1.00  0.00     0.037 C 
ENDBRANCH  27  31
ENDBRANCH   1  25
BRANCH   2  35
HETATM   35  C8  UNL     1      -2.441   3.924  -0.324  1.00  0.00     0.153 C 
BRANCH  35  36
HETATM   36  C9  UNL     1      -3.462   3.451  -1.276  1.00  0.00     0.405 C 
HETATM   37  F1  UNL     1      -4.448   4.499  -1.284  1.00  0.00    -0.174 F 
HETATM   38  F2  UNL     1      -4.188   2.358  -0.926  1.00  0.00    -0.174 F 
BRANCH  36  39
HETATM   39  N3  UNL     1      -3.008   3.458  -2.661  1.00  0.00    -0.013 N 
ATOM     40  H33 UNL     1      -2.667   4.382  -2.925  1.00  0.00     0.281 HD
ATOM     41  H32 UNL     1      -2.145   2.924  -2.762  1.00  0.00     0.281 HD
ATOM     42  H31 UNL     1      -3.715   3.131  -3.320  1.00  0.00     0.281 HD
ENDBRANCH  36  39
ENDBRANCH  35  36
ENDBRANCH   2  35
TORSDOF 7
