REMARK  3 active torsions:
REMARK  status: ('A' for Active; 'I' for Inactive)
REMARK    1  A    between atoms: C4_4  and  C5_5 
REMARK    2  A    between atoms: C8_8  and  N1_9 
REMARK       I    between atoms: N1_9  and  C9_11 
REMARK       I    between atoms: C9_11  and  N2_13 
REMARK    3  A    between atoms: C13_18  and  C14_19 
ROOT
HETATM    1  N1  UNL     1      -0.171   0.336   0.025  1.00  0.00    -0.321 N 
ATOM      2  H1  UNL     1      -0.153   0.257   1.042  1.00  0.00     0.166 HD
HETATM    3  C9  UNL     1       1.061   0.228  -0.678  1.00  0.00     0.320 C 
HETATM    4  O1  UNL     1       0.989   0.333  -1.928  1.00  0.00    -0.247 OA
HETATM    5  N2  UNL     1       2.302   0.016  -0.024  1.00  0.00    -0.326 N 
HETATM    6  C10 UNL     1       2.431  -0.108   1.400  1.00  0.00     0.153 C 
HETATM    7  C11 UNL     1       3.876   0.153   1.665  1.00  0.00     0.078 A 
HETATM    8 BR1  UNL     1       4.439   1.679   2.671  1.00  0.00    -0.080 Br
HETATM    9  C12 UNL     1       4.633  -0.216   0.401  1.00  0.00     0.074 A 
HETATM   10  C13 UNL     1       3.610  -0.107  -0.632  1.00  0.00     0.115 C 
HETATM   11  C16 UNL     1       4.730  -1.063   1.563  1.00  0.00     0.140 A 
HETATM   12 CL2  UNL     1       3.944  -2.613   1.790  1.00  0.00    -0.099 Cl
HETATM   13 CL3  UNL     1       6.206  -0.919   2.592  1.00  0.00    -0.099 Cl
ENDROOT
BRANCH   1  14
HETATM   14  C8  UNL     1      -1.443   0.551  -0.616  1.00  0.00     0.195 C 
HETATM   15  C4  UNL     1      -2.440  -0.531  -0.440  1.00  0.00     0.033 C 
HETATM   16  C3  UNL     1      -3.871  -0.051  -0.270  1.00  0.00     0.022 C 
HETATM   17  C2  UNL     1      -4.191   1.109  -1.178  1.00  0.00     0.074 C 
HETATM   18  C1  UNL     1      -5.562   1.621  -0.771  1.00  0.00     0.020 C 
HETATM   19  C18 UNL     1      -3.223   2.222  -0.886  1.00  0.00     0.225 C 
HETATM   20  N3  UNL     1      -1.975   1.869  -0.325  1.00  0.00    -0.334 N 
HETATM   21  O2  UNL     1      -3.575   3.396  -1.155  1.00  0.00    -0.273 OA
HETATM   22  C17 UNL     1      -1.313   2.856   0.502  1.00  0.00     0.154 C 
BRANCH  15  23
HETATM   23  C5  UNL     1      -2.197  -1.483   0.710  1.00  0.00    -0.015 C 
HETATM   24  C6  UNL     1      -2.348  -0.863   2.057  1.00  0.00     0.010 C 
HETATM   25  C7  UNL     1      -0.998  -2.362   0.537  1.00  0.00     0.010 C 
ENDBRANCH  15  23
ENDBRANCH   1  14
BRANCH  10  26
HETATM   26  C14 UNL     1       3.687  -1.072  -1.766  1.00  0.00     0.101 C 
HETATM   27  C15 UNL     1       5.136  -1.071  -2.276  1.00  0.00     0.029 C 
HETATM   28 CL1  UNL     1       3.202  -2.705  -1.462  1.00  0.00    -0.123 Cl
ENDBRANCH  10  26
TORSDOF 3
