REMARK  4 active torsions:
REMARK  status: ('A' for Active; 'I' for Inactive)
REMARK    1  A    between atoms: C5_6  and  C6_7 
REMARK    2  A    between atoms: C5_6  and  C11_13 
REMARK    3  A    between atoms: C6_7  and  N2_8 
REMARK    4  A    between atoms: C11_13  and  O1_14 
ROOT
HETATM    1  C1  UNL     1      -1.425   2.772  -2.003  1.00  0.00     0.154 C 
HETATM    2  N1  UNL     1      -1.289   2.006  -0.828  1.00  0.00    -0.377 N 
HETATM    3  C2  UNL     1      -1.342   2.731   0.352  1.00  0.00     0.062 C 
HETATM    4  C3  UNL     1      -1.186   1.940   1.609  1.00  0.00     0.046 C 
HETATM    5  C4  UNL     1      -0.001   1.011   1.376  1.00  0.00     0.025 C 
HETATM    6  C5  UNL     1      -0.258   0.025   0.284  1.00  0.00     0.049 C 
HETATM    7  C16 UNL     1      -0.795   0.717  -0.941  1.00  0.00     0.077 C 
ENDROOT
BRANCH   6   8
HETATM    8  C6  UNL     1       0.972  -0.710  -0.091  1.00  0.00     0.290 C 
BRANCH   8   9
HETATM    9  N2  UNL     1       2.137   0.072  -0.545  1.00  0.00     0.089 N 
HETATM   10  C7  UNL     1       2.980  -0.850  -1.320  1.00  0.00     0.272 C 
HETATM   11  C8  UNL     1       4.383  -0.724  -0.874  1.00  0.00     0.032 C 
HETATM   12  C9  UNL     1       4.337  -0.078   0.460  1.00  0.00     0.032 C 
HETATM   13  C10 UNL     1       2.965   0.466   0.585  1.00  0.00     0.272 C 
ENDBRANCH   8   9
ENDBRANCH   6   8
BRANCH   6  14
HETATM   14  C11 UNL     1      -1.235  -1.030   0.796  1.00  0.00     0.072 C 
HETATM   15  C12 UNL     1      -1.126  -2.379   0.129  1.00  0.00     0.039 C 
HETATM   16  C13 UNL     1      -2.262  -2.523  -0.848  1.00  0.00     0.003 C 
HETATM   17  C14 UNL     1      -3.361  -1.819  -0.084  1.00  0.00     0.003 C 
HETATM   18  C15 UNL     1      -2.651  -0.761   0.771  1.00  0.00     0.039 C 
BRANCH  14  19
HETATM   19  O1  UNL     1      -0.770  -1.293   2.118  1.00  0.00    -0.389 OA
ATOM     20  H1  UNL     1      -1.378  -1.950   2.437  1.00  0.00     0.210 HD
ENDBRANCH  14  19
ENDBRANCH   6  14
TORSDOF 4
