REMARK  2 active torsions:
REMARK  status: ('A' for Active; 'I' for Inactive)
REMARK    1  A    between atoms: N1_6  and  C5_7 
REMARK    2  A    between atoms: C5_7  and  C6_8 
ROOT
HETATM    1  C6  UNL     1      -1.422   0.666  -0.388  1.00  0.00     0.218 C 
HETATM    2  N2  UNL     1      -1.825   1.448   0.754  1.00  0.00    -0.069 N 
ATOM      3  H21 UNL     1      -1.137   2.141   1.048  1.00  0.00     0.277 HD
ATOM      4  H22 UNL     1      -1.842   0.927   1.630  1.00  0.00     0.277 HD
HETATM    5  C7  UNL     1      -3.097   2.006   0.378  1.00  0.00     0.237 C 
HETATM    6  C8  UNL     1      -3.649   1.267  -0.785  1.00  0.00     0.017 C 
HETATM    7  C9  UNL     1      -5.053   0.789  -0.643  1.00  0.00     0.007 C 
HETATM    8  C10 UNL     1      -5.125  -0.187   0.484  1.00  0.00     0.000 C 
HETATM    9  C11 UNL     1      -4.200  -1.334   0.357  1.00  0.00     0.000 C 
HETATM   10  C12 UNL     1      -3.114  -1.202  -0.638  1.00  0.00     0.007 C 
HETATM   11  C13 UNL     1      -2.654   0.155  -0.995  1.00  0.00     0.024 C 
ENDROOT
BRANCH   1  12
HETATM   12  C5  UNL     1      -0.364  -0.341  -0.028  1.00  0.00     0.305 C 
BRANCH  12  13
HETATM   13  N1  UNL     1       0.847   0.338   0.462  1.00  0.00     0.093 N 
HETATM   14  C4  UNL     1       1.637  -0.694   1.109  1.00  0.00     0.304 C 
HETATM   15  C3  UNL     1       3.030  -0.852   0.653  1.00  0.00     0.153 C 
HETATM   16  O1  UNL     1       3.178  -1.575  -0.519  1.00  0.00    -0.384 OA
HETATM   17  C16 UNL     1       3.712   0.466   0.504  1.00  0.00     0.018 C 
HETATM   18  C2  UNL     1       4.497  -2.023  -0.529  1.00  0.00     0.168 C 
HETATM   19  C1  UNL     1       5.480  -0.898  -0.687  1.00  0.00     0.027 C 
HETATM   20  C17 UNL     1       5.147   0.329   0.112  1.00  0.00     0.009 C 
HETATM   21  C15 UNL     1       2.903   1.371  -0.378  1.00  0.00     0.037 C 
HETATM   22  C14 UNL     1       1.555   0.858  -0.712  1.00  0.00     0.273 C 
ENDBRANCH  12  13
ENDBRANCH   1  12
TORSDOF 2
