REMARK  3 active torsions:
REMARK  status: ('A' for Active; 'I' for Inactive)
REMARK    1  A    between atoms: C7_8  and  O1_9 
REMARK    2  A    between atoms: O1_9  and  C8_10 
REMARK    3  A    between atoms: C8_10  and  O2_11 
ROOT
HETATM    1  O1  UNL     1      -0.157  -0.507   0.576  1.00  0.00    -0.317 OA
ENDROOT
BRANCH   1   2
HETATM    2  C7  UNL     1      -1.309  -0.266   0.089  1.00  0.00     0.202 C 
HETATM    3  C4  UNL     1      -2.423  -0.704   1.059  1.00  0.00     0.083 C 
HETATM    4  C3  UNL     1      -3.271   0.580   1.076  1.00  0.00     0.083 C 
HETATM    5  C5  UNL     1      -3.375  -1.489   0.171  1.00  0.00     0.287 C 
HETATM    6  C2  UNL     1      -3.076   0.748  -0.448  1.00  0.00     0.260 C 
HETATM    7  C1  UNL     1      -3.874   1.786  -1.053  1.00  0.00     0.081 C 
HETATM    8  N1  UNL     1      -3.198  -0.592  -1.007  1.00  0.00     0.129 N 
HETATM    9  O3  UNL     1      -1.685   1.010  -0.357  1.00  0.00    -0.313 OA
HETATM   10  C6  UNL     1      -1.771  -0.981  -1.179  1.00  0.00     0.345 C 
ENDBRANCH   1   2
BRANCH   1  11
HETATM   11  C8  UNL     1       1.072  -0.406   0.097  1.00  0.00     0.165 C 
HETATM   12  C9  UNL     1       1.464   1.032  -0.096  1.00  0.00     0.068 C 
HETATM   13  C10 UNL     1       2.599   1.240  -1.062  1.00  0.00     0.005 C 
HETATM   14  C11 UNL     1       3.775   0.357  -0.886  1.00  0.00     0.000 C 
HETATM   15  C12 UNL     1       4.108  -0.015   0.521  1.00  0.00     0.000 C 
HETATM   16  C13 UNL     1       3.328  -1.303   0.806  1.00  0.00     0.005 C 
HETATM   17  C14 UNL     1       1.977  -0.896   1.262  1.00  0.00     0.068 C 
BRANCH  11  18
HETATM   18  O2  UNL     1       1.369  -1.151  -1.037  1.00  0.00    -0.365 OA
ATOM     19  H2  UNL     1       2.252  -1.078  -1.381  1.00  0.00     0.213 HD
ENDBRANCH  11  18
ENDBRANCH   1  11
TORSDOF 3
