REMARK  6 active torsions:
REMARK  status: ('A' for Active; 'I' for Inactive)
REMARK       I    between atoms: C2_2  and  N1_4 
REMARK    1  A    between atoms: N1_4  and  C3_6 
REMARK    2  A    between atoms: C10_13  and  N2_15 
REMARK       I    between atoms: N2_15  and  C12_17 
REMARK    3  A    between atoms: C12_17  and  C13_19 
REMARK    4  A    between atoms: C15_22  and  C16_23 
REMARK       I    between atoms: C16_23  and  N3_25 
REMARK    5  A    between atoms: N3_25  and  C17_27 
REMARK    6  A    between atoms: N5_33  and  S2_34 
ROOT
HETATM    1  C3  UNL     1      -6.160  -1.005  -0.226  1.00  0.00     0.159 C 
HETATM    2  C4  UNL     1      -4.760  -1.557  -0.503  1.00  0.00     0.033 C 
HETATM    3  C5  UNL     1      -4.160  -2.226   0.702  1.00  0.00     0.002 C 
HETATM    4  C6  UNL     1      -2.816  -1.604   1.008  1.00  0.00     0.000 C 
HETATM    5  C7  UNL     1      -1.680  -2.484   0.553  1.00  0.00     0.000 C 
HETATM    6  C8  UNL     1      -0.887  -1.744  -0.508  1.00  0.00     0.002 C 
HETATM    7  C9  UNL     1       0.358  -1.192   0.123  1.00  0.00     0.031 C 
HETATM    8  C10 UNL     1       0.867   0.066  -0.546  1.00  0.00     0.029 C 
HETATM    9  C11 UNL     1       0.572  -0.041  -2.039  1.00  0.00     0.038 C 
HETATM   10  C20 UNL     1       0.171   1.245   0.068  1.00  0.00     0.031 C 
HETATM   11  C21 UNL     1       0.168   2.422  -0.914  1.00  0.00     0.002 C 
HETATM   12  C22 UNL     1      -0.370   3.660  -0.264  1.00  0.00     0.000 C 
HETATM   13  C23 UNL     1      -1.841   3.588   0.041  1.00  0.00     0.001 C 
HETATM   14  C24 UNL     1      -2.662   4.382  -0.943  1.00  0.00     0.012 C 
HETATM   15  C25 UNL     1      -3.373   3.380  -1.855  1.00  0.00     0.094 C 
HETATM   16  C26 UNL     1      -4.441   2.706  -1.217  1.00  0.00    -0.102 C 
HETATM   17  C27 UNL     1      -5.297   2.185  -0.695  1.00  0.00    -0.075 C 
HETATM   18  C28 UNL     1      -6.364   1.561  -0.031  1.00  0.00     0.116 C 
HETATM   19  C29 UNL     1      -5.986   0.239   0.566  1.00  0.00     0.179 C 
HETATM   20  O8  UNL     1      -5.542   0.182   1.687  1.00  0.00    -0.290 OA
ENDROOT
BRANCH   8  21
HETATM   21  N2  UNL     1       2.300   0.084  -0.388  1.00  0.00    -0.350 N 
HETATM   22  C12 UNL     1       2.950   0.077   0.867  1.00  0.00     0.244 C 
HETATM   23  O2  UNL     1       2.253   0.051   1.906  1.00  0.00    -0.271 OA
ATOM     24  H2  UNL     1       2.877   0.103  -1.229  1.00  0.00     0.163 HD
BRANCH  22  25
HETATM   25  C13 UNL     1       4.403   0.097   0.995  1.00  0.00     0.241 C 
HETATM   26  C14 UNL     1       5.048  -1.215   1.258  1.00  0.00     0.182 C 
HETATM   27  O3  UNL     1       4.855  -2.241   1.869  1.00  0.00    -0.293 OA
HETATM   28  C15 UNL     1       6.129  -0.710   0.382  1.00  0.00     0.242 C 
HETATM   29  N5  UNL     1       5.141   0.137  -0.261  1.00  0.00    -0.150 NA
BRANCH  28  30
HETATM   30  C16 UNL     1       6.767  -1.704  -0.500  1.00  0.00     0.250 C 
HETATM   31  O4  UNL     1       6.464  -1.797  -1.705  1.00  0.00    -0.271 OA
HETATM   32  N3  UNL     1       7.745  -2.561   0.062  1.00  0.00    -0.305 N 
ATOM     33  H3  UNL     1       7.477  -3.484   0.403  1.00  0.00     0.171 HD
BRANCH  32  34
HETATM   34  C17 UNL     1       8.999  -2.169   0.146  1.00  0.00     0.150 A 
HETATM   35  N4  UNL     1       9.504  -1.004  -0.251  1.00  0.00    -0.346 N 
HETATM   36  C18 UNL     1      10.776  -0.783  -0.090  1.00  0.00     0.097 A 
ATOM     37  H4  UNL     1       8.904  -0.296  -0.674  1.00  0.00     0.167 HD
HETATM   38  C19 UNL     1      11.527  -1.776   0.486  1.00  0.00     0.070 A 
HETATM   39  S1  UNL     1      10.357  -2.987   0.769  1.00  0.00    -0.064 SA
ENDBRANCH  32  34
ENDBRANCH  28  30
BRANCH  29  40
HETATM   40  S2  UNL     1       5.862   1.696  -0.571  1.00  0.00     0.187 S 
HETATM   41  O5  UNL     1       4.806   2.756  -0.733  1.00  0.00    -0.582 OA
HETATM   42  O6  UNL     1       6.614   1.632  -1.870  1.00  0.00    -0.582 OA
HETATM   43  O7  UNL     1       6.971   2.094   0.622  1.00  0.00    -0.582 OA
ENDBRANCH  29  40
ENDBRANCH  22  25
ENDBRANCH   8  21
BRANCH   1  44
HETATM   44  N1  UNL     1      -7.014  -1.954   0.416  1.00  0.00    -0.350 N 
HETATM   45  C2  UNL     1      -8.173  -2.433  -0.238  1.00  0.00     0.214 C 
HETATM   46  C1  UNL     1      -9.073  -3.434   0.442  1.00  0.00     0.117 C 
HETATM   47  O1  UNL     1      -8.436  -2.011  -1.392  1.00  0.00    -0.274 OA
ATOM     48  H1  UNL     1      -6.786  -2.288   1.352  1.00  0.00     0.163 HD
ENDBRANCH   1  44
TORSDOF 6
