REMARK  5 active torsions:
REMARK  status: ('A' for Active; 'I' for Inactive)
REMARK       I    between atoms: C2_4  and  N2_5 
REMARK       I    between atoms: C2_4  and  N3_10 
REMARK       I    between atoms: N2_5  and  C3_7 
REMARK    1  A    between atoms: N6_33  and  C21_34 
REMARK    2  A    between atoms: C21_34  and  C22_35 
REMARK    3  A    between atoms: C22_35  and  C23_37 
REMARK    4  A    between atoms: C23_37  and  N7_38 
REMARK       I    between atoms: N8_41  and  C26_42 
REMARK       I    between atoms: C26_42  and  N9_44 
REMARK    5  A    between atoms: N9_44  and  C27_46 
ROOT
HETATM    1  C1  UNL     1       0.229  -3.233  -4.190  1.00  0.00     0.165 C 
HETATM    2  N1  UNL     1       0.352  -4.296  -3.284  1.00  0.00    -0.230 N 
ATOM      3  H1  UNL     1       0.881  -5.091  -3.641  1.00  0.00     0.177 HD
HETATM    4  C2  UNL     1      -0.084  -4.448  -2.081  1.00  0.00     0.678 C 
HETATM    5  N2  UNL     1       0.234  -5.669  -1.463  1.00  0.00    -0.160 N 
ATOM      6  H2  UNL     1       0.784  -6.342  -1.997  1.00  0.00     0.187 HD
HETATM    7  C3  UNL     1      -0.149  -6.024  -0.172  1.00  0.00     0.231 C 
HETATM    8  C4  UNL     1       0.248  -7.362   0.392  1.00  0.00     0.118 C 
HETATM    9  O1  UNL     1      -0.817  -5.283   0.561  1.00  0.00    -0.273 OA
HETATM   10  N3  UNL     1      -0.843  -3.411  -1.440  1.00  0.00    -0.216 N 
HETATM   11  C5  UNL     1      -2.236  -3.328  -1.765  1.00  0.00     0.141 C 
HETATM   12  C6  UNL     1      -3.133  -2.842  -0.674  1.00  0.00     0.020 C 
HETATM   13  C7  UNL     1      -3.969  -1.643  -1.074  1.00  0.00     0.002 C 
HETATM   14  C8  UNL     1      -5.407  -1.762  -0.590  1.00  0.00     0.000 C 
HETATM   15  C9  UNL     1      -5.790  -0.544   0.190  1.00  0.00     0.000 C 
HETATM   16  C10 UNL     1      -6.966   0.206  -0.447  1.00  0.00     0.000 C 
HETATM   17  C11 UNL     1      -7.578   1.045   0.628  1.00  0.00     0.000 C 
HETATM   18  C12 UNL     1      -8.299   2.259   0.120  1.00  0.00     0.002 C 
HETATM   19  C13 UNL     1      -7.453   3.166  -0.707  1.00  0.00     0.027 C 
HETATM   20  C14 UNL     1      -7.350   4.565  -0.127  1.00  0.00     0.232 C 
HETATM   21  N4  UNL     1      -6.550   4.576   1.082  1.00  0.00    -0.075 N 
ATOM     22  H41 UNL     1      -6.775   3.783   1.682  1.00  0.00     0.277 HD
ATOM     23  H42 UNL     1      -6.831   5.333   1.705  1.00  0.00     0.277 HD
HETATM   24  C15 UNL     1      -5.132   4.631   0.793  1.00  0.00     0.233 C 
HETATM   25  C16 UNL     1      -4.491   3.415   1.444  1.00  0.00     0.055 C 
HETATM   26  C17 UNL     1      -2.996   3.551   1.520  1.00  0.00     0.233 C 
HETATM   27  N5  UNL     1      -2.394   2.324   1.055  1.00  0.00    -0.075 N 
ATOM     28  H51 UNL     1      -1.537   2.503   0.532  1.00  0.00     0.277 HD
ATOM     29  H52 UNL     1      -2.945   1.896   0.311  1.00  0.00     0.277 HD
HETATM   30  C18 UNL     1      -2.166   1.397   2.150  1.00  0.00     0.234 C 
HETATM   31  C19 UNL     1      -1.275   0.268   1.650  1.00  0.00     0.057 C 
HETATM   32  C20 UNL     1      -0.464   0.761   0.453  1.00  0.00     0.274 C 
HETATM   33  N6  UNL     1       0.436  -0.262   0.032  1.00  0.00     0.097 N 
HETATM   34  C32 UNL     1      -0.065  -1.090  -1.056  1.00  0.00     0.293 C 
HETATM   35  C33 UNL     1      -0.196  -2.507  -0.537  1.00  0.00     0.171 C 
ENDROOT
BRANCH  33  36
HETATM   36  C21 UNL     1       1.718   0.280  -0.422  1.00  0.00     0.352 C 
BRANCH  36  37
HETATM   37  C22 UNL     1       2.514   0.852   0.684  1.00  0.00     0.183 C 
HETATM   38  O2  UNL     1       2.113   0.760   1.818  1.00  0.00    -0.294 OA
BRANCH  37  39
HETATM   39  C23 UNL     1       3.794   1.534   0.405  1.00  0.00     0.352 C 
BRANCH  39  40
HETATM   40  N7  UNL     1       4.511   1.744   1.648  1.00  0.00     0.098 N 
HETATM   41  C24 UNL     1       5.653   2.583   1.423  1.00  0.00     0.293 C 
HETATM   42  C25 UNL     1       6.602   1.945   0.473  1.00  0.00     0.158 C 
HETATM   43  N8  UNL     1       7.021   0.685   1.032  1.00  0.00    -0.331 N 
HETATM   44  C26 UNL     1       8.155   0.037   0.468  1.00  0.00     0.318 C 
HETATM   45  C30 UNL     1       6.320   0.113   2.131  1.00  0.00     0.158 C 
HETATM   46  O3  UNL     1       8.542  -1.076   0.921  1.00  0.00    -0.247 OA
HETATM   47  N9  UNL     1       8.853   0.636  -0.598  1.00  0.00    -0.339 N 
ATOM     48  H9  UNL     1       8.536   1.534  -0.962  1.00  0.00     0.164 HD
HETATM   49  C31 UNL     1       4.883   0.476   2.253  1.00  0.00     0.293 C 
BRANCH  47  50
HETATM   50  C27 UNL     1      10.004   0.004  -1.182  1.00  0.00     0.078 C 
HETATM   51  C28 UNL     1       9.794  -0.167  -2.652  1.00  0.00     0.032 C 
HETATM   52  C29 UNL     1      11.253   0.845  -0.974  1.00  0.00     0.032 C 
ENDBRANCH  47  50
ENDBRANCH  39  40
ENDBRANCH  37  39
ENDBRANCH  36  37
ENDBRANCH  33  36
TORSDOF 5
