REMARK  5 active torsions:
REMARK  status: ('A' for Active; 'I' for Inactive)
REMARK    1  A    between atoms: S1_2  and  C2_3 
REMARK    2  A    between atoms: C4_8  and  N2_9 
REMARK    3  A    between atoms: N3_12  and  C7_13 
REMARK    4  A    between atoms: C11_17  and  C12_18 
REMARK    5  A    between atoms: C13_22  and  C14_23 
ROOT
HETATM    1  C2  UNL     1      -3.403   1.732   1.556  1.00  0.00     0.147 A 
HETATM    2  N1  UNL     1      -2.361   2.335   2.140  1.00  0.00    -0.302 N 
ATOM      3  H1  UNL     1      -2.497   3.111   2.788  1.00  0.00     0.171 HD
HETATM    4  C3  UNL     1      -1.146   1.891   1.848  1.00  0.00     0.276 A 
HETATM    5  O1  UNL     1      -0.137   2.412   2.371  1.00  0.00    -0.266 OA
HETATM    6  C4  UNL     1      -0.947   0.803   0.936  1.00  0.00     0.123 A 
HETATM    7  C13 UNL     1      -2.009   0.181   0.339  1.00  0.00     0.051 A 
HETATM    8  N4  UNL     1      -3.229   0.726   0.717  1.00  0.00    -0.337 N 
ATOM      9  H4  UNL     1      -4.068   0.312   0.310  1.00  0.00     0.168 HD
ENDROOT
BRANCH   6  10
HETATM   10  N2  UNL     1       0.381   0.472   0.642  1.00  0.00    -0.359 N 
HETATM   11  C5  UNL     1       1.076  -0.435   1.576  1.00  0.00     0.143 C 
HETATM   12  C6  UNL     1       2.175  -1.222   0.900  1.00  0.00     0.137 C 
HETATM   13  N3  UNL     1       3.203  -0.330   0.491  1.00  0.00    -0.405 N 
HETATM   14  C10 UNL     1       2.712   0.919   0.070  1.00  0.00     0.151 C 
HETATM   15  C11 UNL     1       1.234   0.890  -0.424  1.00  0.00     0.210 C 
BRANCH  13  16
HETATM   16  C7  UNL     1       4.237  -0.911  -0.286  1.00  0.00     0.071 C 
HETATM   17  C8  UNL     1       3.835  -1.483  -1.604  1.00  0.00     0.031 C 
HETATM   18  C9  UNL     1       4.963  -1.974   0.518  1.00  0.00     0.031 C 
ENDBRANCH  13  16
BRANCH  15  19
HETATM   19  C12 UNL     1       1.063   2.177  -1.104  1.00  0.00     0.409 C 
HETATM   20  F1  UNL     1       1.198   3.324  -0.390  1.00  0.00    -0.169 F 
HETATM   21  F2  UNL     1      -0.053   2.283  -1.949  1.00  0.00    -0.169 F 
HETATM   22  F3  UNL     1       2.114   2.249  -2.051  1.00  0.00    -0.169 F 
ENDBRANCH  15  19
ENDBRANCH   6  10
BRANCH   7  23
HETATM   23  C14 UNL     1      -1.994  -0.942  -0.553  1.00  0.00    -0.006 C 
HETATM   24  C15 UNL     1      -1.400  -2.244  -0.007  1.00  0.00     0.021 C 
HETATM   25  C16 UNL     1      -3.501  -1.395  -0.712  1.00  0.00     0.021 C 
HETATM   26  C17 UNL     1      -1.651  -0.819  -1.980  1.00  0.00     0.021 C 
ENDBRANCH   7  23
BRANCH   1  27
HETATM   27  S1  UNL     1      -5.094   2.287   1.906  1.00  0.00    -0.098 SA
HETATM   28  C1  UNL     1      -5.555   3.590   0.701  1.00  0.00     0.099 C 
ENDBRANCH   1  27
TORSDOF 5
