REMARK  11 active torsions:
REMARK  status: ('A' for Active; 'I' for Inactive)
REMARK    1  A    between atoms: C2_2  and  C3_3 
REMARK    2  A    between atoms: C3_3  and  C4_4 
REMARK    3  A    between atoms: C4_4  and  N1_5 
REMARK    4  A    between atoms: N1_5  and  C5_7 
REMARK    5  A    between atoms: C6_10  and  N3_11 
REMARK    6  A    between atoms: C8_19  and  C9_20 
REMARK    7  A    between atoms: C11_24  and  N7_25 
REMARK    8  A    between atoms: C12_30  and  O1_31 
REMARK    9  A    between atoms: O1_31  and  C13_32 
REMARK   10  A    between atoms: C13_32  and  C14_33 
REMARK   11  A    between atoms: C14_33  and  C15_34 
ROOT
HETATM    1  C5  UNL     1       2.693   0.669   0.278  1.00  0.00     0.147 A 
HETATM    2  N2  UNL     1       3.013   1.959   0.486  1.00  0.00    -0.175 N 
ATOM      3  H2  UNL     1       3.987   2.263   0.475  1.00  0.00     0.186 HD
HETATM    4  C6  UNL     1       2.021   2.838   0.708  1.00  0.00     0.679 A 
HETATM    5  N4  UNL     1       0.737   2.441   0.723  1.00  0.00    -0.174 N 
ATOM      6  H4  UNL     1       0.008   3.133   0.895  1.00  0.00     0.186 HD
HETATM    7  C7  UNL     1       0.382   1.153   0.517  1.00  0.00     0.153 A 
HETATM    8  N5  UNL     1      -0.798   0.497   0.479  1.00  0.00    -0.325 N 
ATOM      9  H5  UNL     1      -1.714   0.925   0.616  1.00  0.00     0.169 HD
HETATM   10  C8  UNL     1      -0.582  -0.801   0.234  1.00  0.00     0.123 A 
HETATM   11  N9  UNL     1       0.755  -0.942   0.120  1.00  0.00    -0.335 N 
ATOM     12  H9  UNL     1       1.231  -1.824  -0.068  1.00  0.00     0.168 HD
HETATM   13  C17 UNL     1       1.374   0.242   0.289  1.00  0.00     0.123 A 
ENDROOT
BRANCH  10  14
HETATM   14  C9  UNL     1      -1.582  -1.864   0.111  1.00  0.00     0.075 A 
HETATM   15  C10 UNL     1      -1.193  -3.142  -0.142  1.00  0.00     0.125 A 
HETATM   16  N6  UNL     1      -2.111  -4.117  -0.254  1.00  0.00    -0.201 N 
HETATM   17  C11 UNL     1      -3.412  -3.793  -0.110  1.00  0.00     0.677 A 
ATOM     18  H6  UNL     1      -1.830  -5.079  -0.443  1.00  0.00     0.183 HD
HETATM   19  N8  UNL     1      -3.804  -2.533   0.140  1.00  0.00    -0.170 N 
HETATM   20  C12 UNL     1      -2.917  -1.530   0.259  1.00  0.00     0.172 A 
ATOM     21  H8  UNL     1      -4.799  -2.332   0.242  1.00  0.00     0.186 HD
BRANCH  17  22
HETATM   22  N7  UNL     1      -4.275  -4.759  -0.224  1.00  0.00    -0.234 N 
ATOM     23  H72 UNL     1      -3.977  -5.716  -0.414  1.00  0.00     0.174 HD
ATOM     24  H71 UNL     1      -5.259  -4.514  -0.115  1.00  0.00     0.174 HD
ENDBRANCH  17  22
BRANCH  20  25
HETATM   25  O1  UNL     1      -3.250  -0.220   0.514  1.00  0.00    -0.335 OA
BRANCH  25  26
HETATM   26  C13 UNL     1      -4.535   0.298   0.690  1.00  0.00     0.177 C 
BRANCH  26  27
HETATM   27  C14 UNL     1      -5.452   0.129  -0.479  1.00  0.00     0.026 C 
BRANCH  27  28
HETATM   28  C15 UNL     1      -6.824   0.719  -0.211  1.00  0.00    -0.002 C 
HETATM   29  C16 UNL     1      -6.755   2.195   0.082  1.00  0.00     0.005 C 
ENDBRANCH  27  28
ENDBRANCH  26  27
ENDBRANCH  25  26
ENDBRANCH  20  25
ENDBRANCH  10  14
BRANCH   1  30
HETATM   30  N1  UNL     1       3.598  -0.200   0.063  1.00  0.00    -0.374 N 
ATOM     31  H1  UNL     1       3.278  -1.157  -0.086  1.00  0.00     0.161 HD
BRANCH  30  32
HETATM   32  C4  UNL     1       5.005   0.010   0.007  1.00  0.00     0.121 C 
BRANCH  32  33
HETATM   33  C3  UNL     1       5.471   0.586  -1.312  1.00  0.00     0.019 C 
BRANCH  33  34
HETATM   34  C2  UNL     1       6.974   0.791  -1.324  1.00  0.00    -0.003 C 
HETATM   35  C1  UNL     1       7.727  -0.482  -1.115  1.00  0.00     0.005 C 
ENDBRANCH  33  34
ENDBRANCH  32  33
ENDBRANCH  30  32
ENDBRANCH   1  30
BRANCH   4  36
HETATM   36  N3  UNL     1       2.336   4.084   0.909  1.00  0.00    -0.234 N 
ATOM     37  H32 UNL     1       3.310   4.385   0.898  1.00  0.00     0.174 HD
ATOM     38  H31 UNL     1       1.583   4.751   1.077  1.00  0.00     0.174 HD
ENDBRANCH   4  36
TORSDOF 11
