REMARK  12 active torsions:
REMARK  status: ('A' for Active; 'I' for Inactive)
REMARK    1  A    between atoms: N1_2  and  C2_4 
REMARK    2  A    between atoms: C3_7  and  C4_8 
REMARK    3  A    between atoms: C4_8  and  N3_9 
REMARK    4  A    between atoms: N3_9  and  C5_11 
REMARK    5  A    between atoms: C5_11  and  C6_12 
REMARK    6  A    between atoms: C5_11  and  C7_15 
REMARK    7  A    between atoms: C7_15  and  N4_16 
REMARK    8  A    between atoms: C7_15  and  C8_20 
REMARK    9  A    between atoms: C8_20  and  C9_21 
REMARK   10  A    between atoms: C9_21  and  S1_22 
REMARK   11  A    between atoms: S1_22  and  C10_23 
REMARK   12  A    between atoms: C16_31  and  O3_32 
ROOT
HETATM    1  C5  UNL     1       0.674   0.483  -1.542  1.00  0.00     0.213 C 
ENDROOT
BRANCH   1   2
HETATM    2  N3  UNL     1       2.005   0.626  -1.055  1.00  0.00    -0.380 N 
ATOM      3  H3  UNL     1       2.406   1.544  -1.247  1.00  0.00     0.160 HD
BRANCH   2   4
HETATM    4  C4  UNL     1       2.780  -0.129  -0.447  1.00  0.00     0.133 C 
BRANCH   4   5
HETATM    5  C3  UNL     1       4.118   0.350  -0.087  1.00  0.00     0.124 A 
HETATM    6  N2  UNL     1       5.089  -0.320   0.568  1.00  0.00    -0.324 N 
HETATM    7  C2  UNL     1       6.182   0.430   0.722  1.00  0.00     0.154 A 
ATOM      8  H2  UNL     1       4.999  -1.279   0.903  1.00  0.00     0.169 HD
HETATM    9  C16 UNL     1       5.871   1.648   0.122  1.00  0.00     0.186 A 
HETATM   10  N5  UNL     1       4.618   1.568  -0.357  1.00  0.00    -0.319 N 
ATOM     11  H5  UNL     1       4.124   2.314  -0.848  1.00  0.00     0.169 HD
BRANCH   7  12
HETATM   12  N1  UNL     1       7.416   0.112   1.349  1.00  0.00    -0.377 N 
HETATM   13  C1  UNL     1       7.599  -1.181   1.926  1.00  0.00     0.148 C 
ATOM     14  H1  UNL     1       8.166   0.802   1.387  1.00  0.00     0.160 HD
ENDBRANCH   7  12
BRANCH   9  15
HETATM   15  O3  UNL     1       6.707   2.767   0.028  1.00  0.00    -0.343 OA
ATOM     16  H3  UNL     1       6.495   3.598  -0.381  1.00  0.00     0.219 HD
ENDBRANCH   9  15
ENDBRANCH   4   5
ENDBRANCH   2   4
ENDBRANCH   1   2
BRANCH   1  17
HETATM   17  C6  UNL     1      -0.042   1.774  -1.597  1.00  0.00     0.198 C 
HETATM   18  O1  UNL     1       0.480   2.832  -1.108  1.00  0.00    -0.646 OA
HETATM   19  O2  UNL     1      -1.278   1.897  -2.167  1.00  0.00    -0.646 OA
ENDBRANCH   1  17
BRANCH   1  20
HETATM   20  C7  UNL     1      -0.030  -0.571  -0.718  1.00  0.00     0.217 C 
BRANCH  20  21
HETATM   21  N4  UNL     1      -0.075  -0.203   0.659  1.00  0.00    -0.072 N 
ATOM     22  H43 UNL     1       0.856  -0.001   1.024  1.00  0.00     0.274 HD
ATOM     23  H42 UNL     1      -0.496   0.717   0.788  1.00  0.00     0.274 HD
ATOM     24  H41 UNL     1      -0.550  -0.914   1.215  1.00  0.00     0.274 HD
ENDBRANCH  20  21
BRANCH  20  25
HETATM   25  C8  UNL     1      -1.341  -1.034  -1.294  1.00  0.00     0.045 C 
BRANCH  25  26
HETATM   26  C9  UNL     1      -1.935  -2.081  -0.382  1.00  0.00     0.076 C 
BRANCH  26  27
HETATM   27  S1  UNL     1      -2.330  -1.458   1.195  1.00  0.00    -0.164 SA
BRANCH  27  28
HETATM   28  C10 UNL     1      -3.747  -0.402   1.405  1.00  0.00     0.047 C 
HETATM   29  C11 UNL     1      -3.736   0.925   0.758  1.00  0.00     0.015 C 
HETATM   30  C12 UNL     1      -4.634   1.161  -0.393  1.00  0.00     0.001 C 
HETATM   31  C13 UNL     1      -5.874   0.367  -0.485  1.00  0.00     0.000 C 
HETATM   32  C14 UNL     1      -5.747  -1.056  -0.011  1.00  0.00     0.001 C 
HETATM   33  C15 UNL     1      -5.057  -1.158   1.318  1.00  0.00     0.015 C 
ENDBRANCH  27  28
ENDBRANCH  26  27
ENDBRANCH  25  26
ENDBRANCH  20  25
ENDBRANCH   1  20
TORSDOF 12
