REMARK  7 active torsions:
REMARK  status: ('A' for Active; 'I' for Inactive)
REMARK    1  A    between atoms: C2_2  and  C4_4 
REMARK    2  A    between atoms: C4_4  and  O1_5 
REMARK    3  A    between atoms: O1_5  and  C5_6 
REMARK       I    between atoms: C5_6  and  N1_8 
REMARK    4  A    between atoms: C8_11  and  O3_12 
REMARK    5  A    between atoms: C9_14  and  N2_15 
REMARK       I    between atoms: N2_15  and  C10_16 
REMARK    6  A    between atoms: C10_16  and  O5_18 
REMARK    7  A    between atoms: O5_18  and  C11_19 
ROOT
HETATM    1  C5  UNL     1       2.749  -1.428   0.412  1.00  0.00     0.362 C 
HETATM    2  O2  UNL     1       3.341  -2.499   0.683  1.00  0.00    -0.238 OA
HETATM    3  N1  UNL     1       1.359  -1.264   0.602  1.00  0.00    -0.325 N 
HETATM    4  C6  UNL     1       0.587  -2.414   1.040  1.00  0.00     0.131 C 
HETATM    5  C7  UNL     1      -0.063  -2.056   2.339  1.00  0.00     0.055 C 
HETATM    6  C8  UNL     1       0.083  -0.596   2.650  1.00  0.00     0.157 C 
HETATM    7  C9  UNL     1      -0.355   0.291   1.469  1.00  0.00     0.216 C 
HETATM    8  C15 UNL     1       0.690   0.011   0.397  1.00  0.00     0.170 C 
ENDROOT
BRANCH   7   9
HETATM    9  N2  UNL     1      -1.621   0.215   0.995  1.00  0.00    -0.381 NA
HETATM   10  C10 UNL     1      -2.913   0.136   0.512  1.00  0.00     0.435 C 
HETATM   11  O4  UNL     1      -3.880  -0.435   1.065  1.00  0.00    -0.221 OA
BRANCH  10  12
HETATM   12  O5  UNL     1      -3.279   0.733  -0.717  1.00  0.00    -0.283 OA
BRANCH  12  13
HETATM   13  C11 UNL     1      -4.528   0.724  -1.301  1.00  0.00     0.062 C 
HETATM   14  C12 UNL     1      -4.562   1.481  -2.634  1.00  0.00     0.046 C 
HETATM   15  C13 UNL     1      -5.501   1.481  -0.398  1.00  0.00     0.046 C 
HETATM   16  C14 UNL     1      -5.081  -0.642  -1.542  1.00  0.00     0.046 C 
ENDBRANCH  12  13
ENDBRANCH  10  12
ENDBRANCH   7   9
BRANCH   6  17
HETATM   17  O3  UNL     1      -0.579  -0.244   3.804  1.00  0.00    -0.392 OA
ATOM     18  H3  UNL     1      -0.487   0.681   4.001  1.00  0.00     0.210 HD
ENDBRANCH   6  17
BRANCH   1  19
HETATM   19  O1  UNL     1       3.525  -0.376  -0.102  1.00  0.00    -0.304 OA
BRANCH  19  20
HETATM   20  C4  UNL     1       4.919  -0.511  -0.286  1.00  0.00     0.184 C 
BRANCH  20  21
HETATM   21  C2  UNL     1       5.434   0.739  -0.956  1.00  0.00     0.002 C 
HETATM   22  C1  UNL     1       5.133   1.941  -0.122  1.00  0.00     0.011 C 
HETATM   23  C3  UNL     1       4.779   0.813  -2.332  1.00  0.00     0.011 C 
ENDBRANCH  20  21
ENDBRANCH  19  20
ENDBRANCH   1  19
TORSDOF 7
