REMARK  1 active torsions:
REMARK  status: ('A' for Active; 'I' for Inactive)
REMARK    1  A    between atoms: C5_6  and  O2_7 
ROOT
HETATM    1  C1  UNL     1      -1.551   0.101   1.270  1.00  0.00     0.046 C 
HETATM    2  C2  UNL     1      -0.639  -0.464   0.188  1.00  0.00     0.066 C 
HETATM    3  C3  UNL     1      -1.400  -0.906  -1.021  1.00  0.00     0.046 C 
HETATM    4  O1  UNL     1       0.189  -1.430   0.768  1.00  0.00    -0.371 OA
HETATM    5  C4  UNL     1       1.225  -0.502   0.706  1.00  0.00     0.166 A 
HETATM    6  C5  UNL     1       1.762  -0.225  -0.668  1.00  0.00     0.161 A 
HETATM    7  C6  UNL     1       0.518   0.409  -0.187  1.00  0.00     0.043 A 
HETATM    8  C7  UNL     1       0.438   1.880  -0.004  1.00  0.00     0.024 C 
ENDROOT
BRANCH   6   9
HETATM    9  O2  UNL     1       1.706  -1.330  -1.530  1.00  0.00    -0.392 OA
ATOM     10  H2  UNL     1       2.046  -1.155  -2.400  1.00  0.00     0.210 HD
ENDBRANCH   6   9
TORSDOF 1
