REMARK  1 active torsions:
REMARK  status: ('A' for Active; 'I' for Inactive)
REMARK    1  A    between atoms: N1_5  and  N2_7 
ROOT
HETATM    1  C1  UNL     1      -0.803   2.400  -0.499  1.00  0.00     0.038 C 
HETATM    2  C2  UNL     1      -0.653   1.110  -0.349  1.00  0.00     0.000 C 
HETATM    3  C3  UNL     1       0.447   0.443  -1.136  1.00  0.00     0.109 C 
HETATM    4  C4  UNL     1       1.042  -0.573  -0.229  1.00  0.00     0.009 C 
HETATM    5  N1  UNL     1       2.130  -0.295   0.371  1.00  0.00    -0.315 N 
ATOM      6  H1  UNL     1       2.568  -0.967   1.002  1.00  0.00     0.185 HD
HETATM    7  C5  UNL     1       0.452  -1.918   0.039  1.00  0.00     0.056 C 
HETATM    8  C6  UNL     1      -1.054  -1.798   0.139  1.00  0.00     0.025 C 
HETATM    9  C7  UNL     1      -1.354  -0.775   1.219  1.00  0.00     0.119 C 
HETATM   10  N3  UNL     1      -1.564   0.497   0.554  1.00  0.00    -0.393 N 
ATOM     11  H3  UNL     1      -2.435   0.991   0.750  1.00  0.00     0.159 HD
ENDROOT
BRANCH   5  12
HETATM   12  N2  UNL     1       2.708   0.957   0.141  1.00  0.00    -0.345 N 
ATOM     13  H22 UNL     1       2.258   1.618  -0.493  1.00  0.00     0.176 HD
ATOM     14  H21 UNL     1       3.580   1.180   0.622  1.00  0.00     0.176 HD
ENDBRANCH   5  12
TORSDOF 1
