REMARK  18 active torsions:
REMARK  status: ('A' for Active; 'I' for Inactive)
REMARK    1  A    between atoms: C2_2  and  N1_3 
REMARK    2  A    between atoms: N1_3  and  C3_4 
REMARK    3  A    between atoms: N1_3  and  C12_13 
REMARK    4  A    between atoms: C3_4  and  C4_5 
REMARK    5  A    between atoms: C4_5  and  C5_6 
REMARK    6  A    between atoms: C12_13  and  C13_14 
REMARK    7  A    between atoms: C13_14  and  C14_15 
REMARK    8  A    between atoms: C14_15  and  C16_17 
REMARK    9  A    between atoms: N2_18  and  C17_20 
REMARK   10  A    between atoms: C17_20  and  C18_21 
REMARK   11  A    between atoms: C17_20  and  C19_24 
REMARK   12  A    between atoms: C18_21  and  O1_22 
REMARK   13  A    between atoms: C19_24  and  C20_25 
REMARK   14  A    between atoms: C22_27  and  O2_28 
REMARK   15  A    between atoms: C23_30  and  O3_31 
REMARK   16  A    between atoms: C24_33  and  O4_34 
REMARK   17  A    between atoms: C25_36  and  C26_37 
REMARK   18  A    between atoms: C26_37  and  O5_38 
ROOT
HETATM    1  C17 UNL     1      -3.160  -0.043   1.068  1.00  0.00     0.010 C 
ENDROOT
BRANCH   1   2
HETATM    2  N2  UNL     1      -2.428  -0.179  -0.096  1.00  0.00    -0.374 N 
HETATM    3  C16 UNL     1      -1.123  -0.327  -0.414  1.00  0.00     0.065 C 
ATOM      4  H2  UNL     1      -3.023  -0.164  -0.924  1.00  0.00     0.164 HD
BRANCH   3   5
HETATM    5  C14 UNL     1      -0.028   0.653  -0.366  1.00  0.00     0.021 C 
HETATM    6  C15 UNL     1       0.282   1.378   0.898  1.00  0.00     0.015 C 
BRANCH   5   7
HETATM    7  C13 UNL     1       1.290   0.007  -0.888  1.00  0.00     0.029 C 
BRANCH   7   8
HETATM    8  C12 UNL     1       1.868  -0.956   0.091  1.00  0.00     0.117 C 
BRANCH   8   9
HETATM    9  N1  UNL     1       3.055  -1.543  -0.418  1.00  0.00    -0.412 N 
BRANCH   9  10
HETATM   10  C2  UNL     1       3.640  -2.559   0.419  1.00  0.00     0.112 C 
HETATM   11  C1  UNL     1       2.501  -3.409   0.981  1.00  0.00     0.026 C 
ENDBRANCH   9  10
BRANCH   9  12
HETATM   12  C3  UNL     1       4.019  -0.685  -1.016  1.00  0.00     0.120 C 
BRANCH  12  13
HETATM   13  C4  UNL     1       4.753   0.196  -0.024  1.00  0.00     0.047 C 
BRANCH  13  14
HETATM   14  C5  UNL     1       5.757   1.056  -0.733  1.00  0.00    -0.022 C 
HETATM   15  C6  UNL     1       7.058   0.977  -0.518  1.00  0.00    -0.084 C 
HETATM   16  C7  UNL     1       7.737   0.076   0.412  1.00  0.00     0.034 C 
HETATM   17  C11 UNL     1       7.950   1.909  -1.304  1.00  0.00     0.034 C 
HETATM   18  C8  UNL     1       9.020   0.635   1.000  1.00  0.00     0.004 C 
HETATM   19  C9  UNL     1       9.906   1.319   0.025  1.00  0.00     0.001 C 
HETATM   20  C10 UNL     1       9.345   1.323  -1.363  1.00  0.00     0.004 C 
ENDBRANCH  13  14
ENDBRANCH  12  13
ENDBRANCH   9  12
ENDBRANCH   8   9
ENDBRANCH   7   8
ENDBRANCH   5   7
ENDBRANCH   3   5
ENDBRANCH   1   2
BRANCH   1  21
HETATM   21  C18 UNL     1      -3.032   1.129   1.918  1.00  0.00     0.216 C 
BRANCH  21  22
HETATM   22  O1  UNL     1      -3.951   0.967   3.033  1.00  0.00    -0.395 OA
ATOM     23  H1  UNL     1      -3.867   1.733   3.589  1.00  0.00     0.209 HD
ENDBRANCH  21  22
ENDBRANCH   1  21
BRANCH   1  24
HETATM   24  C19 UNL     1      -4.564  -0.627   0.956  1.00  0.00     0.060 C 
BRANCH  24  25
HETATM   25  C20 UNL     1      -5.442  -0.111  -0.109  1.00  0.00     0.002 C 
HETATM   26  C21 UNL     1      -5.746   1.336  -0.055  1.00  0.00     0.039 C 
HETATM   27  C22 UNL     1      -7.217   1.713  -0.093  1.00  0.00     0.149 C 
HETATM   28  C23 UNL     1      -7.997   1.036  -1.173  1.00  0.00     0.176 C 
HETATM   29  C24 UNL     1      -7.523  -0.389  -1.370  1.00  0.00     0.155 C 
HETATM   30  C25 UNL     1      -6.786  -0.854  -0.129  1.00  0.00     0.045 C 
BRANCH  27  31
HETATM   31  O2  UNL     1      -7.841   1.613   1.144  1.00  0.00    -0.393 OA
ATOM     32  H2  UNL     1      -8.761   1.849   1.120  1.00  0.00     0.210 HD
ENDBRANCH  27  31
BRANCH  28  33
HETATM   33  O3  UNL     1      -8.052   1.770  -2.346  1.00  0.00    -0.390 OA
ATOM     34  H3  UNL     1      -8.548   1.340  -3.033  1.00  0.00     0.210 HD
ENDBRANCH  28  33
BRANCH  29  35
HETATM   35  O4  UNL     1      -8.580  -1.254  -1.615  1.00  0.00    -0.392 OA
ATOM     36  H4  UNL     1      -8.283  -2.148  -1.739  1.00  0.00     0.210 HD
ENDBRANCH  29  35
BRANCH  30  37
HETATM   37  C26 UNL     1      -6.579  -2.341  -0.321  1.00  0.00     0.171 C 
BRANCH  37  38
HETATM   38  O5  UNL     1      -5.938  -2.663  -1.497  1.00  0.00    -0.400 OA
ATOM     39  H5  UNL     1      -5.808  -3.596  -1.618  1.00  0.00     0.209 HD
ENDBRANCH  37  38
ENDBRANCH  30  37
ENDBRANCH  24  25
ENDBRANCH   1  24
TORSDOF 18
