REMARK  3 active torsions:
REMARK  status: ('A' for Active; 'I' for Inactive)
REMARK    1  A    between atoms: C2_3  and  C3_4 
REMARK    2  A    between atoms: C3_4  and  S1_5 
REMARK    3  A    between atoms: S1_5  and  C4_6 
ROOT
HETATM    1  C1  UNL     1      -2.521  -0.517  -1.171  1.00  0.00     0.173 C 
HETATM    2  O1  UNL     1      -1.282  -0.581  -1.715  1.00  0.00    -0.379 OA
HETATM    3  C2  UNL     1      -0.228  -0.663  -0.749  1.00  0.00     0.073 C 
HETATM    4  C5  UNL     1      -0.628  -1.731   0.252  1.00  0.00     0.044 C 
HETATM    5  C6  UNL     1      -1.104  -0.973   1.453  1.00  0.00    -0.011 C 
HETATM    6  C7  UNL     1      -2.425  -0.294   1.311  1.00  0.00     0.011 C 
HETATM    7  C8  UNL     1      -2.524   0.458  -0.016  1.00  0.00     0.010 C 
HETATM    8  C9  UNL     1      -1.364   1.412  -0.137  1.00  0.00     0.014 C 
HETATM    9  C10 UNL     1      -0.088   0.596   0.032  1.00  0.00     0.022 C 
HETATM   10  C11 UNL     1      -0.064   0.157   1.508  1.00  0.00     0.012 C 
ENDROOT
BRANCH   3  11
HETATM   11  C3  UNL     1       0.983  -0.995  -1.526  1.00  0.00     0.120 C 
BRANCH  11  12
HETATM   12  S1  UNL     1       2.555  -1.181  -0.806  1.00  0.00    -0.088 SA
BRANCH  12  13
HETATM   13  C4  UNL     1       3.458   0.206  -0.270  1.00  0.00     0.173 A 
HETATM   14  N1  UNL     1       3.524   0.815   0.898  1.00  0.00    -0.266 N 
HETATM   15  N2  UNL     1       4.340   1.846   0.887  1.00  0.00    -0.224 N 
ATOM     16  H1  UNL     1       2.999   0.518   1.721  1.00  0.00     0.190 HD
HETATM   17  N3  UNL     1       4.818   1.899  -0.347  1.00  0.00    -0.005 NA
ATOM     18  H2  UNL     1       4.558   2.471   1.663  1.00  0.00     0.205 HD
HETATM   19  N4  UNL     1       4.306   0.921  -1.077  1.00  0.00    -0.261 N 
ATOM     20  H4  UNL     1       4.505   0.733  -2.060  1.00  0.00     0.186 HD
ENDBRANCH  12  13
ENDBRANCH  11  12
ENDBRANCH   3  11
TORSDOF 3
