REMARK  7 active torsions:
REMARK  status: ('A' for Active; 'I' for Inactive)
REMARK    1  A    between atoms: N1_11  and  C9_12 
REMARK    2  A    between atoms: C9_12  and  C10_13 
REMARK    3  A    between atoms: C10_13  and  N2_14 
REMARK    4  A    between atoms: N2_14  and  C11_16 
REMARK    5  A    between atoms: C13_22  and  N5_23 
REMARK    6  A    between atoms: N5_23  and  N6_25 
REMARK    7  A    between atoms: C14_27  and  C15_28 
ROOT
HETATM    1  C11 UNL     1       0.334   3.845   0.169  1.00  0.00     0.693 A 
HETATM    2  N3  UNL     1       0.580   5.169   0.249  1.00  0.00    -0.187 N 
ATOM      3  H3  UNL     1      -0.185   5.840   0.174  1.00  0.00     0.185 HD
HETATM    4  C12 UNL     1       1.858   5.603   0.431  1.00  0.00     0.215 A 
HETATM    5  N4  UNL     1       2.870   4.724   0.530  1.00  0.00    -0.185 N 
ATOM      6  H4  UNL     1       3.823   5.060   0.666  1.00  0.00     0.185 HD
HETATM    7  C13 UNL     1       2.632   3.408   0.451  1.00  0.00     0.712 A 
HETATM    8  N7  UNL     1       1.368   3.005   0.272  1.00  0.00    -0.021 N 
ATOM      9  H7  UNL     1       1.185   2.003   0.211  1.00  0.00     0.203 HD
ENDROOT
BRANCH   1  10
HETATM   10  N2  UNL     1      -0.851   3.387  -0.002  1.00  0.00    -0.224 N 
ATOM     11  H2  UNL     1      -1.642   4.026  -0.081  1.00  0.00     0.177 HD
BRANCH  10  12
HETATM   12  C10 UNL     1      -1.058   1.961  -0.082  1.00  0.00     0.158 C 
BRANCH  12  13
HETATM   13  C9  UNL     1      -2.555   1.738  -0.211  1.00  0.00     0.155 C 
BRANCH  13  14
HETATM   14  N1  UNL     1      -2.772   0.314  -0.291  1.00  0.00    -0.278 N 
HETATM   15  C1  UNL     1      -2.809  -0.473  -1.460  1.00  0.00     0.261 A 
HETATM   16  O1  UNL     1      -2.650  -0.012  -2.632  1.00  0.00    -0.267 OA
HETATM   17  C2  UNL     1      -3.055  -1.851  -1.052  1.00  0.00     0.048 A 
HETATM   18  C3  UNL     1      -3.182  -3.007  -1.792  1.00  0.00     0.018 A 
HETATM   19  C7  UNL     1      -3.166  -1.904   0.323  1.00  0.00     0.048 A 
HETATM   20  C4  UNL     1      -3.420  -4.221  -1.146  1.00  0.00     0.001 A 
HETATM   21  C5  UNL     1      -3.534  -4.300   0.226  1.00  0.00     0.001 A 
HETATM   22  C6  UNL     1      -3.402  -3.123   0.930  1.00  0.00     0.018 A 
HETATM   23  C8  UNL     1      -2.989  -0.545   0.817  1.00  0.00     0.261 A 
HETATM   24  O2  UNL     1      -3.034  -0.250   2.045  1.00  0.00    -0.267 OA
ENDBRANCH  13  14
ENDBRANCH  12  13
ENDBRANCH  10  12
ENDBRANCH   1  10
BRANCH   7  25
HETATM   25  N5  UNL     1       3.568   2.535   0.541  1.00  0.00    -0.132 N 
ATOM     26  H5  UNL     1       4.534   2.831   0.678  1.00  0.00     0.205 HD
BRANCH  25  27
HETATM   27  N6  UNL     1       3.258   1.185   0.451  1.00  0.00    -0.296 N 
HETATM   28  C14 UNL     1       4.058   0.291   0.024  1.00  0.00     0.126 C 
ATOM     29  H6  UNL     1       2.328   0.889   0.747  1.00  0.00     0.186 HD
BRANCH  28  30
HETATM   30  C15 UNL     1       3.589  -1.100  -0.013  1.00  0.00     0.021 A 
HETATM   31  C16 UNL     1       4.265  -2.211  -0.427  1.00  0.00     0.021 A 
HETATM   32  C17 UNL     1       3.622  -3.391  -0.370  1.00  0.00     0.008 A 
HETATM   33  C18 UNL     1       2.336  -3.376   0.103  1.00  0.00     0.050 A 
HETATM   34  S1  UNL     1       2.071  -1.730   0.447  1.00  0.00    -0.101 SA
ENDBRANCH  28  30
ENDBRANCH  25  27
ENDBRANCH   7  25
TORSDOF 7
