REMARK  7 active torsions:
REMARK  status: ('A' for Active; 'I' for Inactive)
REMARK    1  A    between atoms: O1_2  and  C2_3 
REMARK    2  A    between atoms: C2_3  and  C3_4 
REMARK    3  A    between atoms: C3_4  and  N1_5 
REMARK    4  A    between atoms: N1_5  and  C4_6 
REMARK       I    between atoms: N1_5  and  C17_26 
REMARK    5  A    between atoms: C9_14  and  O2_15 
REMARK    6  A    between atoms: C11_19  and  C12_20 
REMARK    7  A    between atoms: C12_20  and  C13_22 
ROOT
HETATM    1  C4  UNL     1       2.859  -0.443   0.430  1.00  0.00     0.119 C 
HETATM    2  C5  UNL     1       1.659  -0.122   0.720  1.00  0.00     0.030 C 
HETATM    3  C6  UNL     1       1.161  -0.565   2.118  1.00  0.00     0.132 C 
HETATM    4  S1  UNL     1      -0.431   0.274   2.327  1.00  0.00    -0.153 SA
HETATM    5  C7  UNL     1      -1.442  -0.138   0.861  1.00  0.00     0.115 C 
HETATM    6  C8  UNL     1      -0.594   0.170  -0.335  1.00  0.00     0.157 C 
HETATM    7  N2  UNL     1       0.722   0.619   0.015  1.00  0.00    -0.381 N 
ATOM      8  H2  UNL     1       0.991   1.558  -0.278  1.00  0.00     0.160 HD
HETATM    9  C9  UNL     1      -1.352   1.243  -1.065  1.00  0.00     0.381 C 
HETATM   10  N3  UNL     1      -2.675   1.287  -0.532  1.00  0.00     0.128 N 
HETATM   11  C10 UNL     1      -3.027   2.719  -0.470  1.00  0.00     0.314 C 
HETATM   12  C11 UNL     1      -2.643   0.715   0.751  1.00  0.00     0.311 C 
ENDROOT
BRANCH   1  13
HETATM   13  N1  UNL     1       3.739  -0.303  -0.633  1.00  0.00    -0.325 N 
HETATM   14  C17 UNL     1       3.482   0.234  -1.891  1.00  0.00     0.219 C 
HETATM   15  C18 UNL     1       4.603   0.323  -2.915  1.00  0.00     0.117 C 
HETATM   16  O4  UNL     1       2.406   0.669  -2.319  1.00  0.00    -0.274 OA
BRANCH  13  17
HETATM   17  C3  UNL     1       5.163  -0.733  -0.436  1.00  0.00     0.157 C 
BRANCH  17  18
HETATM   18  C2  UNL     1       5.979   0.344   0.195  1.00  0.00     0.187 C 
BRANCH  18  19
HETATM   19  O1  UNL     1       7.296  -0.077   0.354  1.00  0.00    -0.394 OA
HETATM   20  C1  UNL     1       7.372  -1.193   1.162  1.00  0.00     0.201 C 
ENDBRANCH  18  19
ENDBRANCH  17  18
ENDBRANCH  13  17
ENDBRANCH   1  13
BRANCH   9  21
HETATM   21  O2  UNL     1      -1.294   0.978  -2.433  1.00  0.00    -0.366 OA
ATOM     22  H2  UNL     1      -1.773   1.656  -2.894  1.00  0.00     0.212 HD
ENDBRANCH   9  21
BRANCH  12  23
HETATM   23  C12 UNL     1      -3.885   0.065   1.227  1.00  0.00     0.169 C 
HETATM   24  O3  UNL     1      -3.784  -0.371   2.379  1.00  0.00    -0.295 OA
BRANCH  23  25
HETATM   25  C13 UNL     1      -5.156  -0.125   0.560  1.00  0.00     0.012 C 
HETATM   26  C14 UNL     1      -5.023  -0.935  -0.742  1.00  0.00     0.022 C 
HETATM   27  C15 UNL     1      -5.937   1.088   0.217  1.00  0.00     0.022 C 
HETATM   28  C16 UNL     1      -6.070  -1.008   1.429  1.00  0.00     0.022 C 
ENDBRANCH  23  25
ENDBRANCH  12  23
TORSDOF 7
