REMARK  4 active torsions:
REMARK  status: ('A' for Active; 'I' for Inactive)
REMARK    1  A    between atoms: C2_2  and  O1_4 
REMARK    2  A    between atoms: O1_4  and  C4_5 
REMARK    3  A    between atoms: C4_5  and  N1_7 
REMARK       I    between atoms: N1_7  and  C5_8 
REMARK    4  A    between atoms: C5_8  and  C6_10 
ROOT
HETATM    1  N1  UNL     1      -0.284  -0.279   0.309  1.00  0.00    -0.333 NA
HETATM    2  C5  UNL     1      -1.517  -0.763   0.562  1.00  0.00     0.302 C 
HETATM    3  O2  UNL     1      -1.771  -1.813   1.240  1.00  0.00    -0.256 OA
ENDROOT
BRANCH   1   4
HETATM    4  C4  UNL     1       0.960   0.209   0.055  1.00  0.00     0.292 C 
HETATM    5  S1  UNL     1       0.957   1.629  -0.870  1.00  0.00    -0.017 SA
BRANCH   4   6
HETATM    6  O1  UNL     1       2.164  -0.276   0.436  1.00  0.00    -0.311 OA
BRANCH   6   7
HETATM    7  C2  UNL     1       3.393  -0.165  -0.207  1.00  0.00     0.124 C 
HETATM    8  C1  UNL     1       3.888   1.240  -0.415  1.00  0.00     0.040 C 
HETATM    9  C3  UNL     1       4.418  -0.925   0.618  1.00  0.00     0.040 C 
ENDBRANCH   6   7
ENDBRANCH   4   6
ENDBRANCH   1   4
BRANCH   2  10
HETATM   10  C6  UNL     1      -2.782  -0.092   0.046  1.00  0.00     0.044 C 
HETATM   11  C7  UNL     1      -2.717  -0.231  -1.473  1.00  0.00     0.026 C 
HETATM   12  C8  UNL     1      -3.982  -0.813   0.567  1.00  0.00     0.026 C 
HETATM   13  C9  UNL     1      -2.872   1.341   0.466  1.00  0.00     0.026 C 
ENDBRANCH   2  10
TORSDOF 4
