REMARK  2 active torsions:
REMARK  status: ('A' for Active; 'I' for Inactive)
REMARK    1  A    between atoms: C2_2  and  C3_3 
REMARK    2  A    between atoms: C8_10  and  C9_11 
ROOT
HETATM    1  C3  UNL     1      -2.285  -0.337  -0.675  1.00  0.00     0.045 C 
HETATM    2  C4  UNL     1      -2.607   1.140  -0.600  1.00  0.00     0.014 C 
HETATM    3  C5  UNL     1      -2.219   1.032   0.885  1.00  0.00     0.043 C 
HETATM    4  C6  UNL     1      -1.285  -0.072   0.405  1.00  0.00     0.111 C 
HETATM    5  O1  UNL     1      -1.008  -1.070   1.287  1.00  0.00    -0.228 OA
HETATM    6  O2  UNL     1       0.036  -0.771   1.965  1.00  0.00    -0.232 OA
HETATM    7  C7  UNL     1       0.852   0.100   1.252  1.00  0.00     0.204 C 
HETATM    8  C8  UNL     1       2.035  -0.631   0.711  1.00  0.00     0.246 C 
HETATM    9  N1  UNL     1       1.597  -1.210  -0.548  1.00  0.00    -0.064 N 
ATOM     10  H11 UNL     1       1.164  -2.130  -0.468  1.00  0.00     0.278 HD
ATOM     11  H12 UNL     1       2.351  -1.506  -1.167  1.00  0.00     0.278 HD
HETATM   12  C12 UNL     1       0.737  -0.182  -1.090  1.00  0.00     0.243 C 
HETATM   13  C13 UNL     1       0.033   0.509   0.017  1.00  0.00     0.084 C 
ENDROOT
BRANCH   1  14
HETATM   14  C2  UNL     1      -3.387  -1.209  -0.255  1.00  0.00    -0.029 C 
HETATM   15  C1  UNL     1      -4.669  -0.897  -0.258  1.00  0.00     0.007 C 
ENDBRANCH   1  14
BRANCH   8  16
HETATM   16  C9  UNL     1       3.218   0.198   0.426  1.00  0.00    -0.060 C 
HETATM   17  C10 UNL     1       3.303   1.508   0.595  1.00  0.00     0.016 C 
HETATM   18  C11 UNL     1       4.425  -0.528  -0.107  1.00  0.00     0.044 C 
ENDBRANCH   8  16
TORSDOF 2
