REMARK  5 active torsions:
REMARK  status: ('A' for Active; 'I' for Inactive)
REMARK    1  A    between atoms: O1_1  and  C1_3 
REMARK    2  A    between atoms: C1_3  and  C2_4 
REMARK    3  A    between atoms: C2_4  and  C7_13 
REMARK    4  A    between atoms: C4_6  and  C6_11 
REMARK    5  A    between atoms: C5_8  and  O3_9 
ROOT
HETATM    1  C2  UNL     1       0.366   0.183  -0.176  1.00  0.00     0.061 C 
HETATM    2  C3  UNL     1      -0.487   0.193   1.103  1.00  0.00     0.054 C 
HETATM    3  C4  UNL     1      -1.586  -0.692   0.486  1.00  0.00     0.157 C 
HETATM    4  O2  UNL     1      -1.903   0.001  -0.679  1.00  0.00    -0.353 OA
HETATM    5  C5  UNL     1      -0.734   0.619  -1.134  1.00  0.00     0.270 C 
ENDROOT
BRANCH   1   6
HETATM    6  C1  UNL     1       1.535   1.038  -0.128  1.00  0.00     0.181 C 
BRANCH   6   7
HETATM    7  O1  UNL     1       2.364   0.626   0.920  1.00  0.00    -0.400 OA
ATOM      8  H1  UNL     1       3.130   1.187   0.951  1.00  0.00     0.209 HD
ENDBRANCH   6   7
ENDBRANCH   1   6
BRANCH   1   9
HETATM    9  C7  UNL     1       0.575  -1.277  -0.358  1.00  0.00     0.169 A 
HETATM   10  C6  UNL     1      -0.764  -1.888   0.088  1.00  0.00     0.181 A 
HETATM   11  O4  UNL     1      -0.269  -2.001  -1.201  1.00  0.00    -0.372 OA
ENDBRANCH   1   9
BRANCH   5  12
HETATM   12  O3  UNL     1      -0.902   1.984  -0.956  1.00  0.00    -0.370 OA
ATOM     13  H3  UNL     1      -1.588   2.256  -1.554  1.00  0.00     0.212 HD
ENDBRANCH   5  12
TORSDOF 5
