REMARK  7 active torsions:
REMARK  status: ('A' for Active; 'I' for Inactive)
REMARK    1  A    between atoms: N1_2  and  C2_5 
REMARK    2  A    between atoms: C3_6  and  O1_7 
REMARK    3  A    between atoms: C4_9  and  O2_10 
REMARK    4  A    between atoms: N2_12  and  C5_13 
REMARK    5  A    between atoms: C10_18  and  C11_19 
REMARK    6  A    between atoms: C11_19  and  C12_20 
REMARK    7  A    between atoms: C18_26  and  O3_27 
ROOT
HETATM    1  C2  UNL     1      -1.802   2.497   0.283  1.00  0.00     0.252 C 
HETATM    2  C3  UNL     1      -2.672   1.547   1.106  1.00  0.00     0.200 C 
HETATM    3  C4  UNL     1      -2.740   0.307   0.292  1.00  0.00     0.256 C 
HETATM    4  N2  UNL     1      -1.359  -0.241   0.082  1.00  0.00    -0.323 N 
HETATM    5  C10 UNL     1      -0.217   0.564   0.089  1.00  0.00     0.042 C 
HETATM    6  C18 UNL     1      -0.397   2.019   0.492  1.00  0.00     0.201 C 
ENDROOT
BRANCH   5   7
HETATM    7  C11 UNL     1       1.051   0.116   0.706  1.00  0.00     0.006 C 
BRANCH   7   8
HETATM    8  C12 UNL     1       1.824  -1.016   0.180  1.00  0.00     0.010 C 
HETATM    9  C13 UNL     1       3.043  -1.147   1.127  1.00  0.00     0.008 C 
HETATM   10  C14 UNL     1       4.252  -1.669   0.395  1.00  0.00     0.001 C 
HETATM   11  C15 UNL     1       4.834  -0.523  -0.429  1.00  0.00     0.000 C 
HETATM   12  C16 UNL     1       3.664   0.307  -0.936  1.00  0.00     0.001 C 
HETATM   13  C17 UNL     1       2.497  -0.602  -1.158  1.00  0.00     0.008 C 
ENDBRANCH   7   8
ENDBRANCH   5   7
BRANCH   4  14
HETATM   14  C5  UNL     1      -1.408  -1.633  -0.128  1.00  0.00     0.011 C 
HETATM   15  C6  UNL     1      -1.349  -2.549   0.814  1.00  0.00    -0.002 C 
HETATM   16  C7  UNL     1      -1.428  -3.907   0.210  1.00  0.00     0.029 C 
HETATM   17  C8  UNL     1      -2.345  -3.620  -0.995  1.00  0.00     0.010 C 
HETATM   18  C9  UNL     1      -1.623  -2.330  -1.459  1.00  0.00     0.057 C 
ENDBRANCH   4  14
BRANCH   6  19
HETATM   19  O3  UNL     1       0.439   2.814  -0.276  1.00  0.00    -0.387 OA
ATOM     20  H3  UNL     1       1.330   2.511  -0.144  1.00  0.00     0.210 HD
ENDBRANCH   6  19
BRANCH   3  21
HETATM   21  O2  UNL     1      -3.535  -0.674   0.799  1.00  0.00    -0.374 OA
ATOM     22  H2  UNL     1      -3.579  -1.467   0.278  1.00  0.00     0.212 HD
ENDBRANCH   3  21
BRANCH   1  23
HETATM   23  N1  UNL     1      -1.959   3.821   0.806  1.00  0.00    -0.069 N 
HETATM   24  C1  UNL     1      -1.952   4.815  -0.269  1.00  0.00     0.267 C 
ATOM     25  H12 UNL     1      -1.257   4.030   1.516  1.00  0.00     0.277 HD
ATOM     26  H11 UNL     1      -2.795   3.900   1.385  1.00  0.00     0.277 HD
ENDBRANCH   1  23
BRANCH   2  27
HETATM   27  O1  UNL     1      -3.941   2.123   1.172  1.00  0.00    -0.389 OA
ATOM     28  H1  UNL     1      -4.482   1.533   1.683  1.00  0.00     0.210 HD
ENDBRANCH   2  27
TORSDOF 7
