REMARK  6 active torsions:
REMARK  status: ('A' for Active; 'I' for Inactive)
REMARK    1  A    between atoms: O1_1  and  C1_3 
REMARK    2  A    between atoms: C1_3  and  C2_4 
REMARK    3  A    between atoms: C2_4  and  O2_5 
REMARK    4  A    between atoms: C2_4  and  C3_7 
REMARK    5  A    between atoms: C6_11  and  O4_12 
REMARK    6  A    between atoms: C10_18  and  O5_19 
ROOT
HETATM    1  C3  UNL     1       1.582  -0.441   0.380  1.00  0.00     0.182 C 
HETATM    2  O3  UNL     1       1.171   0.643   1.092  1.00  0.00    -0.380 OA
HETATM    3  C4  UNL     1      -0.049   1.113   0.571  1.00  0.00     0.176 C 
HETATM    4  C5  UNL     1      -1.080   0.120   1.127  1.00  0.00     0.054 C 
HETATM    5  C6  UNL     1      -2.422   0.721   0.935  1.00  0.00     0.126 C 
HETATM    6  C7  UNL     1      -2.959   0.670  -0.454  1.00  0.00     0.042 C 
HETATM    7  C8  UNL     1      -3.389  -0.687  -0.896  1.00  0.00     0.077 C 
HETATM    8  S1  UNL     1      -2.059  -1.837  -0.570  1.00  0.00    -0.161 SA
HETATM    9  C9  UNL     1      -0.815  -1.203   0.566  1.00  0.00     0.087 C 
HETATM   10  C10 UNL     1       0.527  -1.318  -0.164  1.00  0.00     0.164 C 
ENDROOT
BRANCH   1  11
HETATM   11  C2  UNL     1       2.430   0.075  -0.791  1.00  0.00     0.173 C 
BRANCH  11  12
HETATM   12  C1  UNL     1       3.600   0.844  -0.264  1.00  0.00     0.198 C 
BRANCH  12  13
HETATM   13  O1  UNL     1       4.412   0.012   0.498  1.00  0.00    -0.398 OA
ATOM     14  H1  UNL     1       5.155   0.500   0.833  1.00  0.00     0.209 HD
ENDBRANCH  12  13
ENDBRANCH  11  12
BRANCH  11  15
HETATM   15  O2  UNL     1       2.896  -0.963  -1.578  1.00  0.00    -0.391 OA
ATOM     16  H2  UNL     1       2.153  -1.451  -1.913  1.00  0.00     0.210 HD
ENDBRANCH  11  15
ENDBRANCH   1  11
BRANCH  10  17
HETATM   17  O5  UNL     1       0.310  -1.077  -1.523  1.00  0.00    -0.392 OA
ATOM     18  H5  UNL     1      -0.369  -1.642  -1.873  1.00  0.00     0.210 HD
ENDBRANCH  10  17
BRANCH   5  19
HETATM   19  O4  UNL     1      -3.389   0.179   1.812  1.00  0.00    -0.395 OA
ATOM     20  H4  UNL     1      -4.249   0.564   1.689  1.00  0.00     0.210 HD
ENDBRANCH   5  19
TORSDOF 6
