REMARK  7 active torsions:
REMARK  status: ('A' for Active; 'I' for Inactive)
REMARK    1  A    between atoms: C2_2  and  C3_4 
REMARK    2  A    between atoms: C3_4  and  C4_5 
REMARK    3  A    between atoms: C4_5  and  C5_6 
REMARK    4  A    between atoms: C5_6  and  N1_7 
REMARK    5  A    between atoms: N1_7  and  N2_9 
REMARK    6  A    between atoms: C6_10  and  C7_11 
REMARK    7  A    between atoms: N3_14  and  C10_15 
ROOT
HETATM    1  N2  UNL     1       2.123  -0.739   1.288  1.00  0.00    -0.208 N 
HETATM    2  C6  UNL     1       0.957  -1.313   0.940  1.00  0.00     0.126 A 
HETATM    3  N4  UNL     1       1.153  -2.637   1.052  1.00  0.00    -0.285 N 
ATOM      4  H4  UNL     1       0.455  -3.355   0.857  1.00  0.00     0.188 HD
HETATM    5  N5  UNL     1       2.402  -2.867   1.457  1.00  0.00    -0.273 N 
ATOM      6  H5  UNL     1       2.816  -3.784   1.624  1.00  0.00     0.189 HD
HETATM    7  C16 UNL     1       3.021  -1.686   1.608  1.00  0.00     0.214 A 
HETATM    8  S1  UNL     1       4.584  -1.453   2.095  1.00  0.00    -0.037 SA
ENDROOT
BRANCH   2   9
HETATM    9  C7  UNL     1      -0.306  -0.612   0.515  1.00  0.00     0.060 C 
HETATM   10  C8  UNL     1      -1.366  -0.940   1.569  1.00  0.00     0.042 C 
HETATM   11  C9  UNL     1      -2.640  -0.183   1.275  1.00  0.00     0.274 C 
HETATM   12  N3  UNL     1      -2.610   0.305  -0.069  1.00  0.00     0.097 N 
HETATM   13  C14 UNL     1      -2.211  -0.698  -1.009  1.00  0.00     0.274 C 
HETATM   14  C15 UNL     1      -0.753  -1.099  -0.828  1.00  0.00     0.042 C 
BRANCH  12  15
HETATM   15  C10 UNL     1      -3.877   0.869  -0.411  1.00  0.00     0.149 C 
HETATM   16  C11 UNL     1      -5.015  -0.131  -0.380  1.00  0.00     0.048 C 
HETATM   17  C12 UNL     1      -4.212   2.013   0.523  1.00  0.00     0.048 C 
HETATM   18  C13 UNL     1      -3.813   1.431  -1.829  1.00  0.00     0.048 C 
ENDBRANCH  12  15
ENDBRANCH   2   9
BRANCH   1  19
HETATM   19  N1  UNL     1       2.308   0.648   1.294  1.00  0.00    -0.255 N 
ATOM     20  H1  UNL     1       1.977   1.236   2.059  1.00  0.00     0.197 HD
BRANCH  19  21
HETATM   21  C5  UNL     1       2.926   1.137   0.268  1.00  0.00    -0.025 C 
BRANCH  21  22
HETATM   22  C4  UNL     1       3.678   1.380  -0.763  1.00  0.00     0.079 C 
BRANCH  22  23
HETATM   23  C3  UNL     1       5.112   1.374  -0.614  1.00  0.00     0.047 C 
BRANCH  23  24
HETATM   24  C2  UNL     1       5.903   0.453  -1.100  1.00  0.00     0.090 C 
HETATM   25  C1  UNL     1       7.379   0.468  -0.934  1.00  0.00     0.082 C 
HETATM   26  F1  UNL     1       5.359  -0.574  -1.795  1.00  0.00    -0.211 F 
ENDBRANCH  23  24
ENDBRANCH  22  23
ENDBRANCH  21  22
ENDBRANCH  19  21
ENDBRANCH   1  19
TORSDOF 7
