REMARK  8 active torsions:
REMARK  status: ('A' for Active; 'I' for Inactive)
REMARK    1  A    between atoms: C2_2  and  C3_3 
REMARK    2  A    between atoms: C3_3  and  C4_4 
REMARK    3  A    between atoms: C4_4  and  C5_5 
REMARK    4  A    between atoms: C5_5  and  O1_6 
REMARK    5  A    between atoms: C5_5  and  C6_8 
REMARK    6  A    between atoms: C6_8  and  C7_9 
REMARK    7  A    between atoms: C7_9  and  C8_10 
REMARK    8  A    between atoms: C9_11  and  O2_12 
ROOT
HETATM    1  C8  UNL     1      -0.503  -0.259  -1.785  1.00  0.00     0.051 A 
HETATM    2  C9  UNL     1      -1.492  -1.095  -1.313  1.00  0.00     0.091 A 
HETATM    3  C10 UNL     1      -2.621  -0.582  -0.669  1.00  0.00     0.035 A 
HETATM    4  C11 UNL     1      -3.627  -1.388  -0.186  1.00  0.00     0.057 A 
HETATM    5  C12 UNL     1      -4.744  -0.887   0.450  1.00  0.00     0.114 A 
HETATM    6  O3  UNL     1      -5.828  -1.368   0.999  1.00  0.00    -0.276 OA
HETATM    7  C13 UNL     1      -6.581  -0.420   1.472  1.00  0.00     0.265 A 
HETATM    8  S1  UNL     1      -8.008  -0.673   2.221  1.00  0.00    -0.024 SA
HETATM    9  O4  UNL     1      -5.989   0.723   1.236  1.00  0.00    -0.275 OA
HETATM   10  C14 UNL     1      -4.843   0.488   0.603  1.00  0.00     0.121 A 
HETATM   11  C15 UNL     1      -3.854   1.297   0.130  1.00  0.00     0.010 A 
HETATM   12  C16 UNL     1      -3.965   2.770   0.296  1.00  0.00     0.054 C 
HETATM   13  C17 UNL     1      -2.733   0.780  -0.511  1.00  0.00     0.101 A 
HETATM   14  O5  UNL     1      -1.780   1.548  -0.967  1.00  0.00    -0.274 OA
HETATM   15  C18 UNL     1      -0.695   1.089  -1.584  1.00  0.00     0.297 A 
HETATM   16  O6  UNL     1       0.123   1.974  -1.961  1.00  0.00    -0.259 OA
ENDROOT
BRANCH   1  17
HETATM   17  C7  UNL     1       0.679  -0.749  -2.462  1.00  0.00     0.050 C 
BRANCH  17  18
HETATM   18  C6  UNL     1       1.733  -1.386  -1.636  1.00  0.00     0.036 C 
BRANCH  18  19
HETATM   19  C5  UNL     1       2.342  -0.538  -0.570  1.00  0.00     0.118 C 
BRANCH  19  20
HETATM   20  C4  UNL     1       3.399  -1.321   0.178  1.00  0.00     0.032 C 
BRANCH  20  21
HETATM   21  C3  UNL     1       4.091  -0.508   1.242  1.00  0.00     0.002 C 
BRANCH  21  22
HETATM   22  C2  UNL     1       4.794   0.706   0.693  1.00  0.00    -0.004 C 
HETATM   23  C1  UNL     1       5.471   1.469   1.837  1.00  0.00     0.005 C 
ENDBRANCH  21  22
ENDBRANCH  20  21
ENDBRANCH  19  20
BRANCH  19  24
HETATM   24  O1  UNL     1       1.385  -0.114   0.377  1.00  0.00    -0.396 OA
ATOM     25  H1  UNL     1       0.721   0.378  -0.093  1.00  0.00     0.210 HD
ENDBRANCH  19  24
ENDBRANCH  18  19
ENDBRANCH  17  18
ENDBRANCH   1  17
BRANCH   2  26
HETATM   26  O2  UNL     1      -1.346  -2.439  -1.489  1.00  0.00    -0.359 OA
ATOM     27  H2  UNL     1      -2.028  -3.015  -1.164  1.00  0.00     0.217 HD
ENDBRANCH   2  26
TORSDOF 8
