REMARK  7 active torsions:
REMARK  status: ('A' for Active; 'I' for Inactive)
REMARK    1  A    between atoms: C2_2  and  C4_4 
REMARK    2  A    between atoms: C4_4  and  C5_5 
REMARK    3  A    between atoms: C4_4  and  C8_9 
REMARK    4  A    between atoms: C5_5  and  C6_6 
REMARK    5  A    between atoms: C12_14  and  C14_16 
REMARK    6  A    between atoms: C14_16  and  O4_18 
REMARK    7  A    between atoms: O4_18  and  C15_19 
ROOT
HETATM    1  C8  UNL     1      -0.880   0.017   1.070  1.00  0.00     0.041 C 
HETATM    2  C9  UNL     1      -1.383  -1.155   1.846  1.00  0.00     0.018 C 
HETATM    3  C10 UNL     1      -0.638  -2.389   1.415  1.00  0.00     0.080 C 
HETATM    4  C11 UNL     1       0.420  -1.828   0.533  1.00  0.00     0.145 C 
HETATM    5  O2  UNL     1       1.052  -2.451  -0.280  1.00  0.00    -0.297 OA
HETATM    6  C12 UNL     1       0.525  -0.347   0.872  1.00  0.00     0.112 C 
HETATM    7  C13 UNL     1       1.206  -0.383   2.278  1.00  0.00     0.035 C 
ENDROOT
BRANCH   1   8
HETATM    8  C4  UNL     1      -1.697   0.586  -0.009  1.00  0.00    -0.062 C 
BRANCH   8   9
HETATM    9  C2  UNL     1      -2.112  -0.200  -1.155  1.00  0.00    -0.068 C 
HETATM   10  C1  UNL     1      -1.753   0.159  -2.423  1.00  0.00     0.018 C 
HETATM   11  C3  UNL     1      -2.946  -1.434  -1.188  1.00  0.00     0.047 C 
ENDBRANCH   8   9
BRANCH   8  12
HETATM   12  C5  UNL     1      -2.664   1.649   0.466  1.00  0.00     0.113 C 
BRANCH  12  13
HETATM   13  C6  UNL     1      -3.989   1.307   0.883  1.00  0.00     0.127 C 
HETATM   14  C7  UNL     1      -4.862   2.428   1.417  1.00  0.00     0.091 C 
HETATM   15  O1  UNL     1      -4.520   0.237   0.870  1.00  0.00    -0.298 OA
ENDBRANCH  12  13
ENDBRANCH   8  12
ENDBRANCH   1   8
BRANCH   6  16
HETATM   16  C14 UNL     1       1.410   0.248  -0.074  1.00  0.00     0.276 C 
HETATM   17  O3  UNL     1       1.316   1.234  -0.820  1.00  0.00    -0.264 OA
BRANCH  16  18
HETATM   18  O4  UNL     1       2.675  -0.409  -0.205  1.00  0.00    -0.310 OA
BRANCH  18  19
HETATM   19  C15 UNL     1       3.661   0.025  -1.071  1.00  0.00     0.060 C 
HETATM   20  C16 UNL     1       4.159   1.410  -0.828  1.00  0.00     0.045 C 
HETATM   21  C17 UNL     1       3.251  -0.073  -2.535  1.00  0.00     0.045 C 
HETATM   22  C18 UNL     1       4.850  -0.919  -0.898  1.00  0.00     0.045 C 
ENDBRANCH  18  19
ENDBRANCH  16  18
ENDBRANCH   6  16
TORSDOF 7
