REMARK  4 active torsions:
REMARK  status: ('A' for Active; 'I' for Inactive)
REMARK    1  A    between atoms: C2_2  and  C3_4 
REMARK    2  A    between atoms: C3_4  and  S1_5 
REMARK    3  A    between atoms: S1_5  and  C4_6 
REMARK    4  A    between atoms: N3_13  and  C7_14 
ROOT
HETATM    1  C4  UNL     1       1.874  -0.067  -1.155  1.00  0.00     0.167 A 
HETATM    2  N1  UNL     1       2.649  -0.886  -1.914  1.00  0.00    -0.278 N 
ATOM      3  H1  UNL     1       3.539  -0.628  -2.341  1.00  0.00     0.189 HD
HETATM    4  N2  UNL     1       2.077  -2.051  -2.010  1.00  0.00    -0.287 N 
ATOM      5  H2  UNL     1       2.450  -2.849  -2.525  1.00  0.00     0.188 HD
HETATM    6  C5  UNL     1       0.912  -2.041  -1.322  1.00  0.00     0.100 A 
HETATM    7  C6  UNL     1       0.091  -3.269  -1.238  1.00  0.00     0.091 C 
HETATM    8  N3  UNL     1       0.778  -0.790  -0.784  1.00  0.00    -0.286 N 
ENDROOT
BRANCH   8   9
HETATM    9  C7  UNL     1      -0.364  -0.477  -0.018  1.00  0.00     0.006 C 
HETATM   10  C8  UNL     1      -0.518   0.733   0.767  1.00  0.00     0.033 C 
HETATM   11  C9  UNL     1      -1.574   0.326   1.866  1.00  0.00     0.015 C 
HETATM   12  C13 UNL     1      -1.155   1.943   0.168  1.00  0.00     0.015 C 
HETATM   13  C10 UNL     1      -2.874  -0.040   1.241  1.00  0.00    -0.013 C 
HETATM   14  C11 UNL     1      -3.492   1.140   0.511  1.00  0.00     0.009 C 
HETATM   15  C16 UNL     1      -2.707  -1.128   0.235  1.00  0.00     0.015 C 
HETATM   16  C12 UNL     1      -2.492   1.580  -0.509  1.00  0.00    -0.013 C 
HETATM   17  C14 UNL     1      -2.111   0.552  -1.513  1.00  0.00     0.015 C 
HETATM   18  C15 UNL     1      -1.649  -0.698  -0.781  1.00  0.00     0.033 C 
ENDBRANCH   8   9
BRANCH   1  19
HETATM   19  S1  UNL     1       2.211   1.597  -0.699  1.00  0.00    -0.085 SA
BRANCH  19  20
HETATM   20  C3  UNL     1       3.213   1.779   0.794  1.00  0.00     0.160 C 
BRANCH  20  21
HETATM   21  C2  UNL     1       4.595   1.318   0.514  1.00  0.00     0.132 C 
HETATM   22  C1  UNL     1       5.039  -0.089   0.578  1.00  0.00     0.091 C 
HETATM   23  O1  UNL     1       5.471   2.143   0.196  1.00  0.00    -0.298 OA
ENDBRANCH  20  21
ENDBRANCH  19  20
ENDBRANCH   1  19
TORSDOF 4
