REMARK  12 active torsions:
REMARK  status: ('A' for Active; 'I' for Inactive)
REMARK    1  A    between atoms: N1_1  and  C1_5 
REMARK    2  A    between atoms: C1_5  and  C2_6 
REMARK    3  A    between atoms: C3_9  and  C4_10 
REMARK    4  A    between atoms: C9_17  and  C10_18 
REMARK    5  A    between atoms: C11_20  and  C12_21 
REMARK    6  A    between atoms: C12_21  and  O5_22 
REMARK    7  A    between atoms: C13_24  and  O6_25 
REMARK    8  A    between atoms: C14_27  and  O7_28 
REMARK    9  A    between atoms: N3_30  and  N4_31 
REMARK   10  A    between atoms: C16_35  and  O8_36 
REMARK   11  A    between atoms: O8_36  and  C17_37 
REMARK   12  A    between atoms: C17_37  and  C18_38 
ROOT
HETATM    1  C2  UNL     1       0.656  -1.636  -2.337  1.00  0.00     0.210 C 
HETATM    2  O1  UNL     1      -0.589  -1.999  -1.895  1.00  0.00    -0.266 OA
HETATM    3  N2  UNL     1      -1.137  -0.941  -1.327  1.00  0.00    -0.222 N 
HETATM    4  C3  UNL     1      -2.596  -0.845  -1.053  1.00  0.00     0.149 C 
HETATM    5  C5  UNL     1      -3.137  -0.035  -0.168  1.00  0.00     0.044 A 
HETATM    6  C6  UNL     1      -2.491   0.816   0.683  1.00  0.00     0.008 A 
HETATM    7  C7  UNL     1      -3.210   1.754   1.372  1.00  0.00     0.025 A 
HETATM    8  C8  UNL     1      -4.595   1.920   1.276  1.00  0.00    -0.021 A 
HETATM    9  C9  UNL     1      -5.151   2.844   1.980  1.00  0.00     0.053 C 
HETATM   10  C11 UNL     1      -5.202   1.028   0.391  1.00  0.00     0.010 A 
HETATM   11  C13 UNL     1      -4.538   0.065  -0.337  1.00  0.00     0.088 A 
HETATM   12  C14 UNL     1      -1.070   0.969   1.086  1.00  0.00     0.273 C 
HETATM   13  N3  UNL     1      -0.077   0.299   0.414  1.00  0.00    -0.273 N 
HETATM   14  C15 UNL     1      -0.214   0.112  -0.998  1.00  0.00     0.265 C 
HETATM   15  C16 UNL     1       1.051  -0.338  -1.673  1.00  0.00     0.200 C 
ENDROOT
BRANCH  15  16
HETATM   16  O8  UNL     1       2.130  -0.451  -0.832  1.00  0.00    -0.377 OA
BRANCH  16  17
HETATM   17  C17 UNL     1       3.143   0.375  -1.269  1.00  0.00     0.194 C 
BRANCH  17  18
HETATM   18  C18 UNL     1       4.369   0.329  -0.419  1.00  0.00     0.113 C 
HETATM   19  C19 UNL     1       4.116   0.974   0.931  1.00  0.00     0.082 C 
HETATM   20  C20 UNL     1       5.363   1.402   1.582  1.00  0.00     0.041 C 
HETATM   21  N5  UNL     1       5.276   2.644   2.262  1.00  0.00    -0.106 NA
HETATM   22  C21 UNL     1       6.554   0.806   1.630  1.00  0.00     0.113 C 
HETATM   23  N6  UNL     1       6.919  -0.454   1.030  1.00  0.00    -0.339 N 
HETATM   24  C22 UNL     1       6.048  -1.310   0.276  1.00  0.00     0.188 C 
ATOM     25  H6  UNL     1       7.883  -0.765   1.153  1.00  0.00     0.167 HD
HETATM   26  N7  UNL     1       6.429  -2.679   0.204  1.00  0.00    -0.064 NA
HETATM   27  N8  UNL     1       4.966  -0.971  -0.337  1.00  0.00    -0.357 N 
ATOM     28  H8  UNL     1       4.474  -1.720  -0.824  1.00  0.00     0.162 HD
ENDBRANCH  17  18
ENDBRANCH  16  17
ENDBRANCH  15  16
BRANCH   1  29
HETATM   29  C1  UNL     1       1.617  -2.762  -1.933  1.00  0.00     0.266 C 
BRANCH  29  30
HETATM   30  N1  UNL     1       1.113  -3.969  -2.599  1.00  0.00    -0.077 N 
ATOM     31  H13 UNL     1       0.135  -4.172  -2.393  1.00  0.00     0.274 HD
ATOM     32  H12 UNL     1       1.005  -3.865  -3.608  1.00  0.00     0.274 HD
ATOM     33  H11 UNL     1       1.752  -4.717  -2.330  1.00  0.00     0.274 HD
ENDBRANCH  29  30
ENDBRANCH   1  29
BRANCH  13  34
HETATM   34  N4  UNL     1       0.555  -0.749   1.065  1.00  0.00    -0.343 N 
ATOM     35  H42 UNL     1       0.653  -0.616   2.072  1.00  0.00     0.176 HD
ATOM     36  H41 UNL     1       1.292  -1.247   0.566  1.00  0.00     0.176 HD
ENDBRANCH  13  34
BRANCH   4  37
HETATM   37  C4  UNL     1      -3.266  -2.035  -1.467  1.00  0.00     0.230 C 
HETATM   38  O2  UNL     1      -4.228  -2.607  -1.064  1.00  0.00    -0.643 OA
HETATM   39  O3  UNL     1      -2.683  -2.686  -2.598  1.00  0.00    -0.643 OA
ENDBRANCH   4  37
BRANCH  12  40
HETATM   40  O7  UNL     1      -1.033   0.605   2.455  1.00  0.00    -0.371 OA
ATOM     41  H7  UNL     1      -0.124   0.703   2.713  1.00  0.00     0.212 HD
ENDBRANCH  12  40
BRANCH  11  42
HETATM   42  O6  UNL     1      -5.146  -0.743  -1.195  1.00  0.00    -0.359 OA
ATOM     43  H6  UNL     1      -6.087  -0.676  -1.308  1.00  0.00     0.217 HD
ENDBRANCH  11  42
BRANCH  10  44
HETATM   44  C12 UNL     1      -6.675   1.111   0.251  1.00  0.00     0.206 C 
BRANCH  44  45
HETATM   45  O5  UNL     1      -7.190   0.200  -0.639  1.00  0.00    -0.396 OA
ATOM     46  H5  UNL     1      -8.134   0.253  -0.729  1.00  0.00     0.209 HD
ENDBRANCH  44  45
ENDBRANCH  10  44
BRANCH   9  47
HETATM   47  C10 UNL     1      -6.379   3.446   2.288  1.00  0.00     0.259 C 
HETATM   48  O4  UNL     1      -7.572   3.382   2.021  1.00  0.00    -0.302 OA
ENDBRANCH   9  47
TORSDOF 12
