REMARK  11 active torsions:
REMARK  status: ('A' for Active; 'I' for Inactive)
REMARK    1  A    between atoms: N5_15  and  C6_16 
REMARK    2  A    between atoms: C8_19  and  O2_20 
REMARK    3  A    between atoms: C9_22  and  N6_23 
REMARK    4  A    between atoms: N6_23  and  C10_25 
REMARK    5  A    between atoms: C10_25  and  O3_26 
REMARK    6  A    between atoms: C10_25  and  C11_28 
REMARK    7  A    between atoms: C11_28  and  C12_29 
REMARK    8  A    between atoms: C11_28  and  N7_34 
REMARK    9  A    between atoms: C12_29  and  O4_30 
REMARK   10  A    between atoms: C12_29  and  O5_32 
REMARK   11  A    between atoms: C17_46  and  O9_47 
ROOT
HETATM    1  C6  UNL     1       2.843   0.452   0.040  1.00  0.00     0.145 C 
HETATM    2  C7  UNL     1       2.136  -0.097   1.230  1.00  0.00     0.199 C 
HETATM    3  O1  UNL     1       0.833   0.290   1.243  1.00  0.00    -0.351 OA
HETATM    4  C8  UNL     1       0.473   1.446   0.642  1.00  0.00     0.191 A 
HETATM    5  C9  UNL     1      -0.557   1.245  -0.493  1.00  0.00     0.154 A 
HETATM    6  C16 UNL     1       0.846   1.515  -0.844  1.00  0.00     0.108 A 
HETATM    7  C17 UNL     1       1.852   0.468  -1.107  1.00  0.00     0.155 C 
ENDROOT
BRANCH   5   8
HETATM    8  N6  UNL     1      -1.167  -0.009  -0.591  1.00  0.00    -0.382 N 
ATOM      9  H6  UNL     1      -0.574  -0.826  -0.442  1.00  0.00     0.156 HD
BRANCH   8  10
HETATM   10  C10 UNL     1      -2.506  -0.244  -0.873  1.00  0.00     0.267 C 
BRANCH  10  11
HETATM   11  O3  UNL     1      -2.622  -1.636  -1.166  1.00  0.00    -0.372 OA
ATOM     12  H3  UNL     1      -3.538  -1.797  -1.359  1.00  0.00     0.212 HD
ENDBRANCH  10  11
BRANCH  10  13
HETATM   13  C11 UNL     1      -3.597   0.174   0.037  1.00  0.00     0.105 C 
BRANCH  13  14
HETATM   14  C12 UNL     1      -3.777   1.626   0.312  1.00  0.00     0.306 C 
BRANCH  14  15
HETATM   15  O4  UNL     1      -4.013   2.417  -0.818  1.00  0.00    -0.366 OA
ATOM     16  H4  UNL     1      -4.128   3.344  -0.643  1.00  0.00     0.213 HD
ENDBRANCH  14  15
BRANCH  14  17
HETATM   17  O5  UNL     1      -4.875   1.807   1.218  1.00  0.00    -0.366 OA
ATOM     18  H5  UNL     1      -4.990   2.734   1.393  1.00  0.00     0.213 HD
ENDBRANCH  14  17
ENDBRANCH  13  14
BRANCH  13  19
HETATM   19  N7  UNL     1      -4.801  -0.614  -0.103  1.00  0.00    -0.213 N 
HETATM   20  C13 UNL     1      -5.548  -0.492  -1.212  1.00  0.00     0.339 A 
HETATM   21  O6  UNL     1      -5.256   0.313  -2.138  1.00  0.00    -0.246 OA
HETATM   22  N8  UNL     1      -6.655  -1.266  -1.336  1.00  0.00    -0.260 N 
HETATM   23  C14 UNL     1      -7.023  -2.148  -0.382  1.00  0.00     0.332 A 
ATOM     24  H8  UNL     1      -7.227  -1.179  -2.176  1.00  0.00     0.175 HD
HETATM   25  O7  UNL     1      -8.035  -2.868  -0.479  1.00  0.00    -0.246 OA
HETATM   26  N9  UNL     1      -6.276  -2.267   0.724  1.00  0.00    -0.260 N 
HETATM   27  C15 UNL     1      -5.191  -1.515   0.854  1.00  0.00     0.339 A 
ATOM     28  H9  UNL     1      -6.538  -2.927   1.456  1.00  0.00     0.175 HD
HETATM   29  O8  UNL     1      -4.491  -1.642   1.916  1.00  0.00    -0.246 OA
ENDBRANCH  13  19
ENDBRANCH  10  13
ENDBRANCH   8  10
ENDBRANCH   5   8
BRANCH   4  30
HETATM   30  O2  UNL     1       0.458   2.652   1.334  1.00  0.00    -0.363 OA
ATOM     31  H2  UNL     1       0.205   3.464   0.912  1.00  0.00     0.213 HD
ENDBRANCH   4  30
BRANCH   7  32
HETATM   32  O9  UNL     1       1.325  -0.817  -1.202  1.00  0.00    -0.393 OA
ATOM     33  H9  UNL     1       0.704  -0.807  -1.921  1.00  0.00     0.210 HD
ENDBRANCH   7  32
BRANCH   1  34
HETATM   34  N5  UNL     1       4.040  -0.291  -0.317  1.00  0.00    -0.318 N 
HETATM   35  C3  UNL     1       5.235  -0.062   0.261  1.00  0.00     0.141 A 
HETATM   36  N3  UNL     1       5.681   0.793   1.225  1.00  0.00    -0.336 N 
HETATM   37  C4  UNL     1       6.186  -0.910  -0.274  1.00  0.00     0.122 A 
HETATM   38  C2  UNL     1       6.947   0.841   1.650  1.00  0.00     0.183 A 
ATOM     39  H3  UNL     1       5.009   1.434   1.647  1.00  0.00     0.168 HD
HETATM   40  N2  UNL     1       7.848  -0.010   1.096  1.00  0.00    -0.337 N 
HETATM   41  C1  UNL     1       7.497  -0.884   0.146  1.00  0.00     0.131 A 
ATOM     42  H2  UNL     1       8.817   0.018   1.412  1.00  0.00     0.168 HD
HETATM   43  N1  UNL     1       8.388  -1.669  -0.347  1.00  0.00    -0.383 N 
ATOM     44  H12 UNL     1       9.359  -1.650  -0.036  1.00  0.00     0.157 HD
ATOM     45  H11 UNL     1       8.120  -2.335  -1.071  1.00  0.00     0.157 HD
HETATM   46  N4  UNL     1       5.519  -1.642  -1.180  1.00  0.00    -0.346 N 
HETATM   47  C5  UNL     1       4.225  -1.275  -1.211  1.00  0.00     0.185 A 
ATOM     48  H4  UNL     1       5.933  -2.371  -1.761  1.00  0.00     0.167 HD
ENDBRANCH   1  34
TORSDOF 11
