REMARK  5 active torsions:
REMARK  status: ('A' for Active; 'I' for Inactive)
REMARK    1  A    between atoms: O1_2  and  C2_3 
REMARK    2  A    between atoms: C4_5  and  C5_6 
REMARK       I    between atoms: C5_6  and  N1_8 
REMARK    3  A    between atoms: N1_8  and  C6_10 
REMARK    4  A    between atoms: C22_29  and  O3_30 
REMARK    5  A    between atoms: C24_32  and  O4_33 
ROOT
HETATM    1  C6  UNL     1      -1.371  -1.488   0.229  1.00  0.00     0.112 C 
HETATM    2  C7  UNL     1      -2.365  -0.496   0.617  1.00  0.00     0.055 C 
HETATM    3  C8  UNL     1      -3.735  -0.933   0.379  1.00  0.00     0.003 C 
HETATM    4  C9  UNL     1      -4.830  -0.239   0.602  1.00  0.00     0.046 C 
HETATM    5  C10 UNL     1      -6.042  -0.932   0.269  1.00  0.00     0.097 C 
HETATM    6  N2  UNL     1      -7.032  -1.479   0.011  1.00  0.00    -0.192 NA
HETATM    7  C11 UNL     1      -4.992   1.149   1.140  1.00  0.00     0.092 C 
HETATM    8  C12 UNL     1      -3.797   1.492   2.008  1.00  0.00     0.017 C 
HETATM    9  C13 UNL     1      -2.594   1.897   1.207  1.00  0.00     0.007 C 
HETATM   10  C14 UNL     1      -2.190   0.909   0.137  1.00  0.00     0.000 C 
HETATM   11  C15 UNL     1      -2.886   1.252  -1.128  1.00  0.00     0.035 C 
HETATM   12  C16 UNL     1      -4.033   2.183  -0.954  1.00  0.00     0.012 C 
HETATM   13  C17 UNL     1      -4.934   2.143   0.011  1.00  0.00     0.099 C 
HETATM   14  F1  UNL     1      -5.908   3.088  -0.007  1.00  0.00    -0.210 F 
HETATM   15  S1  UNL     1      -3.622  -2.603  -0.289  1.00  0.00    -0.121 SA
HETATM   16  C18 UNL     1      -1.856  -2.499  -0.751  1.00  0.00     0.026 C 
HETATM   17  C19 UNL     1      -1.626  -2.211  -2.178  1.00  0.00     0.029 C 
HETATM   18  C20 UNL     1      -1.285  -3.899  -0.474  1.00  0.00     0.029 C 
ENDROOT
BRANCH   1  19
HETATM   19  N1  UNL     1      -0.106  -0.893  -0.160  1.00  0.00    -0.350 N 
HETATM   20  C5  UNL     1       1.090  -1.097   0.581  1.00  0.00     0.252 C 
HETATM   21  O2  UNL     1       1.004  -1.834   1.615  1.00  0.00    -0.268 OA
ATOM     22  H1  UNL     1      -0.074  -0.308  -0.995  1.00  0.00     0.163 HD
BRANCH  20  23
HETATM   23  C4  UNL     1       2.372  -0.535   0.248  1.00  0.00     0.037 A 
HETATM   24  C3  UNL     1       2.580   0.278  -0.850  1.00  0.00     0.057 A 
HETATM   25  C2  UNL     1       3.829   0.807  -1.148  1.00  0.00     0.105 A 
HETATM   26  C24 UNL     1       4.897   0.512  -0.324  1.00  0.00     0.135 A 
HETATM   27  C22 UNL     1       4.719  -0.297   0.779  1.00  0.00     0.105 A 
HETATM   28  C21 UNL     1       3.468  -0.800   1.040  1.00  0.00     0.057 A 
BRANCH  25  29
HETATM   29  O1  UNL     1       4.074   1.625  -2.239  1.00  0.00    -0.353 OA
HETATM   30  C1  UNL     1       3.018   1.979  -3.145  1.00  0.00     0.210 C 
ENDBRANCH  25  29
BRANCH  26  31
HETATM   31  O4  UNL     1       6.154   1.030  -0.603  1.00  0.00    -0.351 OA
HETATM   32  C25 UNL     1       6.597   2.273  -0.093  1.00  0.00     0.210 C 
ENDBRANCH  26  31
BRANCH  27  33
HETATM   33  O3  UNL     1       5.810  -0.595   1.617  1.00  0.00    -0.353 OA
HETATM   34  C23 UNL     1       5.654  -1.421   2.753  1.00  0.00     0.210 C 
ENDBRANCH  27  33
ENDBRANCH  20  23
ENDBRANCH   1  19
TORSDOF 5
