REMARK  7 active torsions:
REMARK  status: ('A' for Active; 'I' for Inactive)
REMARK    1  A    between atoms: C4_4  and  C5_5 
REMARK    2  A    between atoms: C5_5  and  O1_6 
REMARK    3  A    between atoms: C5_5  and  N1_8 
REMARK    4  A    between atoms: C11_14  and  N2_15 
REMARK       I    between atoms: N2_15  and  C12_17 
REMARK    5  A    between atoms: C12_17  and  C13_19 
REMARK    6  A    between atoms: C13_19  and  N3_20 
REMARK    7  A    between atoms: N4_23  and  C16_24 
ROOT
HETATM    1  N2  UNL     1       0.994  -0.394  -1.167  1.00  0.00    -0.316 N 
ATOM      2  H2  UNL     1       0.092  -0.830  -1.359  1.00  0.00     0.169 HD
HETATM    3  C12 UNL     1       0.935   0.889  -0.627  1.00  0.00     0.261 C 
HETATM    4  O2  UNL     1       2.015   1.543  -0.405  1.00  0.00    -0.267 OA
ENDROOT
BRANCH   1   5
HETATM    5  C11 UNL     1       2.139  -1.184  -1.489  1.00  0.00     0.091 A 
HETATM    6  C4  UNL     1       3.424  -1.241  -1.048  1.00  0.00     0.050 A 
HETATM    7  C3  UNL     1       4.306  -1.941  -1.795  1.00  0.00     0.033 A 
HETATM    8  C2  UNL     1       3.846  -2.549  -2.938  1.00  0.00    -0.018 A 
HETATM    9  C1  UNL     1       4.654  -3.377  -3.917  1.00  0.00     0.056 C 
HETATM   10  S1  UNL     1       2.209  -2.142  -2.956  1.00  0.00    -0.076 SA
BRANCH   6  11
HETATM   11  C5  UNL     1       3.762  -0.844   0.348  1.00  0.00     0.151 C 
BRANCH  11  12
HETATM   12  O1  UNL     1       2.789  -0.764   1.223  1.00  0.00    -0.345 OA
ATOM     13  H1  UNL     1       3.004  -0.511   2.113  1.00  0.00     0.219 HD
ENDBRANCH  11  12
BRANCH  11  14
HETATM   14  N1  UNL     1       4.999  -0.524   0.896  1.00  0.00    -0.361 N 
HETATM   15  C6  UNL     1       6.230  -0.454   0.176  1.00  0.00     0.125 C 
HETATM   16  C7  UNL     1       7.097   0.597   0.894  1.00  0.00     0.020 C 
HETATM   17  C8  UNL     1       6.226   1.753   1.387  1.00  0.00     0.003 C 
HETATM   18  C9  UNL     1       5.332   1.260   2.515  1.00  0.00     0.020 C 
HETATM   19  C10 UNL     1       5.128  -0.231   2.344  1.00  0.00     0.125 C 
ENDBRANCH  11  14
ENDBRANCH   6  11
ENDBRANCH   1   5
BRANCH   3  20
HETATM   20  C13 UNL     1      -0.356   1.542  -0.296  1.00  0.00     0.161 C 
BRANCH  20  21
HETATM   21  N3  UNL     1      -1.469   0.723  -0.527  1.00  0.00    -0.379 N 
HETATM   22  C14 UNL     1      -1.705  -0.374   0.337  1.00  0.00     0.142 C 
HETATM   23  C15 UNL     1      -2.702  -0.111   1.428  1.00  0.00     0.142 C 
HETATM   24  N4  UNL     1      -3.736   0.818   1.125  1.00  0.00    -0.386 N 
HETATM   25  C22 UNL     1      -3.426   1.836   0.206  1.00  0.00     0.078 C 
HETATM   26  C23 UNL     1      -2.645   1.389  -1.006  1.00  0.00     0.166 C 
BRANCH  24  27
HETATM   27  C16 UNL     1      -5.053   0.299   1.143  1.00  0.00     0.083 C 
HETATM   28  C17 UNL     1      -6.145   1.300   0.992  1.00  0.00     0.025 C 
HETATM   29  C18 UNL     1      -6.839   1.238  -0.351  1.00  0.00     0.002 C 
HETATM   30  C19 UNL     1      -7.595  -0.060  -0.529  1.00  0.00     0.000 C 
HETATM   31  C20 UNL     1      -6.779  -1.130   0.194  1.00  0.00     0.002 C 
HETATM   32  C21 UNL     1      -5.290  -0.790   0.116  1.00  0.00     0.025 C 
ENDBRANCH  24  27
ENDBRANCH  20  21
ENDBRANCH   3  20
TORSDOF 7
