REMARK  8 active torsions:
REMARK  status: ('A' for Active; 'I' for Inactive)
REMARK    1  A    between atoms: C4_4  and  C5_5 
REMARK    2  A    between atoms: C5_5  and  N2_12 
REMARK    3  A    between atoms: N1_6  and  C6_8 
REMARK    4  A    between atoms: N2_12  and  C11_14 
REMARK    5  A    between atoms: C13_16  and  O1_17 
REMARK    6  A    between atoms: C14_19  and  C15_20 
REMARK    7  A    between atoms: C17_24  and  O4_25 
REMARK    8  A    between atoms: O4_25  and  C18_26 
ROOT
HETATM    1  C11 UNL     1       0.876   0.604   0.286  1.00  0.00     0.072 A 
HETATM    2  C12 UNL     1       0.726   1.852  -0.262  1.00  0.00     0.070 A 
HETATM    3  C13 UNL     1       1.761   2.537  -0.887  1.00  0.00     0.085 A 
HETATM    4  C14 UNL     1       2.988   1.957  -0.967  1.00  0.00     0.076 A 
HETATM    5  C16 UNL     1       3.156   0.696  -0.418  1.00  0.00     0.060 A 
HETATM    6  C17 UNL     1       2.139   0.007   0.204  1.00  0.00     0.097 A 
ENDROOT
BRANCH   1   7
HETATM    7  N2  UNL     1      -0.222  -0.035   0.889  1.00  0.00    -0.335 N 
HETATM    8  C10 UNL     1       0.006  -0.743   2.131  1.00  0.00     0.158 C 
BRANCH   7   9
HETATM    9  C5  UNL     1      -1.517   0.065   0.357  1.00  0.00     0.104 C 
HETATM   10  N1  UNL     1      -2.170   1.094   0.764  1.00  0.00    -0.368 N 
ATOM     11  H1  UNL     1      -1.630   1.672   1.408  1.00  0.00     0.161 HD
BRANCH   9  12
HETATM   12  C4  UNL     1      -2.111  -0.854  -0.546  1.00  0.00     0.050 C 
HETATM   13  C2  UNL     1      -1.718  -1.946  -1.113  1.00  0.00    -0.084 C 
HETATM   14  C1  UNL     1      -0.431  -2.648  -1.003  1.00  0.00     0.043 C 
HETATM   15  C3  UNL     1      -2.715  -2.633  -2.042  1.00  0.00     0.043 C 
ENDBRANCH   9  12
BRANCH  10  16
HETATM   16  C6  UNL     1      -3.438   1.600   0.530  1.00  0.00     0.021 C 
HETATM   17  C7  UNL     1      -3.588   2.900   1.354  1.00  0.00     0.037 C 
HETATM   18  C8  UNL     1      -4.600   0.741   0.944  1.00  0.00     0.037 C 
HETATM   19  C9  UNL     1      -3.592   2.027  -0.917  1.00  0.00     0.037 C 
ENDBRANCH  10  16
ENDBRANCH   7   9
ENDBRANCH   1   7
BRANCH   6  20
HETATM   20  O4  UNL     1       2.370  -1.234   0.729  1.00  0.00    -0.344 OA
BRANCH  20  21
HETATM   21  C18 UNL     1       3.520  -1.992   0.758  1.00  0.00     0.120 C 
HETATM   22  C19 UNL     1       3.263  -3.352   0.094  1.00  0.00     0.040 C 
HETATM   23  C20 UNL     1       3.929  -2.343   2.190  1.00  0.00     0.040 C 
ENDBRANCH  20  21
ENDBRANCH   6  20
BRANCH   3  24
HETATM   24  O1  UNL     1       1.579   3.799  -1.433  1.00  0.00    -0.360 OA
ATOM     25  H1  UNL     1       2.287   4.267  -1.860  1.00  0.00     0.217 HD
ENDBRANCH   3  24
BRANCH   4  26
HETATM   26  C15 UNL     1       4.074   2.661  -1.617  1.00  0.00     0.212 C 
HETATM   27  O2  UNL     1       5.194   2.103  -1.677  1.00  0.00    -0.644 OA
HETATM   28  O3  UNL     1       3.915   3.914  -2.166  1.00  0.00    -0.644 OA
ENDBRANCH   4  26
TORSDOF 8
