REMARK  20 active torsions:
REMARK  status: ('A' for Active; 'I' for Inactive)
REMARK    1  A    between atoms: C2_2  and  C3_3 
REMARK    2  A    between atoms: C3_3  and  C4_4 
REMARK    3  A    between atoms: C4_4  and  C5_5 
REMARK    4  A    between atoms: C5_5  and  O1_6 
REMARK    5  A    between atoms: O1_6  and  C6_7 
REMARK       I    between atoms: C6_7  and  N1_9 
REMARK    6  A    between atoms: N2_12  and  C9_13 
REMARK    7  A    between atoms: C9_13  and  O3_14 
REMARK    8  A    between atoms: C9_13  and  C10_16 
REMARK    9  A    between atoms: C10_16  and  C11_17 
REMARK   10  A    between atoms: C10_16  and  N3_23 
REMARK   11  A    between atoms: C11_17  and  C12_18 
REMARK   12  A    between atoms: C12_18  and  C13_19 
REMARK   13  A    between atoms: C13_19  and  O5_21 
REMARK       I    between atoms: N3_23  and  C15_25 
REMARK   14  A    between atoms: C15_25  and  C16_27 
REMARK   15  A    between atoms: C16_27  and  N4_28 
REMARK   16  A    between atoms: C16_27  and  C26_41 
REMARK       I    between atoms: N4_28  and  C17_30 
REMARK   17  A    between atoms: C17_30  and  O8_32 
REMARK   18  A    between atoms: O8_32  and  C18_33 
REMARK   19  A    between atoms: C18_33  and  C21_36 
REMARK   20  A    between atoms: C22_37  and  C23_38 
ROOT
HETATM    1  C10 UNL     1      -0.259  -1.741  -0.030  1.00  0.00     0.063 C 
ENDROOT
BRANCH   1   2
HETATM    2  C9  UNL     1      -1.302  -0.732  -0.056  1.00  0.00     0.161 C 
BRANCH   2   3
HETATM    3  N2  UNL     1      -2.669  -0.741  -0.316  1.00  0.00    -0.357 N 
HETATM    4  C8  UNL     1      -3.502  -1.832  -0.733  1.00  0.00     0.145 C 
HETATM    5  C7  UNL     1      -4.656  -1.266  -1.566  1.00  0.00     0.148 C 
HETATM    6  N1  UNL     1      -5.467  -0.510  -0.599  1.00  0.00    -0.325 N 
HETATM    7  C6  UNL     1      -6.860  -0.618  -0.675  1.00  0.00     0.362 C 
HETATM    8  C30 UNL     1      -4.794   0.310   0.388  1.00  0.00     0.148 C 
HETATM    9  O2  UNL     1      -7.429  -1.335  -1.536  1.00  0.00    -0.238 OA
HETATM   10  C29 UNL     1      -3.393   0.553  -0.135  1.00  0.00     0.145 C 
BRANCH   7  11
HETATM   11  O1  UNL     1      -7.619   0.113   0.259  1.00  0.00    -0.304 OA
BRANCH  11  12
HETATM   12  C5  UNL     1      -9.029  -0.014   0.164  1.00  0.00     0.180 C 
BRANCH  12  13
HETATM   13  C4  UNL     1      -9.653   0.821   1.215  1.00  0.00     0.027 C 
BRANCH  13  14
HETATM   14  C3  UNL     1      -9.410   2.276   1.199  1.00  0.00     0.002 C 
BRANCH  14  15
HETATM   15  C2  UNL     1      -9.885   3.061   0.033  1.00  0.00    -0.004 C 
HETATM   16  C1  UNL     1      -9.345   2.733  -1.303  1.00  0.00     0.005 C 
ENDBRANCH  14  15
ENDBRANCH  13  14
ENDBRANCH  12  13
ENDBRANCH  11  12
ENDBRANCH   7  11
ENDBRANCH   2   3
BRANCH   2  17
HETATM   17  O3  UNL     1      -0.860   0.497   0.229  1.00  0.00    -0.345 OA
ATOM     18  H3  UNL     1       0.073   0.503   0.407  1.00  0.00     0.219 HD
ENDBRANCH   2  17
ENDBRANCH   1   2
BRANCH   1  19
HETATM   19  C11 UNL     1      -0.452  -3.168  -0.198  1.00  0.00     0.071 C 
BRANCH  19  20
HETATM   20  C12 UNL     1      -1.221  -3.969   0.794  1.00  0.00     0.117 C 
BRANCH  20  21
HETATM   21  C13 UNL     1      -0.626  -4.006   2.159  1.00  0.00     0.258 C 
HETATM   22  O4  UNL     1       0.485  -3.508   2.375  1.00  0.00    -0.265 OA
BRANCH  21  23
HETATM   23  O5  UNL     1      -1.312  -4.603   3.206  1.00  0.00    -0.326 OA
HETATM   24  C14 UNL     1      -0.764  -4.652   4.521  1.00  0.00     0.213 C 
ENDBRANCH  21  23
ENDBRANCH  20  21
ENDBRANCH  19  20
ENDBRANCH   1  19
BRANCH   1  25
HETATM   25  N3  UNL     1       0.928  -1.269  -0.802  1.00  0.00    -0.325 N 
HETATM   26  C15 UNL     1       2.065  -0.773  -0.173  1.00  0.00     0.245 C 
HETATM   27  O6  UNL     1       2.018  -0.741   1.118  1.00  0.00    -0.271 OA
ATOM     28  H3  UNL     1       0.905  -1.311  -1.821  1.00  0.00     0.169 HD
BRANCH  26  29
HETATM   29  C16 UNL     1       3.275  -0.294  -0.795  1.00  0.00     0.182 C 
BRANCH  29  30
HETATM   30  N4  UNL     1       3.827   0.888  -0.113  1.00  0.00    -0.323 N 
HETATM   31  C17 UNL     1       5.046   0.848   0.601  1.00  0.00     0.362 C 
HETATM   32  O7  UNL     1       5.752  -0.175   0.716  1.00  0.00    -0.238 OA
ATOM     33  H4  UNL     1       3.311   1.767  -0.157  1.00  0.00     0.165 HD
BRANCH  31  34
HETATM   34  O8  UNL     1       5.499   2.003   1.215  1.00  0.00    -0.280 OA
BRANCH  34  35
HETATM   35  C18 UNL     1       6.677   2.109   1.951  1.00  0.00     0.128 C 
HETATM   36  C19 UNL     1       6.597   1.144   3.119  1.00  0.00     0.061 C 
HETATM   37  C20 UNL     1       6.726   3.504   2.543  1.00  0.00     0.061 C 
BRANCH  35  38
HETATM   38  C21 UNL     1       7.840   1.836   1.111  1.00  0.00    -0.068 C 
HETATM   39  C22 UNL     1       8.802   1.598   0.437  1.00  0.00    -0.099 C 
BRANCH  39  40
HETATM   40  C23 UNL     1       9.965   1.287  -0.371  1.00  0.00     0.057 C 
HETATM   41  C24 UNL     1      10.815   2.508  -0.654  1.00  0.00     0.023 C 
HETATM   42  C25 UNL     1       9.486   0.711  -1.679  1.00  0.00     0.023 C 
ENDBRANCH  39  40
ENDBRANCH  35  38
ENDBRANCH  34  35
ENDBRANCH  31  34
ENDBRANCH  29  30
BRANCH  29  43
HETATM   43  C26 UNL     1       3.328  -0.068  -2.252  1.00  0.00     0.009 C 
HETATM   44  C27 UNL     1       3.103  -1.348  -3.020  1.00  0.00     0.012 C 
HETATM   45  C28 UNL     1       2.244   0.909  -2.690  1.00  0.00     0.012 C 
ENDBRANCH  29  43
ENDBRANCH  26  29
ENDBRANCH   1  25
TORSDOF 20
