REMARK  9 active torsions:
REMARK  status: ('A' for Active; 'I' for Inactive)
REMARK    1  A    between atoms: C1_2  and  C2_4 
REMARK    2  A    between atoms: C3_6  and  O4_7 
REMARK    3  A    between atoms: O4_7  and  C4_8 
REMARK    4  A    between atoms: C6_11  and  C7_12 
REMARK    5  A    between atoms: C7_12  and  C8_13 
REMARK    6  A    between atoms: C14_19  and  O6_20 
REMARK    7  A    between atoms: C15_22  and  O7_23 
REMARK    8  A    between atoms: C16_25  and  O8_26 
REMARK    9  A    between atoms: C17_28  and  O9_29 
ROOT
HETATM    1  C2  UNL     1       4.654  -0.287  -0.763  1.00  0.00     0.256 C 
HETATM    2  O3  UNL     1       3.433  -0.776  -0.319  1.00  0.00    -0.340 OA
HETATM    3  C3  UNL     1       2.675   0.167   0.343  1.00  0.00     0.292 C 
HETATM    4  C15 UNL     1       3.444   1.230   1.035  1.00  0.00     0.204 C 
HETATM    5  C16 UNL     1       4.874   0.963   1.295  1.00  0.00     0.183 C 
HETATM    6  C17 UNL     1       5.483  -0.140   0.500  1.00  0.00     0.189 C 
ENDROOT
BRANCH   3   7
HETATM    7  O4  UNL     1       1.803   0.737  -0.550  1.00  0.00    -0.348 OA
BRANCH   7   8
HETATM    8  C4  UNL     1       0.484   0.530  -0.341  1.00  0.00     0.179 C 
HETATM    9  C5  UNL     1      -0.345   1.765  -0.104  1.00  0.00     0.203 C 
HETATM   10  O5  UNL     1      -1.624   1.170  -0.029  1.00  0.00    -0.381 OA
HETATM   11  C6  UNL     1      -1.712   0.294  -1.076  1.00  0.00     0.153 C 
HETATM   12  C14 UNL     1      -0.284  -0.123  -1.431  1.00  0.00     0.178 C 
BRANCH  11  13
HETATM   13  C7  UNL     1      -2.515  -0.909  -0.636  1.00  0.00     0.039 C 
BRANCH  13  14
HETATM   14  C8  UNL     1      -3.888  -0.505  -0.225  1.00  0.00    -0.012 C 
HETATM   15  C9  UNL     1      -3.966   0.460   0.928  1.00  0.00     0.005 C 
HETATM   16  C10 UNL     1      -5.234   0.222   1.735  1.00  0.00     0.000 C 
HETATM   17  C11 UNL     1      -6.381  -0.200   0.883  1.00  0.00     0.000 C 
HETATM   18  C12 UNL     1      -6.141  -1.404   0.025  1.00  0.00     0.000 C 
HETATM   19  C13 UNL     1      -4.680  -1.777   0.102  1.00  0.00     0.005 C 
ENDBRANCH  13  14
ENDBRANCH  11  13
BRANCH  12  20
HETATM   20  O6  UNL     1      -0.199  -1.512  -1.414  1.00  0.00    -0.390 OA
ATOM     21  H6  UNL     1      -0.690  -1.930  -2.111  1.00  0.00     0.210 HD
ENDBRANCH  12  20
ENDBRANCH   7   8
ENDBRANCH   3   7
BRANCH   4  22
HETATM   22  O7  UNL     1       2.838   1.557   2.273  1.00  0.00    -0.388 OA
ATOM     23  H7  UNL     1       3.331   2.238   2.716  1.00  0.00     0.210 HD
ENDBRANCH   4  22
BRANCH   1  24
HETATM   24  C1  UNL     1       5.234  -1.223  -1.728  1.00  0.00     0.206 C 
HETATM   25  O1  UNL     1       4.647  -2.278  -2.044  1.00  0.00    -0.646 OA
HETATM   26  O2  UNL     1       6.460  -0.939  -2.308  1.00  0.00    -0.646 OA
ENDBRANCH   1  24
BRANCH   5  27
HETATM   27  O8  UNL     1       5.660   2.118   1.064  1.00  0.00    -0.390 OA
ATOM     28  H8  UNL     1       6.579   1.946   1.231  1.00  0.00     0.210 HD
ENDBRANCH   5  27
BRANCH   6  29
HETATM   29  O9  UNL     1       6.811   0.141   0.203  1.00  0.00    -0.390 OA
ATOM     30  H9  UNL     1       7.330   0.233   0.993  1.00  0.00     0.210 HD
ENDBRANCH   6  29
TORSDOF 9
