REMARK  2 active torsions:
REMARK  status: ('A' for Active; 'I' for Inactive)
REMARK    1  A    between atoms: N3_11  and  N4_13 
REMARK    2  A    between atoms: C6_15  and  C7_17 
ROOT
HETATM    1  N1  UNL     1       3.680  -0.142  -2.744  1.00  0.00    -0.385 N 
ATOM      2  H11 UNL     1       3.082  -0.776  -3.274  1.00  0.00     0.157 HD
ATOM      3  H12 UNL     1       4.597   0.208  -3.021  1.00  0.00     0.157 HD
HETATM    4  C1  UNL     1       3.234   0.258  -1.608  1.00  0.00     0.101 C 
HETATM    5  C2  UNL     1       4.042   1.115  -0.891  1.00  0.00     0.065 C 
HETATM    6  C3  UNL     1       3.812   1.717   0.344  1.00  0.00     0.091 C 
HETATM    7  N2  UNL     1       2.760   1.519   1.127  1.00  0.00    -0.372 N 
ATOM      8  H2  UNL     1       2.768   2.075   1.982  1.00  0.00     0.164 HD
HETATM    9  C4  UNL     1       1.680   0.717   1.002  1.00  0.00     0.137 C 
HETATM   10  C5  UNL     1       1.438  -0.137  -0.035  1.00  0.00     0.137 C 
HETATM   11  N3  UNL     1       0.526  -1.001   0.171  1.00  0.00    -0.283 N 
ATOM     12  H3  UNL     1       0.287  -1.675  -0.556  1.00  0.00     0.188 HD
HETATM   13  N8  UNL     1       2.011  -0.209  -1.238  1.00  0.00    -0.327 N 
ATOM     14  H8  UNL     1       1.467  -0.669  -1.968  1.00  0.00     0.169 HD
ENDROOT
BRANCH  11  15
HETATM   15  N4  UNL     1      -0.137  -1.024   1.376  1.00  0.00    -0.284 N 
HETATM   16  C6  UNL     1      -1.381  -0.833   1.577  1.00  0.00     0.157 C 
HETATM   17  N5  UNL     1      -1.889  -0.894   2.883  1.00  0.00    -0.079 NA
ATOM     18  H4  UNL     1       0.431  -1.215   2.201  1.00  0.00     0.188 HD
BRANCH  16  19
HETATM   19  C7  UNL     1      -2.242  -0.556   0.459  1.00  0.00     0.077 A 
HETATM   20  C8  UNL     1      -3.589  -0.353   0.715  1.00  0.00     0.050 A 
HETATM   21  C9  UNL     1      -4.493  -0.082  -0.292  1.00  0.00     0.091 A 
HETATM   22  N6  UNL     1      -4.013  -0.022  -1.548  1.00  0.00    -0.362 N 
HETATM   23  C10 UNL     1      -2.699  -0.223  -1.776  1.00  0.00     0.180 A 
ATOM     24  H6  UNL     1      -4.642   0.175  -2.326  1.00  0.00     0.165 HD
HETATM   25  N7  UNL     1      -1.809  -0.485  -0.818  1.00  0.00    -0.350 N 
ATOM     26  H7  UNL     1      -0.825  -0.628  -1.044  1.00  0.00     0.166 HD
ENDBRANCH  16  19
ENDBRANCH  11  15
TORSDOF 2
