REMARK  5 active torsions:
REMARK  status: ('A' for Active; 'I' for Inactive)
REMARK    1  A    between atoms: C5_5  and  C6_6 
REMARK    2  A    between atoms: C6_6  and  O1_7 
REMARK    3  A    between atoms: O1_7  and  C7_8 
REMARK    4  A    between atoms: C7_8  and  O3_10 
REMARK    5  A    between atoms: O3_10  and  C8_11 
ROOT
HETATM    1  C1  UNL     1      -0.479   4.984  -0.203  1.00  0.00     0.010 C 
HETATM    2  C2  UNL     1      -0.388   3.492   0.154  1.00  0.00    -0.014 C 
HETATM    3  C3  UNL     1       0.555   2.826  -0.794  1.00  0.00     0.005 C 
HETATM    4  C4  UNL     1      -0.012   1.614  -1.460  1.00  0.00     0.012 C 
HETATM    5  C5  UNL     1      -0.671   0.665  -0.441  1.00  0.00    -0.013 C 
HETATM    6  C15 UNL     1      -0.990  -0.647  -1.068  1.00  0.00     0.012 C 
HETATM    7  C16 UNL     1      -1.033  -1.821  -0.145  1.00  0.00     0.001 C 
HETATM    8  C17 UNL     1      -1.524  -3.070  -0.786  1.00  0.00     0.000 C 
HETATM    9  C18 UNL     1      -2.981  -3.197  -1.004  1.00  0.00     0.000 C 
HETATM   10  C19 UNL     1      -3.821  -3.212   0.253  1.00  0.00     0.000 C 
HETATM   11  C20 UNL     1      -4.915  -2.161   0.057  1.00  0.00     0.002 C 
HETATM   12  C21 UNL     1      -4.798  -1.012   1.037  1.00  0.00     0.027 C 
HETATM   13  C22 UNL     1      -5.287   0.298   0.459  1.00  0.00     0.232 C 
HETATM   14  N1  UNL     1      -4.266   1.340   0.460  1.00  0.00    -0.075 N 
ATOM     15  H11 UNL     1      -3.965   1.593   1.401  1.00  0.00     0.277 HD
ATOM     16  H12 UNL     1      -4.634   2.250   0.182  1.00  0.00     0.277 HD
HETATM   17  C23 UNL     1      -3.159   0.903  -0.383  1.00  0.00     0.238 C 
HETATM   18  C24 UNL     1      -1.840   1.432   0.110  1.00  0.00     0.026 C 
HETATM   19  C25 UNL     1      -1.789   2.906  -0.013  1.00  0.00    -0.008 C 
HETATM   20  C26 UNL     1      -2.366   3.530  -1.233  1.00  0.00     0.011 C 
ENDROOT
BRANCH   5  21
HETATM   21  C6  UNL     1       0.427   0.426   0.577  1.00  0.00     0.191 C 
BRANCH  21  22
HETATM   22  O1  UNL     1       1.512  -0.151  -0.170  1.00  0.00    -0.297 OA
BRANCH  22  23
HETATM   23  C7  UNL     1       2.712  -0.503   0.383  1.00  0.00     0.411 C 
HETATM   24  O2  UNL     1       2.909  -0.329   1.593  1.00  0.00    -0.229 OA
BRANCH  23  25
HETATM   25  O3  UNL     1       3.683  -1.045  -0.412  1.00  0.00    -0.256 OA
BRANCH  25  26
HETATM   26  C8  UNL     1       4.932  -1.437   0.041  1.00  0.00     0.084 A 
HETATM   27  C9  UNL     1       5.184  -2.711   0.503  1.00  0.00     0.040 A 
HETATM   28  C10 UNL     1       6.428  -3.106   0.955  1.00  0.00     0.042 A 
HETATM   29  C11 UNL     1       7.470  -2.183   0.945  1.00  0.00     0.105 A 
HETATM   30  C12 UNL     1       7.249  -0.896   0.487  1.00  0.00     0.107 A 
HETATM   31  O5  UNL     1       8.790  -2.306   1.333  1.00  0.00    -0.323 OA
HETATM   32  C13 UNL     1       5.974  -0.537   0.038  1.00  0.00     0.077 A 
HETATM   33  O4  UNL     1       8.462  -0.232   0.603  1.00  0.00    -0.323 OA
HETATM   34  C14 UNL     1       9.486  -1.174   0.853  1.00  0.00     0.352 C 
ENDBRANCH  25  26
ENDBRANCH  23  25
ENDBRANCH  22  23
ENDBRANCH  21  22
ENDBRANCH   5  21
TORSDOF 5
