REMARK  10 active torsions:
REMARK  status: ('A' for Active; 'I' for Inactive)
REMARK    1  A    between atoms: C2_2  and  C4_4 
REMARK    2  A    between atoms: C4_4  and  C5_5 
REMARK    3  A    between atoms: C4_4  and  O3_28 
REMARK    4  A    between atoms: C6_6  and  C7_7 
REMARK    5  A    between atoms: C7_7  and  C8_8 
REMARK    6  A    between atoms: C8_8  and  C10_10 
REMARK    7  A    between atoms: C11_11  and  O1_12 
REMARK    8  A    between atoms: C20_22  and  O2_23 
REMARK    9  A    between atoms: C20_22  and  C21_25 
REMARK   10  A    between atoms: O3_28  and  C24_29 
ROOT
HETATM    1  C10 UNL     1      -0.482  -0.548  -0.433  1.00  0.00     0.027 C 
HETATM    2  C11 UNL     1      -0.536   0.936  -0.484  1.00  0.00     0.124 C 
HETATM    3  C12 UNL     1      -2.039   1.258  -0.378  1.00  0.00     0.045 C 
HETATM    4  C13 UNL     1      -2.745  -0.055  -0.471  1.00  0.00    -0.003 C 
HETATM    5  C14 UNL     1      -2.774  -0.409  -1.960  1.00  0.00     0.019 C 
HETATM    6  C15 UNL     1      -1.750  -0.964   0.257  1.00  0.00    -0.028 C 
HETATM    7  C16 UNL     1      -1.944  -2.416  -0.027  1.00  0.00     0.016 C 
HETATM    8  C17 UNL     1      -1.760  -0.694   1.723  1.00  0.00     0.010 C 
HETATM    9  C18 UNL     1      -3.044  -0.218   2.298  1.00  0.00     0.004 C 
HETATM   10  C19 UNL     1      -4.257  -0.512   1.476  1.00  0.00     0.039 C 
HETATM   11  C20 UNL     1      -4.126  -0.147   0.017  1.00  0.00     0.069 C 
ENDROOT
BRANCH   1  12
HETATM   12  C8  UNL     1       0.777  -1.193  -0.076  1.00  0.00    -0.008 C 
HETATM   13  C9  UNL     1       1.379  -1.018   1.261  1.00  0.00     0.011 C 
BRANCH  12  14
HETATM   14  C7  UNL     1       1.912  -0.843  -1.061  1.00  0.00     0.031 C 
BRANCH  14  15
HETATM   15  C6  UNL     1       3.067  -1.754  -0.861  1.00  0.00    -0.027 C 
HETATM   16  C5  UNL     1       4.288  -1.441  -0.537  1.00  0.00     0.006 C 
BRANCH  16  17
HETATM   17  C4  UNL     1       4.850  -0.119  -0.284  1.00  0.00     0.182 C 
BRANCH  17  18
HETATM   18  C2  UNL     1       5.445  -0.034   1.081  1.00  0.00    -0.060 C 
HETATM   19  C1  UNL     1       5.389  -1.100   1.858  1.00  0.00     0.017 C 
HETATM   20  C3  UNL     1       6.091   1.205   1.588  1.00  0.00     0.045 C 
ENDBRANCH  17  18
BRANCH  17  21
HETATM   21  O3  UNL     1       5.862   0.262  -1.190  1.00  0.00    -0.308 OA
BRANCH  21  22
HETATM   22  C24 UNL     1       5.819   1.422  -1.940  1.00  0.00     0.255 C 
HETATM   23  C25 UNL     1       6.928   1.751  -2.875  1.00  0.00     0.126 C 
HETATM   24  O4  UNL     1       4.812   2.161  -1.789  1.00  0.00    -0.266 OA
ENDBRANCH  21  22
ENDBRANCH  17  21
ENDBRANCH  16  17
ENDBRANCH  14  15
ENDBRANCH  12  14
ENDBRANCH   1  12
BRANCH   2  25
HETATM   25  O1  UNL     1       0.185   1.595   0.477  1.00  0.00    -0.395 OA
ATOM     26  H1  UNL     1       0.150   2.544   0.444  1.00  0.00     0.210 HD
ENDBRANCH   2  25
BRANCH  11  27
HETATM   27  O2  UNL     1      -4.714  -1.254  -0.665  1.00  0.00    -0.389 OA
ATOM     28  H2  UNL     1      -5.608  -1.314  -0.349  1.00  0.00     0.210 HD
ENDBRANCH  11  27
BRANCH  11  29
HETATM   29  C21 UNL     1      -5.025   0.983  -0.336  1.00  0.00     0.012 C 
HETATM   30  C22 UNL     1      -6.409   0.615   0.256  1.00  0.00     0.012 C 
HETATM   31  C23 UNL     1      -4.725   2.332   0.217  1.00  0.00     0.012 C 
ENDBRANCH  11  29
TORSDOF 10
