REMARK  9 active torsions:
REMARK  status: ('A' for Active; 'I' for Inactive)
REMARK    1  A    between atoms: N2_3  and  C2_5 
REMARK    2  A    between atoms: C2_5  and  C3_6 
REMARK    3  A    between atoms: C3_6  and  C4_7 
REMARK    4  A    between atoms: C4_7  and  C5_8 
REMARK    5  A    between atoms: C5_8  and  C6_9 
REMARK    6  A    between atoms: C6_9  and  C7_10 
REMARK    7  A    between atoms: C7_10  and  N3_11 
REMARK    8  A    between atoms: N3_11  and  N4_13 
REMARK    9  A    between atoms: N4_13  and  C8_15 
ROOT
HETATM    1  N1  UNL     1       7.370   2.853   0.635  1.00  0.00    -0.172 NA
HETATM    2  C1  UNL     1       6.313   2.413   0.506  1.00  0.00     0.177 C 
HETATM    3  N2  UNL     1       5.016   1.884   0.368  1.00  0.00    -0.329 N 
ATOM      4  H2  UNL     1       4.207   2.466   0.586  1.00  0.00     0.171 HD
ENDROOT
BRANCH   3   5
HETATM    5  C2  UNL     1       4.821   0.528  -0.078  1.00  0.00     0.131 C 
BRANCH   5   6
HETATM    6  C3  UNL     1       3.322   0.256  -0.125  1.00  0.00     0.020 C 
BRANCH   6   7
HETATM    7  C4  UNL     1       3.061  -1.153  -0.587  1.00  0.00     0.002 C 
BRANCH   7   8
HETATM    8  C5  UNL     1       1.585  -1.396  -0.661  1.00  0.00     0.002 C 
BRANCH   8   9
HETATM    9  C6  UNL     1       0.984  -1.206   0.706  1.00  0.00     0.021 C 
BRANCH   9  10
HETATM   10  C7  UNL     1      -0.516  -1.477   0.688  1.00  0.00     0.139 C 
BRANCH  10  11
HETATM   11  N3  UNL     1      -1.050  -1.285   2.008  1.00  0.00    -0.336 N 
ATOM     12  H3  UNL     1      -0.457  -1.496   2.810  1.00  0.00     0.180 HD
BRANCH  11  13
HETATM   13  N4  UNL     1      -2.227  -0.864   2.218  1.00  0.00    -0.301 N 
ATOM     14  H4  UNL     1      -2.580  -0.735   3.166  1.00  0.00     0.186 HD
BRANCH  13  15
HETATM   15  C8  UNL     1      -3.038  -0.577   1.085  1.00  0.00     0.108 A 
HETATM   16  C9  UNL     1      -3.714  -1.517   0.312  1.00  0.00     0.147 A 
HETATM   17  N5  UNL     1      -3.720  -2.931   0.511  1.00  0.00    -0.080 NA
HETATM   18  N6  UNL     1      -4.347  -0.818  -0.641  1.00  0.00    -0.328 N 
HETATM   19  C10 UNL     1      -4.127   0.506  -0.538  1.00  0.00     0.127 A 
ATOM     20  H6  UNL     1      -4.930  -1.242  -1.363  1.00  0.00     0.168 HD
HETATM   21  N7  UNL     1      -4.545   1.581  -1.257  1.00  0.00    -0.318 N 
HETATM   22  C13 UNL     1      -3.299   0.665   0.552  1.00  0.00     0.107 A 
HETATM   23  C11 UNL     1      -4.173   2.829  -0.938  1.00  0.00     0.183 A 
ATOM     24  H7  UNL     1      -5.157   1.435  -2.060  1.00  0.00     0.170 HD
HETATM   25 CL1  UNL     1      -4.730   4.218  -1.890  1.00  0.00    -0.045 Cl
HETATM   26  N8  UNL     1      -3.366   3.006   0.121  1.00  0.00    -0.299 N 
HETATM   27  C12 UNL     1      -2.927   1.955   0.865  1.00  0.00     0.264 A 
ATOM     28  H8  UNL     1      -3.075   3.951   0.373  1.00  0.00     0.171 HD
HETATM   29  O1  UNL     1      -2.174   2.111   1.855  1.00  0.00    -0.267 OA
ENDBRANCH  13  15
ENDBRANCH  11  13
ENDBRANCH  10  11
ENDBRANCH   9  10
ENDBRANCH   8   9
ENDBRANCH   7   8
ENDBRANCH   6   7
ENDBRANCH   5   6
ENDBRANCH   3   5
TORSDOF 9
