REMARK  9 active torsions:
REMARK  status: ('A' for Active; 'I' for Inactive)
REMARK       I    between atoms: C1_2  and  N1_3 
REMARK    1  A    between atoms: C1_2  and  C5_8 
REMARK    2  A    between atoms: N1_3  and  C2_5 
REMARK       I    between atoms: C5_8  and  N2_10 
REMARK    3  A    between atoms: N2_10  and  C6_12 
REMARK    4  A    between atoms: C11_19  and  C12_20 
REMARK    5  A    between atoms: C13_21  and  C14_22 
REMARK    6  A    between atoms: C14_22  and  N4_23 
REMARK       I    between atoms: N4_23  and  C15_25 
REMARK       I    between atoms: C15_25  and  N5_27 
REMARK    7  A    between atoms: C24_37  and  C25_38 
REMARK       I    between atoms: C25_38  and  N6_40 
REMARK    8  A    between atoms: C28_43  and  C29_44 
REMARK    9  A    between atoms: C29_44  and  C30_45 
ROOT
HETATM    1  C6  UNL     1      -1.299   3.318  -2.313  1.00  0.00     0.108 C 
HETATM    2  C7  UNL     1      -0.852   3.452  -3.754  1.00  0.00     0.029 C 
HETATM    3  C8  UNL     1       0.342   2.643  -4.117  1.00  0.00     0.022 C 
HETATM    4  C9  UNL     1       1.101   2.104  -2.948  1.00  0.00     0.126 C 
HETATM    5  N3  UNL     1       0.224   1.457  -1.980  1.00  0.00    -0.344 N 
HETATM    6  C10 UNL     1       0.868   0.430  -1.246  1.00  0.00     0.228 C 
HETATM    7  O3  UNL     1       1.651  -0.263  -1.942  1.00  0.00    -0.273 OA
HETATM    8  C11 UNL     1       0.775   0.052   0.158  1.00  0.00     0.105 C 
HETATM    9  C20 UNL     1      -0.652  -0.144   0.635  1.00  0.00     0.016 C 
HETATM   10  C21 UNL     1      -1.006   0.981   1.597  1.00  0.00     0.007 C 
HETATM   11  C22 UNL     1      -1.088   2.151   0.607  1.00  0.00     0.008 C 
HETATM   12  C23 UNL     1      -1.778   1.552  -0.572  1.00  0.00     0.024 C 
HETATM   13  C24 UNL     1      -1.666   0.033  -0.436  1.00  0.00     0.089 C 
HETATM   14  C36 UNL     1      -1.126   1.905  -1.889  1.00  0.00     0.114 C 
ENDROOT
BRANCH   8  15
HETATM   15  C12 UNL     1       1.415  -1.295   0.322  1.00  0.00    -0.015 C 
HETATM   16  C13 UNL     1       2.422  -1.612   1.070  1.00  0.00    -0.010 C 
BRANCH  16  17
HETATM   17  C14 UNL     1       3.232  -0.769   1.967  1.00  0.00     0.151 C 
BRANCH  17  18
HETATM   18  N4  UNL     1       4.641  -0.777   1.702  1.00  0.00    -0.340 N 
HETATM   19  C15 UNL     1       5.277  -0.388   0.506  1.00  0.00     0.318 C 
HETATM   20  O4  UNL     1       4.624   0.022  -0.479  1.00  0.00    -0.247 OA
HETATM   21  N5  UNL     1       6.686  -0.443   0.353  1.00  0.00    -0.330 N 
HETATM   22  C16 UNL     1       7.375  -0.074  -0.866  1.00  0.00     0.153 C 
HETATM   23  C19 UNL     1       7.557  -0.887   1.447  1.00  0.00     0.153 C 
HETATM   24  C17 UNL     1       8.339  -1.242  -1.139  1.00  0.00     0.187 C 
HETATM   25  O5  UNL     1       9.316  -1.283  -0.177  1.00  0.00    -0.388 OA
HETATM   26  C18 UNL     1       8.989  -0.750   1.042  1.00  0.00     0.187 C 
ATOM     27  H4  UNL     1       5.246  -1.098   2.458  1.00  0.00     0.164 HD
ENDBRANCH  17  18
ENDBRANCH  16  17
ENDBRANCH   8  15
BRANCH  13  28
HETATM   28  C25 UNL     1      -2.969  -0.582  -0.213  1.00  0.00     0.224 C 
HETATM   29  O6  UNL     1      -3.946   0.161   0.107  1.00  0.00    -0.273 OA
HETATM   30  N6  UNL     1      -3.190  -1.966  -0.336  1.00  0.00    -0.351 N 
HETATM   31  C26 UNL     1      -4.502  -2.604  -0.093  1.00  0.00     0.126 C 
HETATM   32  C35 UNL     1      -2.218  -2.948  -0.728  1.00  0.00     0.130 C 
HETATM   33  C27 UNL     1      -4.337  -3.957  -0.767  1.00  0.00     0.026 C 
HETATM   34  C28 UNL     1      -2.921  -4.276  -0.420  1.00  0.00     0.005 C 
BRANCH  34  35
HETATM   35  C29 UNL     1      -2.588  -4.612   0.978  1.00  0.00     0.011 C 
BRANCH  35  36
HETATM   36  C30 UNL     1      -3.201  -5.798   1.618  1.00  0.00    -0.014 C 
HETATM   37  C31 UNL     1      -2.917  -7.081   0.877  1.00  0.00     0.005 C 
HETATM   38  C32 UNL     1      -3.952  -8.040   1.403  1.00  0.00     0.000 C 
HETATM   39  C33 UNL     1      -5.183  -7.115   1.417  1.00  0.00     0.000 C 
HETATM   40  C34 UNL     1      -4.613  -5.809   1.984  1.00  0.00     0.005 C 
ENDBRANCH  35  36
ENDBRANCH  34  35
ENDBRANCH  13  28
BRANCH   1  41
HETATM   41  N2  UNL     1      -0.680   4.316  -1.513  1.00  0.00    -0.346 N 
HETATM   42  C5  UNL     1      -1.448   5.375  -0.963  1.00  0.00     0.309 C 
HETATM   43  O2  UNL     1      -2.699   5.372  -1.228  1.00  0.00    -0.262 OA
ATOM     44  H2  UNL     1       0.323   4.271  -1.333  1.00  0.00     0.163 HD
BRANCH  42  45
HETATM   45  C1  UNL     1      -0.877   6.432  -0.136  1.00  0.00     0.309 C 
HETATM   46  O1  UNL     1       0.341   6.459   0.149  1.00  0.00    -0.262 OA
HETATM   47  N1  UNL     1      -1.728   7.450   0.352  1.00  0.00    -0.348 N 
ATOM     48  H1  UNL     1      -2.721   7.428   0.121  1.00  0.00     0.163 HD
BRANCH  47  49
HETATM   49  C2  UNL     1      -1.212   8.517   1.170  1.00  0.00     0.085 A 
HETATM   50  C3  UNL     1      -1.790   9.886   1.070  1.00  0.00     0.027 A 
HETATM   51  C4  UNL     1      -2.104   9.044   2.253  1.00  0.00     0.027 A 
ENDBRANCH  47  49
ENDBRANCH  42  45
ENDBRANCH   1  41
TORSDOF 9
