REMARK  1 active torsions:
REMARK  status: ('A' for Active; 'I' for Inactive)
REMARK    1  A    between atoms: S1_2  and  C2_3 
ROOT
HETATM    1  C2  UNL     1       2.150  -0.476  -0.603  1.00  0.00     0.285 C 
HETATM    2  O1  UNL     1       1.097   0.270  -1.210  1.00  0.00    -0.329 OA
HETATM    3  C3  UNL     1       0.023   0.168  -0.352  1.00  0.00     0.175 C 
HETATM    4  C4  UNL     1      -0.814  -0.997  -0.776  1.00  0.00     0.069 C 
HETATM    5  C5  UNL     1      -1.704  -1.433   0.379  1.00  0.00     0.005 C 
HETATM    6  C6  UNL     1      -3.046  -0.812   0.193  1.00  0.00     0.000 C 
HETATM    7  C7  UNL     1      -3.108   0.659   0.418  1.00  0.00     0.000 C 
HETATM    8  C8  UNL     1      -1.799   1.272   0.850  1.00  0.00     0.005 C 
HETATM    9  C9  UNL     1      -0.833   1.419  -0.305  1.00  0.00     0.069 C 
HETATM   10  O2  UNL     1       0.576   0.038   0.949  1.00  0.00    -0.281 OA
HETATM   11  C10 UNL     1       1.943  -0.141   0.798  1.00  0.00     0.301 C 
HETATM   12  O3  UNL     1       2.753  -0.009   1.745  1.00  0.00    -0.261 OA
ENDROOT
BRANCH   1  13
HETATM   13  S1  UNL     1       3.667   0.072  -1.338  1.00  0.00    -0.132 SA
HETATM   14  C1  UNL     1       5.083   0.231  -0.285  1.00  0.00     0.093 C 
ENDBRANCH   1  13
TORSDOF 1
