REMARK  11 active torsions:
REMARK  status: ('A' for Active; 'I' for Inactive)
REMARK    1  A    between atoms: O1_1  and  C1_3 
REMARK    2  A    between atoms: C1_3  and  C2_4 
REMARK    3  A    between atoms: C3_6  and  S1_7 
REMARK    4  A    between atoms: S1_7  and  C4_8 
REMARK    5  A    between atoms: C4_8  and  C5_9 
REMARK    6  A    between atoms: C9_13  and  N1_14 
REMARK    7  A    between atoms: C10_16  and  C11_17 
REMARK    8  A    between atoms: C14_20  and  C15_21 
REMARK    9  A    between atoms: C23_31  and  O4_32 
REMARK   10  A    between atoms: C24_34  and  O5_35 
REMARK   11  A    between atoms: C25_37  and  O6_38 
ROOT
HETATM    1  C5  UNL     1      -1.398   1.357   0.654  1.00  0.00     0.133 C 
HETATM    2  C6  UNL     1      -2.178   1.264  -0.604  1.00  0.00     0.033 C 
HETATM    3  C7  UNL     1      -1.303   1.868  -1.712  1.00  0.00     0.007 C 
HETATM    4  C8  UNL     1      -0.084   1.316  -1.708  1.00  0.00     0.054 C 
HETATM    5  C9  UNL     1       0.168   0.268  -0.672  1.00  0.00     0.220 C 
HETATM    6  O3  UNL     1      -0.225   0.593   0.601  1.00  0.00    -0.361 OA
ENDROOT
BRANCH   1   7
HETATM    7  C4  UNL     1      -2.152   1.294   1.917  1.00  0.00     0.108 C 
BRANCH   7   8
HETATM    8  S1  UNL     1      -3.126  -0.108   2.324  1.00  0.00    -0.132 SA
BRANCH   8   9
HETATM    9  C3  UNL     1      -4.657  -0.392   1.504  1.00  0.00     0.214 C 
HETATM   10  O2  UNL     1      -4.586  -0.700   0.180  1.00  0.00    -0.363 OA
HETATM   11  C2  UNL     1      -5.719  -1.340  -0.311  1.00  0.00     0.178 C 
HETATM   12  C25 UNL     1      -6.919  -1.157   0.557  1.00  0.00     0.180 C 
HETATM   13  C24 UNL     1      -7.012   0.168   1.234  1.00  0.00     0.181 C 
HETATM   14  C23 UNL     1      -5.694   0.698   1.749  1.00  0.00     0.188 C 
BRANCH  11  15
HETATM   15  C1  UNL     1      -5.907  -0.903  -1.738  1.00  0.00     0.198 C 
BRANCH  15  16
HETATM   16  O1  UNL     1      -6.994  -1.456  -2.366  1.00  0.00    -0.398 OA
ATOM     17  H1  UNL     1      -7.113  -1.180  -3.267  1.00  0.00     0.209 HD
ENDBRANCH  15  16
ENDBRANCH  11  15
BRANCH  12  18
HETATM   18  O6  UNL     1      -8.063  -1.298  -0.249  1.00  0.00    -0.390 OA
ATOM     19  H6  UNL     1      -8.827  -1.182   0.304  1.00  0.00     0.210 HD
ENDBRANCH  12  18
BRANCH  13  20
HETATM   20  O5  UNL     1      -7.661   1.133   0.438  1.00  0.00    -0.390 OA
ATOM     21  H5  UNL     1      -8.490   0.800   0.114  1.00  0.00     0.210 HD
ENDBRANCH  13  20
BRANCH  14  22
HETATM   22  O4  UNL     1      -5.423   1.877   1.104  1.00  0.00    -0.389 OA
ATOM     23  H4  UNL     1      -6.069   2.556   1.257  1.00  0.00     0.210 HD
ENDBRANCH  14  22
ENDBRANCH   8   9
ENDBRANCH   7   8
ENDBRANCH   1   7
BRANCH   5  24
HETATM   24  N1  UNL     1       1.601   0.044  -0.644  1.00  0.00    -0.372 N 
HETATM   25  C10 UNL     1       2.430   0.690   0.104  1.00  0.00     0.096 C 
ATOM     26  H1  UNL     1       1.980  -0.676  -1.260  1.00  0.00     0.161 HD
BRANCH  25  27
HETATM   27  C11 UNL     1       3.838   0.304  -0.025  1.00  0.00    -0.021 A 
HETATM   28  C12 UNL     1       4.262  -0.683  -0.887  1.00  0.00     0.013 A 
HETATM   29  C13 UNL     1       5.592  -1.006  -0.970  1.00  0.00     0.013 A 
HETATM   30  C14 UNL     1       6.526  -0.349  -0.192  1.00  0.00    -0.026 A 
HETATM   31  C21 UNL     1       6.086   0.636   0.665  1.00  0.00     0.013 A 
HETATM   32  C22 UNL     1       4.747   0.982   0.768  1.00  0.00     0.013 A 
BRANCH  30  33
HETATM   33  C15 UNL     1       7.930  -0.709  -0.296  1.00  0.00    -0.026 A 
HETATM   34  C16 UNL     1       8.722  -0.583   0.821  1.00  0.00     0.015 A 
HETATM   35  C17 UNL     1      10.070  -0.918   0.764  1.00  0.00     0.043 A 
HETATM   36  C18 UNL     1      10.652  -1.380  -0.399  1.00  0.00     0.116 A 
HETATM   37  F1  UNL     1      11.959  -1.701  -0.442  1.00  0.00    -0.206 F 
HETATM   38  C19 UNL     1       9.849  -1.502  -1.513  1.00  0.00     0.043 A 
HETATM   39  C20 UNL     1       8.504  -1.170  -1.460  1.00  0.00     0.015 A 
ENDBRANCH  30  33
ENDBRANCH  25  27
ENDBRANCH   5  24
TORSDOF 11
