REMARK  9 active torsions:
REMARK  status: ('A' for Active; 'I' for Inactive)
REMARK    1  A    between atoms: N1_1  and  C1_5 
REMARK    2  A    between atoms: C1_5  and  C2_6 
REMARK    3  A    between atoms: C1_5  and  C4_10 
REMARK    4  A    between atoms: C2_6  and  C3_7 
REMARK    5  A    between atoms: C4_10  and  C5_12 
REMARK    6  A    between atoms: C5_12  and  N2_13 
REMARK    7  A    between atoms: C5_12  and  C21_34 
REMARK       I    between atoms: N2_13  and  C6_15 
REMARK    8  A    between atoms: C6_15  and  C7_17 
REMARK       I    between atoms: N3_21  and  C10_22 
REMARK    9  A    between atoms: C10_22  and  C11_24 
ROOT
HETATM    1  N2  UNL     1      -2.097  -0.342   1.015  1.00  0.00    -0.343 N 
ATOM      2  H2  UNL     1      -2.368  -1.206   1.484  1.00  0.00     0.163 HD
HETATM    3  C6  UNL     1      -0.732   0.062   1.028  1.00  0.00     0.251 C 
HETATM    4  O4  UNL     1      -0.448   1.123   0.444  1.00  0.00    -0.270 OA
ENDROOT
BRANCH   1   5
HETATM    5  C5  UNL     1      -3.114   0.457   0.344  1.00  0.00     0.190 C 
BRANCH   5   6
HETATM    6  C4  UNL     1      -4.194   0.832   1.314  1.00  0.00     0.184 C 
HETATM    7  O3  UNL     1      -4.089   0.389   2.450  1.00  0.00    -0.293 OA
BRANCH   6   8
HETATM    8  C1  UNL     1      -5.352   1.685   0.986  1.00  0.00     0.265 C 
BRANCH   8   9
HETATM    9  N1  UNL     1      -5.051   2.373  -0.306  1.00  0.00    -0.068 N 
ATOM     10  H13 UNL     1      -5.042   1.748  -1.112  1.00  0.00     0.275 HD
ATOM     11  H12 UNL     1      -5.803   2.979  -0.634  1.00  0.00     0.275 HD
ATOM     12  H11 UNL     1      -4.168   2.859  -0.152  1.00  0.00     0.275 HD
ENDBRANCH   8   9
BRANCH   8  13
HETATM   13  C2  UNL     1      -6.640   0.976   0.761  1.00  0.00     0.153 C 
BRANCH  13  14
HETATM   14  C3  UNL     1      -7.196   0.234   1.877  1.00  0.00     0.174 C 
HETATM   15  O1  UNL     1      -6.770   0.186   3.040  1.00  0.00    -0.648 OA
HETATM   16  O2  UNL     1      -8.361  -0.538   1.650  1.00  0.00    -0.648 OA
ENDBRANCH  13  14
ENDBRANCH   8  13
ENDBRANCH   6   8
ENDBRANCH   5   6
BRANCH   5  17
HETATM   17  C21 UNL     1      -3.714  -0.456  -0.677  1.00  0.00    -0.025 A 
HETATM   18  C22 UNL     1      -4.177  -1.694  -0.311  1.00  0.00     0.013 A 
HETATM   19  C23 UNL     1      -4.731  -2.578  -1.241  1.00  0.00     0.046 A 
HETATM   20  C24 UNL     1      -4.815  -2.200  -2.557  1.00  0.00     0.154 A 
HETATM   21  F1  UNL     1      -5.348  -3.023  -3.507  1.00  0.00    -0.203 F 
HETATM   22  C25 UNL     1      -4.352  -0.964  -2.921  1.00  0.00     0.155 A 
HETATM   23  F2  UNL     1      -4.431  -0.581  -4.228  1.00  0.00    -0.203 F 
HETATM   24  C26 UNL     1      -3.802  -0.089  -1.994  1.00  0.00     0.055 A 
ENDBRANCH   5  17
ENDBRANCH   1   5
BRANCH   3  25
HETATM   25  C7  UNL     1       0.217  -0.827   1.742  1.00  0.00     0.241 C 
HETATM   26  S1  UNL     1       0.026  -0.612   3.536  1.00  0.00    -0.133 SA
HETATM   27  C8  UNL     1       1.600   0.344   3.733  1.00  0.00     0.096 C 
HETATM   28  C9  UNL     1       2.363  -0.526   2.700  1.00  0.00     0.138 C 
HETATM   29  N3  UNL     1       1.609  -0.567   1.502  1.00  0.00    -0.329 N 
HETATM   30  C10 UNL     1       2.192  -0.418   0.182  1.00  0.00     0.230 C 
HETATM   31  O5  UNL     1       1.332  -0.578  -0.773  1.00  0.00    -0.272 OA
BRANCH  30  32
HETATM   32  C11 UNL     1       3.570  -0.124  -0.185  1.00  0.00     0.042 C 
HETATM   33  C12 UNL     1       4.572  -1.194   0.158  1.00  0.00     0.024 C 
HETATM   34  C13 UNL     1       5.894  -0.935  -0.530  1.00  0.00    -0.013 C 
HETATM   35  C14 UNL     1       6.441   0.361   0.044  1.00  0.00     0.009 C 
HETATM   36  C18 UNL     1       5.807  -0.840  -2.015  1.00  0.00     0.009 C 
HETATM   37  C15 UNL     1       5.477   1.449  -0.311  1.00  0.00    -0.013 C 
HETATM   38  C16 UNL     1       5.397   1.582  -1.818  1.00  0.00     0.009 C 
HETATM   39  C20 UNL     1       4.098   1.203   0.249  1.00  0.00     0.024 C 
HETATM   40  C17 UNL     1       4.848   0.295  -2.338  1.00  0.00    -0.013 C 
HETATM   41  C19 UNL     1       3.539  -0.047  -1.744  1.00  0.00     0.024 C 
ENDBRANCH  30  32
ENDBRANCH   3  25
TORSDOF 9
