REMARK  8 active torsions:
REMARK  status: ('A' for Active; 'I' for Inactive)
REMARK    1  A    between atoms: C2_2  and  O1_4 
REMARK    2  A    between atoms: O1_4  and  C4_5 
REMARK    3  A    between atoms: C8_10  and  N1_11 
REMARK    4  A    between atoms: N1_11  and  C9_13 
REMARK    5  A    between atoms: C12_16  and  S1_17 
REMARK    6  A    between atoms: S1_17  and  C13_18 
REMARK    7  A    between atoms: C16_25  and  N3_26 
REMARK    8  A    between atoms: C18_32  and  S2_33 
ROOT
HETATM    1  C4  UNL     1      -2.766  -0.881  -0.810  1.00  0.00     0.114 A 
HETATM    2  C5  UNL     1      -1.775  -1.857  -0.706  1.00  0.00     0.070 A 
HETATM    3 CL1  UNL     1      -2.107  -3.585  -0.772  1.00  0.00    -0.081 Cl
HETATM    4  C6  UNL     1      -0.440  -1.528  -0.584  1.00  0.00     0.044 A 
HETATM    5  C7  UNL     1      -0.035  -0.213  -0.559  1.00  0.00     0.039 A 
HETATM    6  C8  UNL     1       1.321   0.045  -0.405  1.00  0.00     0.134 A 
HETATM    7  N2  UNL     1       1.681   1.339  -0.357  1.00  0.00    -0.176 N 
ATOM      8  H2  UNL     1       2.667   1.577  -0.246  1.00  0.00     0.186 HD
HETATM    9  C16 UNL     1       0.777   2.326  -0.451  1.00  0.00     0.678 A 
HETATM   10  N4  UNL     1      -0.550   2.040  -0.602  1.00  0.00    -0.190 N 
ATOM     11  H4  UNL     1      -1.218   2.808  -0.670  1.00  0.00     0.184 HD
HETATM   12  C17 UNL     1      -0.998   0.784  -0.663  1.00  0.00     0.087 A 
HETATM   13  C18 UNL     1      -2.359   0.434  -0.793  1.00  0.00     0.122 A 
ENDROOT
BRANCH   6  14
HETATM   14  N1  UNL     1       2.118  -0.931  -0.323  1.00  0.00    -0.341 N 
ATOM     15  H1  UNL     1       1.700  -1.860  -0.377  1.00  0.00     0.167 HD
BRANCH  14  16
HETATM   16  C9  UNL     1       3.509  -0.886  -0.167  1.00  0.00     0.033 A 
HETATM   17  C10 UNL     1       4.003  -0.877   1.134  1.00  0.00     0.031 A 
HETATM   18  C11 UNL     1       5.347  -0.835   1.424  1.00  0.00     0.021 A 
HETATM   19  C12 UNL     1       6.252  -0.800   0.402  1.00  0.00     0.005 A 
HETATM   20  C14 UNL     1       5.790  -0.809  -0.900  1.00  0.00     0.021 A 
HETATM   21  C15 UNL     1       4.422  -0.852  -1.181  1.00  0.00     0.031 A 
BRANCH  19  22
HETATM   22  S1  UNL     1       8.012  -0.746   0.711  1.00  0.00    -0.061 SA
BRANCH  22  23
HETATM   23  C13 UNL     1       8.485   1.013   0.814  1.00  0.00     0.420 C 
HETATM   24  F1  UNL     1       8.294   1.563  -0.440  1.00  0.00    -0.202 F 
HETATM   25  F2  UNL     1       7.632   1.661   1.711  1.00  0.00    -0.202 F 
ENDBRANCH  22  23
ENDBRANCH  19  22
ENDBRANCH  14  16
ENDBRANCH   6  14
BRANCH   9  26
HETATM   26  N3  UNL     1       1.139   3.551  -0.401  1.00  0.00    -0.234 N 
ATOM     27  H32 UNL     1       2.130   3.765  -0.288  1.00  0.00     0.174 HD
ATOM     28  H31 UNL     1       0.452   4.301  -0.472  1.00  0.00     0.174 HD
ENDBRANCH   9  26
BRANCH  13  29
HETATM   29  S2  UNL     1      -3.461   1.743  -1.071  1.00  0.00     0.176 S 
HETATM   30  C19 UNL     1      -4.146   2.418   0.406  1.00  0.00     0.167 C 
HETATM   31  O2  UNL     1      -2.883   2.827  -1.991  1.00  0.00    -0.223 OA
HETATM   32  O3  UNL     1      -4.669   1.297  -1.915  1.00  0.00    -0.223 OA
ENDBRANCH  13  29
BRANCH   1  33
HETATM   33  O1  UNL     1      -4.067  -1.259  -0.914  1.00  0.00    -0.343 OA
BRANCH  33  34
HETATM   34  C2  UNL     1      -4.980  -1.504   0.138  1.00  0.00     0.121 C 
HETATM   35  C1  UNL     1      -5.091  -2.988   0.499  1.00  0.00     0.040 C 
HETATM   36  C3  UNL     1      -6.361  -0.935  -0.041  1.00  0.00     0.040 C 
ENDBRANCH  33  34
ENDBRANCH   1  33
TORSDOF 8
