REMARK  6 active torsions:
REMARK  status: ('A' for Active; 'I' for Inactive)
REMARK    1  A    between atoms: C2_4  and  C3_5 
REMARK    2  A    between atoms: C3_5  and  C4_6 
REMARK    3  A    between atoms: C4_6  and  O3_7 
REMARK    4  A    between atoms: C9_15  and  N1_16 
REMARK    5  A    between atoms: N1_16  and  C10_18 
REMARK    6  A    between atoms: C10_18  and  C11_19 
ROOT
HETATM    1  O1  UNL     1       0.368   2.105  -0.853  1.00  0.00    -0.262 OA
HETATM    2  C1  UNL     1      -0.153   1.080  -0.359  1.00  0.00     0.287 C 
HETATM    3  O2  UNL     1      -1.547   0.939  -0.185  1.00  0.00    -0.308 OA
HETATM    4  C2  UNL     1      -1.925  -0.366   0.307  1.00  0.00     0.078 C 
HETATM    5  C7  UNL     1      -1.248  -0.532   1.676  1.00  0.00     0.042 C 
HETATM    6  C8  UNL     1       0.231  -0.482   1.548  1.00  0.00     0.044 C 
HETATM    7  C9  UNL     1       0.606  -0.095   0.103  1.00  0.00     0.115 C 
HETATM    8  C17 UNL     1       0.125  -1.245  -0.769  1.00  0.00     0.044 C 
HETATM    9  C18 UNL     1      -1.380  -1.383  -0.619  1.00  0.00     0.042 C 
ENDROOT
BRANCH   7  10
HETATM   10  N1  UNL     1       1.994   0.132   0.060  1.00  0.00    -0.401 N 
ATOM     11  H1  UNL     1       2.404   0.888   0.609  1.00  0.00     0.154 HD
BRANCH  10  12
HETATM   12  C10 UNL     1       2.820  -0.684  -0.741  1.00  0.00     0.154 C 
BRANCH  12  13
HETATM   13  C11 UNL     1       4.229  -0.223  -0.409  1.00  0.00    -0.041 A 
HETATM   14  C12 UNL     1       4.511   1.119  -0.262  1.00  0.00     0.012 A 
HETATM   15  C13 UNL     1       5.754   1.591   0.078  1.00  0.00     0.043 A 
HETATM   16  C14 UNL     1       6.778   0.697   0.284  1.00  0.00     0.116 A 
HETATM   17  F1  UNL     1       8.022   1.142   0.618  1.00  0.00    -0.206 F 
HETATM   18  C15 UNL     1       6.514  -0.656   0.138  1.00  0.00     0.043 A 
HETATM   19  C16 UNL     1       5.249  -1.125  -0.207  1.00  0.00     0.012 A 
ENDBRANCH  12  13
ENDBRANCH  10  12
ENDBRANCH   7  10
BRANCH   4  20
HETATM   20  C3  UNL     1      -3.383  -0.380   0.574  1.00  0.00     0.140 C 
BRANCH  20  21
HETATM   21  C4  UNL     1      -4.279  -0.099  -0.586  1.00  0.00     0.282 C 
HETATM   22  O4  UNL     1      -5.581  -0.012  -0.157  1.00  0.00    -0.331 OA
HETATM   23  C5  UNL     1      -5.721   1.351   0.196  1.00  0.00     0.200 C 
HETATM   24  C6  UNL     1      -5.048   1.970  -1.038  1.00  0.00     0.200 C 
HETATM   25  O5  UNL     1      -3.941   1.165  -1.141  1.00  0.00    -0.331 OA
BRANCH  21  26
HETATM   26  O3  UNL     1      -4.175  -1.055  -1.581  1.00  0.00    -0.343 OA
ATOM     27  H3  UNL     1      -4.745  -0.876  -2.319  1.00  0.00     0.215 HD
ENDBRANCH  21  26
ENDBRANCH  20  21
ENDBRANCH   4  20
TORSDOF 6
