REMARK  6 active torsions:
REMARK  status: ('A' for Active; 'I' for Inactive)
REMARK    1  A    between atoms: C2_2  and  O1_3 
REMARK    2  A    between atoms: O1_3  and  C3_4 
REMARK    3  A    between atoms: C3_4  and  C4_6 
REMARK    4  A    between atoms: C5_7  and  O3_8 
REMARK    5  A    between atoms: C7_11  and  N1_12 
REMARK    6  A    between atoms: C9_16  and  C10_17 
ROOT
HETATM    1  C4  UNL     1      -1.460  -0.355  -1.052  1.00  0.00     0.125 C 
HETATM    2  C5  UNL     1      -0.344   0.614  -1.379  1.00  0.00     0.134 C 
HETATM    3  C6  UNL     1       0.860  -0.039  -1.954  1.00  0.00     0.058 C 
HETATM    4  C7  UNL     1       1.658  -0.900  -1.074  1.00  0.00     0.100 C 
HETATM    5  C12 UNL     1       0.936  -1.685  -0.046  1.00  0.00     0.050 C 
HETATM    6  C13 UNL     1       0.065  -0.908   0.880  1.00  0.00     0.023 C 
HETATM    7  C14 UNL     1      -1.117  -1.297   0.067  1.00  0.00     0.008 C 
HETATM    8  C15 UNL     1      -2.301  -1.852   0.802  1.00  0.00     0.020 C 
HETATM    9  C16 UNL     1      -0.264  -2.419  -0.534  1.00  0.00     0.113 C 
HETATM   10  C17 UNL     1      -0.418  -3.737   0.192  1.00  0.00     0.053 C 
HETATM   11  F1  UNL     1      -0.406  -2.598  -1.876  1.00  0.00    -0.242 F 
ENDROOT
BRANCH   4  12
HETATM   12  N1  UNL     1       2.771  -0.219  -0.425  1.00  0.00    -0.345 N 
HETATM   13  C8  UNL     1       3.865  -0.797   0.103  1.00  0.00     0.183 A 
HETATM   14  N2  UNL     1       4.684   0.160   0.620  1.00  0.00    -0.346 N 
HETATM   15  C9  UNL     1       4.120   1.346   0.427  1.00  0.00     0.126 A 
ATOM     16  H2  UNL     1       5.580  -0.006   1.078  1.00  0.00     0.167 HD
HETATM   17  C11 UNL     1       2.927   1.102  -0.226  1.00  0.00     0.129 A 
BRANCH  15  18
HETATM   18  C10 UNL     1       4.594   2.684   0.795  1.00  0.00     0.228 C 
HETATM   19  O4  UNL     1       3.926   3.709   0.532  1.00  0.00    -0.643 OA
HETATM   20  O5  UNL     1       5.806   2.858   1.451  1.00  0.00    -0.643 OA
ENDBRANCH  15  18
ENDBRANCH   4  12
BRANCH   2  21
HETATM   21  O3  UNL     1      -0.872   1.425  -2.419  1.00  0.00    -0.395 OA
ATOM     22  H3  UNL     1      -0.172   2.033  -2.624  1.00  0.00     0.210 HD
ENDBRANCH   2  21
BRANCH   1  23
HETATM   23  C3  UNL     1      -2.638   0.464  -0.674  1.00  0.00     0.266 C 
HETATM   24  O2  UNL     1      -3.697   0.361  -1.337  1.00  0.00    -0.265 OA
BRANCH  23  25
HETATM   25  O1  UNL     1      -2.637   1.349   0.386  1.00  0.00    -0.321 OA
BRANCH  25  26
HETATM   26  C2  UNL     1      -3.821   2.100   0.680  1.00  0.00     0.174 C 
HETATM   27  C1  UNL     1      -3.601   3.001   1.870  1.00  0.00     0.034 C 
ENDBRANCH  25  26
ENDBRANCH  23  25
ENDBRANCH   1  23
TORSDOF 6
