REMARK  4 active torsions:
REMARK  status: ('A' for Active; 'I' for Inactive)
REMARK    1  A    between atoms: C5_7  and  C6_8 
REMARK    2  A    between atoms: C9_11  and  C10_12 
REMARK    3  A    between atoms: C10_12  and  N3_16 
REMARK    4  A    between atoms: C15_21  and  C17_23 
ROOT
HETATM    1  C10 UNL     1      -0.239   0.076  -0.928  1.00  0.00     0.111 C 
HETATM    2  N2  UNL     1      -0.377   1.121  -1.595  1.00  0.00    -0.385 N 
ATOM      3  H21 UNL     1      -1.291   1.462  -1.892  1.00  0.00     0.157 HD
ATOM      4  H22 UNL     1       0.565   1.426  -1.838  1.00  0.00     0.157 HD
ENDROOT
BRANCH   1   5
HETATM    5  C9  UNL     1       1.046  -0.404  -0.511  1.00  0.00     0.042 A 
HETATM    6  C2  UNL     1       1.371  -1.577   0.110  1.00  0.00     0.020 A 
HETATM    7  C1  UNL     1       0.635  -2.861   0.194  1.00  0.00     0.069 C 
HETATM    8  N1  UNL     1       2.645  -1.559   0.589  1.00  0.00    -0.362 N 
HETATM    9  C3  UNL     1       3.163  -0.412   0.291  1.00  0.00     0.017 A 
ATOM     10  H1  UNL     1       3.108  -2.315   1.093  1.00  0.00     0.165 HD
HETATM   11  C4  UNL     1       4.572  -0.057   0.653  1.00  0.00     0.069 C 
HETATM   12  C5  UNL     1       2.199   0.387  -0.418  1.00  0.00     0.004 A 
BRANCH  12  13
HETATM   13  C6  UNL     1       2.634   1.692  -0.754  1.00  0.00    -0.074 C 
HETATM   14  C7  UNL     1       2.174   2.630  -1.756  1.00  0.00     0.044 C 
HETATM   15  C8  UNL     1       2.804   2.499   0.613  1.00  0.00     0.044 C 
ENDBRANCH  12  13
ENDBRANCH   1   5
BRANCH   1  16
HETATM   16  N3  UNL     1      -1.595  -0.363  -0.578  1.00  0.00    -0.352 N 
HETATM   17  C11 UNL     1      -2.178  -1.477  -1.237  1.00  0.00     0.125 C 
HETATM   18  C12 UNL     1      -2.959  -2.430  -0.370  1.00  0.00     0.020 C 
HETATM   19  C13 UNL     1      -2.959  -1.937   1.050  1.00  0.00     0.004 C 
HETATM   20  C14 UNL     1      -3.450  -0.526   1.013  1.00  0.00     0.036 C 
HETATM   21  C15 UNL     1      -2.421   0.370   0.345  1.00  0.00     0.089 C 
HETATM   22  C16 UNL     1      -1.595   0.986   1.468  1.00  0.00     0.044 C 
BRANCH  21  23
HETATM   23  C17 UNL     1      -3.308   1.429  -0.292  1.00  0.00     0.380 C 
HETATM   24  F1  UNL     1      -2.812   2.450  -0.941  1.00  0.00    -0.212 F 
HETATM   25  F2  UNL     1      -4.177   1.895   0.731  1.00  0.00    -0.212 F 
ENDBRANCH  21  23
ENDBRANCH   1  16
TORSDOF 4
