REMARK  8 active torsions:
REMARK  status: ('A' for Active; 'I' for Inactive)
REMARK    1  A    between atoms: N1_1  and  N2_4 
REMARK       I    between atoms: N2_4  and  C1_5 
REMARK    2  A    between atoms: C1_5  and  C2_7 
REMARK    3  A    between atoms: C2_7  and  C16_30 
REMARK    4  A    between atoms: C3_8  and  C4_9 
REMARK    5  A    between atoms: C3_8  and  N5_24 
REMARK       I    between atoms: C4_9  and  N3_11 
REMARK    6  A    between atoms: N3_11  and  N4_13 
REMARK       I    between atoms: N4_13  and  C5_15 
REMARK    7  A    between atoms: C5_15  and  C6_17 
REMARK    8  A    between atoms: C6_17  and  C7_18 
ROOT
HETATM    1  C2  UNL     1      -3.469  -0.570   0.108  1.00  0.00     0.091 C 
HETATM    2  C3  UNL     1      -2.189  -0.810   0.070  1.00  0.00     0.127 C 
ENDROOT
BRANCH   2   3
HETATM    3  C4  UNL     1      -1.128   0.168  -0.155  1.00  0.00     0.288 C 
HETATM    4  O2  UNL     1      -1.320   1.376  -0.369  1.00  0.00    -0.264 OA
HETATM    5  N3  UNL     1       0.257  -0.225  -0.144  1.00  0.00    -0.262 N 
ATOM      6  H3  UNL     1       0.491  -1.203   0.025  1.00  0.00     0.190 HD
BRANCH   5   7
HETATM    7  N4  UNL     1       1.286   0.687  -0.356  1.00  0.00    -0.267 N 
HETATM    8  C5  UNL     1       2.646   0.310  -0.356  1.00  0.00     0.240 C 
HETATM    9  O3  UNL     1       2.952  -0.884  -0.160  1.00  0.00    -0.272 OA
ATOM     10  H4  UNL     1       1.048   1.666  -0.518  1.00  0.00     0.190 HD
BRANCH   8  11
HETATM   11  C6  UNL     1       3.702   1.298  -0.583  1.00  0.00     0.143 C 
BRANCH  11  12
HETATM   12  C7  UNL     1       5.056   0.750  -0.553  1.00  0.00    -0.049 A 
HETATM   13  C8  UNL     1       5.774   0.686   0.631  1.00  0.00     0.007 A 
HETATM   14  C9  UNL     1       7.054   0.177   0.706  1.00  0.00     0.001 A 
HETATM   15  C10 UNL     1       7.642  -0.286  -0.450  1.00  0.00     0.000 A 
HETATM   16  C11 UNL     1       6.948  -0.232  -1.640  1.00  0.00     0.001 A 
HETATM   17  C12 UNL     1       5.675   0.277  -1.698  1.00  0.00     0.007 A 
ENDBRANCH  11  12
ENDBRANCH   8  11
ENDBRANCH   5   7
ENDBRANCH   2   3
BRANCH   2  18
HETATM   18  N5  UNL     1      -1.718  -2.139   0.262  1.00  0.00    -0.311 N 
HETATM   19  C13 UNL     1      -1.363  -2.618   1.462  1.00  0.00     0.115 A 
HETATM   20  C14 UNL     1      -0.908  -3.900   1.326  1.00  0.00     0.106 A 
HETATM   21  N6  UNL     1      -0.995  -4.187   0.012  1.00  0.00    -0.360 N 
HETATM   22  C15 UNL     1      -1.490  -3.111  -0.634  1.00  0.00     0.188 A 
ATOM     23  H6  UNL     1      -0.730  -5.071  -0.422  1.00  0.00     0.166 HD
ENDBRANCH   2  18
BRANCH   1  24
HETATM   24  C1  UNL     1      -4.468  -1.605   0.329  1.00  0.00     0.348 C 
HETATM   25  N2  UNL     1      -5.814  -1.249   0.351  1.00  0.00    -0.288 NA
HETATM   26  O1  UNL     1      -4.217  -2.791   0.501  1.00  0.00    -0.249 OA
BRANCH  25  27
HETATM   27  N1  UNL     1      -6.905  -0.961   0.389  1.00  0.00    -0.276 N 
ATOM     28  H12 UNL     1      -6.161  -1.176   1.053  1.00  0.00     0.191 HD
ATOM     29  H11 UNL     1      -7.891  -0.700   0.405  1.00  0.00     0.191 HD
ENDBRANCH  25  27
ENDBRANCH   1  24
BRANCH   1  30
HETATM   30  C16 UNL     1      -4.039   0.789   0.021  1.00  0.00    -0.017 A 
HETATM   31  C17 UNL     1      -4.883   1.141  -0.996  1.00  0.00     0.012 A 
HETATM   32  C18 UNL     1      -5.489   2.405  -1.031  1.00  0.00     0.001 A 
HETATM   33  C19 UNL     1      -5.240   3.315  -0.036  1.00  0.00     0.000 A 
HETATM   34  C20 UNL     1      -4.392   2.967   0.992  1.00  0.00     0.001 A 
HETATM   35  C21 UNL     1      -3.801   1.701   1.004  1.00  0.00     0.012 A 
ENDBRANCH   1  30
TORSDOF 8
