REMARK  8 active torsions:
REMARK  status: ('A' for Active; 'I' for Inactive)
REMARK    1  A    between atoms: C2_2  and  C3_3 
REMARK    2  A    between atoms: C8_9  and  N1_10 
REMARK    3  A    between atoms: N1_10  and  C9_12 
REMARK    4  A    between atoms: C9_12  and  C10_13 
REMARK    5  A    between atoms: C10_13  and  S1_14 
REMARK    6  A    between atoms: S1_14  and  C11_15 
REMARK    7  A    between atoms: C12_20  and  C13_21 
REMARK    8  A    between atoms: N4_25  and  O2_27 
ROOT
HETATM    1  C9  UNL     1      -1.137  -1.358  -0.600  1.00  0.00     0.111 C 
HETATM    2  N4  UNL     1      -0.966  -2.505  -0.103  1.00  0.00    -0.256 N 
ATOM      3  H4  UNL     1      -1.789  -3.106  -0.068  1.00  0.00     0.195 HD
ENDROOT
BRANCH   1   4
HETATM    4  N1  UNL     1      -2.481  -1.068  -1.048  1.00  0.00    -0.343 N 
ATOM      5  H1  UNL     1      -2.795  -1.400  -1.960  1.00  0.00     0.167 HD
BRANCH   4   6
HETATM    6  C8  UNL     1      -3.365  -0.323  -0.223  1.00  0.00     0.043 A 
HETATM    7  C3  UNL     1      -4.610   0.054  -0.642  1.00  0.00    -0.009 A 
HETATM    8  C4  UNL     1      -5.460   0.733   0.243  1.00  0.00     0.032 A 
HETATM    9  C5  UNL     1      -5.053   1.019   1.515  1.00  0.00     0.011 A 
HETATM   10 BR1  UNL     1      -6.171   1.943   2.769  1.00  0.00    -0.051 Br
HETATM   11  C6  UNL     1      -3.791   0.644   1.953  1.00  0.00     0.021 A 
HETATM   12  C7  UNL     1      -2.968  -0.019   1.082  1.00  0.00     0.031 A 
BRANCH   7  13
HETATM   13  C2  UNL     1      -5.163  -0.186  -1.959  1.00  0.00     0.003 C 
HETATM   14  C1  UNL     1      -4.589  -0.002  -3.108  1.00  0.00     0.012 C 
ENDBRANCH   7  13
ENDBRANCH   4   6
ENDBRANCH   1   4
BRANCH   1  15
HETATM   15  C10 UNL     1      -0.062  -0.365  -0.728  1.00  0.00     0.161 C 
BRANCH  15  16
HETATM   16  S1  UNL     1       1.488  -0.977  -0.101  1.00  0.00    -0.077 SA
BRANCH  16  17
HETATM   17  C11 UNL     1       2.808   0.215  -0.248  1.00  0.00     0.203 A 
HETATM   18  N2  UNL     1       2.763   1.461  -0.754  1.00  0.00    -0.272 N 
HETATM   19  N3  UNL     1       3.963   1.978  -0.662  1.00  0.00    -0.281 N 
ATOM     20  H2  UNL     1       1.939   1.922  -1.141  1.00  0.00     0.189 HD
HETATM   21  C12 UNL     1       4.780   1.064  -0.096  1.00  0.00     0.145 A 
ATOM     22  H3  UNL     1       4.234   2.913  -0.966  1.00  0.00     0.189 HD
HETATM   23  O1  UNL     1       4.034   0.017   0.134  1.00  0.00    -0.272 OA
BRANCH  21  24
HETATM   24  C13 UNL     1       6.236   1.244   0.193  1.00  0.00     0.062 A 
HETATM   25  C14 UNL     1       7.148   0.077   0.119  1.00  0.00     0.013 A 
HETATM   26  C15 UNL     1       6.766   0.556   1.466  1.00  0.00     0.013 A 
ENDBRANCH  21  24
ENDBRANCH  16  17
ENDBRANCH  15  16
ENDBRANCH   1  15
BRANCH   2  27
HETATM   27  O2  UNL     1       0.177  -3.033   0.389  1.00  0.00    -0.288 OA
ATOM     28  H2  UNL     1       0.306  -3.897   0.763  1.00  0.00     0.244 HD
ENDBRANCH   2  27
TORSDOF 8
