REMARK  8 active torsions:
REMARK  status: ('A' for Active; 'I' for Inactive)
REMARK    1  A    between atoms: C5_6  and  C6_7 
REMARK    2  A    between atoms: C7_8  and  C8_9 
REMARK    3  A    between atoms: C8_9  and  O1_12 
REMARK    4  A    between atoms: C14_17  and  C15_18 
REMARK    5  A    between atoms: C15_18  and  C17_23 
REMARK    6  A    between atoms: N1_19  and  O2_21 
REMARK    7  A    between atoms: C22_31  and  O4_32 
REMARK    8  A    between atoms: C24_34  and  O5_35 
ROOT
HETATM    1  C1  UNL     1      -0.210  -4.315  -1.160  1.00  0.00     0.103 C 
HETATM    2  C2  UNL     1       0.179  -3.178  -0.910  1.00  0.00    -0.145 C 
HETATM    3  C3  UNL     1       0.654  -1.877  -0.621  1.00  0.00     0.053 A 
HETATM    4  C4  UNL     1       1.946  -1.606  -0.260  1.00  0.00     0.153 A 
HETATM    5  F1  UNL     1       2.799  -2.680  -0.182  1.00  0.00    -0.203 F 
HETATM    6  C5  UNL     1       2.384  -0.326   0.015  1.00  0.00     0.058 A 
HETATM    7  C11 UNL     1       1.492   0.717  -0.077  1.00  0.00     0.036 A 
HETATM    8  C12 UNL     1       0.154   0.468  -0.447  1.00  0.00    -0.015 A 
HETATM    9  C13 UNL     1      -0.231  -0.798  -0.706  1.00  0.00    -0.011 A 
HETATM   10  C14 UNL     1      -1.671  -0.832  -1.063  1.00  0.00     0.115 A 
HETATM   11  C18 UNL     1      -2.063   0.606  -1.005  1.00  0.00     0.004 A 
HETATM   12  C19 UNL     1      -0.976   1.360  -0.628  1.00  0.00    -0.014 A 
HETATM   13  C20 UNL     1      -1.001   2.738  -0.472  1.00  0.00     0.035 A 
HETATM   14  C21 UNL     1      -2.175   3.404  -0.704  1.00  0.00     0.048 A 
HETATM   15 BR1  UNL     1      -2.248   5.278  -0.502  1.00  0.00    -0.048 Br
HETATM   16  C22 UNL     1      -3.266   2.661  -1.082  1.00  0.00     0.119 A 
HETATM   17  C24 UNL     1      -3.251   1.293  -1.240  1.00  0.00     0.108 A 
ENDROOT
BRANCH   6  18
HETATM   18  C6  UNL     1       3.756  -0.111   0.389  1.00  0.00    -0.061 C 
HETATM   19  C7  UNL     1       4.910   0.049   0.708  1.00  0.00    -0.064 C 
BRANCH  19  20
HETATM   20  C8  UNL     1       6.302   0.251   1.073  1.00  0.00     0.114 C 
HETATM   21  C9  UNL     1       7.159  -0.586   0.144  1.00  0.00     0.060 C 
HETATM   22  C10 UNL     1       6.652   1.726   0.938  1.00  0.00     0.060 C 
BRANCH  20  23
HETATM   23  O1  UNL     1       6.468  -0.139   2.403  1.00  0.00    -0.378 OA
ATOM     24  H1  UNL     1       7.378  -0.007   2.642  1.00  0.00     0.211 HD
ENDBRANCH  20  23
ENDBRANCH  19  20
ENDBRANCH   6  18
BRANCH  10  25
HETATM   25  C15 UNL     1      -2.404  -1.686  -0.107  1.00  0.00     0.110 C 
HETATM   26  N1  UNL     1      -2.015  -1.674   1.123  1.00  0.00    -0.265 N 
ATOM     27  H1  UNL     1      -1.224  -1.075   1.360  1.00  0.00     0.194 HD
BRANCH  26  28
HETATM   28  O2  UNL     1      -2.575  -2.394   2.125  1.00  0.00    -0.285 OA
HETATM   29  C16 UNL     1      -3.366  -1.865   3.152  1.00  0.00     0.237 C 
ENDBRANCH  26  28
BRANCH  25  30
HETATM   30  C17 UNL     1      -3.554  -2.453  -0.464  1.00  0.00     0.280 C 
HETATM   31  N2  UNL     1      -4.071  -2.623  -1.763  1.00  0.00    -0.056 NA
HETATM   32  O3  UNL     1      -4.239  -3.092   0.431  1.00  0.00    -0.270 OA
ENDBRANCH  25  30
ENDBRANCH  10  25
BRANCH  17  33
HETATM   33  O5  UNL     1      -4.415   0.627  -1.628  1.00  0.00    -0.357 OA
ATOM     34  H5  UNL     1      -5.226   1.096  -1.788  1.00  0.00     0.217 HD
ENDBRANCH  17  33
BRANCH  16  35
HETATM   35  O4  UNL     1      -4.497   3.302  -1.333  1.00  0.00    -0.352 OA
HETATM   36  C23 UNL     1      -4.815   3.769  -2.638  1.00  0.00     0.210 C 
ENDBRANCH  16  35
TORSDOF 8
