REMARK  4 active torsions:
REMARK  status: ('A' for Active; 'I' for Inactive)
REMARK    1  A    between atoms: C2_2  and  C4_4 
REMARK    2  A    between atoms: C5_7  and  N2_8 
REMARK    3  A    between atoms: N2_8  and  C6_10 
REMARK    4  A    between atoms: C7_14  and  N4_15 
ROOT
HETATM    1  C4  UNL     1      -0.680   0.232   0.193  1.00  0.00     0.055 A 
HETATM    2  N1  UNL     1       0.346  -0.542  -0.039  1.00  0.00    -0.337 N 
ATOM      3  H1  UNL     1       0.210  -1.503  -0.351  1.00  0.00     0.168 HD
HETATM    4  C5  UNL     1       1.577  -0.054   0.139  1.00  0.00     0.153 A 
HETATM    5  S2  UNL     1       1.293   1.542   0.648  1.00  0.00    -0.028 SA
HETATM    6  C7  UNL     1      -0.440   1.515   0.610  1.00  0.00     0.170 A 
ENDROOT
BRANCH   4   7
HETATM    7  N2  UNL     1       2.703  -0.721  -0.046  1.00  0.00    -0.316 N 
ATOM      8  H2  UNL     1       2.667  -1.694  -0.349  1.00  0.00     0.170 HD
BRANCH   7   9
HETATM    9  C6  UNL     1       3.938  -0.114   0.167  1.00  0.00     0.187 C 
HETATM   10  N3  UNL     1       5.099  -0.905  -0.096  1.00  0.00    -0.070 NA
HETATM   11  S1  UNL     1       4.088   1.418   0.698  1.00  0.00    -0.044 SA
ENDBRANCH   7   9
ENDBRANCH   4   7
BRANCH   1  12
HETATM   12  C2  UNL     1      -2.131  -0.211  -0.001  1.00  0.00     0.030 C 
HETATM   13  C1  UNL     1      -2.154  -1.758  -0.016  1.00  0.00     0.016 C 
HETATM   14  C3  UNL     1      -2.667   0.193  -1.342  1.00  0.00     0.016 C 
ENDBRANCH   1  12
BRANCH   6  15
HETATM   15  N4  UNL     1      -1.325   2.579   0.966  1.00  0.00    -0.106 N 
HETATM   16  O1  UNL     1      -2.544   2.489   0.970  1.00  0.00    -0.531 OA
HETATM   17  O2  UNL     1      -0.736   3.768   1.331  1.00  0.00    -0.531 OA
ENDBRANCH   6  15
TORSDOF 4
