REMARK  5 active torsions:
REMARK  status: ('A' for Active; 'I' for Inactive)
REMARK    1  A    between atoms: O1_2  and  C2_3 
REMARK       I    between atoms: C2_3  and  N1_5 
REMARK    2  A    between atoms: N1_5  and  C3_7 
REMARK    3  A    between atoms: C3_7  and  N2_9 
REMARK    4  A    between atoms: N2_9  and  C4_11 
REMARK    5  A    between atoms: C9_16  and  N3_17 
ROOT
HETATM    1  N2  UNL     1       0.099   0.221   0.062  1.00  0.00    -0.331 N 
ATOM      2  H2  UNL     1      -0.095  -0.759   0.268  1.00  0.00     0.168 HD
ENDROOT
BRANCH   1   3
HETATM    3  C3  UNL     1       1.459   0.508  -0.110  1.00  0.00     0.180 C 
HETATM    4  S1  UNL     1       2.065   1.968  -0.476  1.00  0.00    -0.040 SA
BRANCH   3   5
HETATM    5  N1  UNL     1       2.423  -0.563   0.024  1.00  0.00    -0.279 N 
HETATM    6  C2  UNL     1       3.786  -0.317  -0.158  1.00  0.00     0.366 C 
HETATM    7  O2  UNL     1       4.277   0.792  -0.438  1.00  0.00    -0.238 OA
ATOM      8  H1  UNL     1       2.105  -1.505   0.253  1.00  0.00     0.173 HD
BRANCH   6   9
HETATM    9  O1  UNL     1       4.693  -1.388  -0.018  1.00  0.00    -0.309 OA
HETATM   10  C1  UNL     1       6.089  -1.185  -0.193  1.00  0.00     0.215 C 
ENDBRANCH   6   9
ENDBRANCH   3   5
ENDBRANCH   1   3
BRANCH   1  11
HETATM   11  C4  UNL     1      -1.040   1.023   0.005  1.00  0.00     0.061 A 
HETATM   12  C5  UNL     1      -1.059   2.401  -0.044  1.00  0.00     0.032 A 
HETATM   13  C6  UNL     1      -2.211   3.176  -0.051  1.00  0.00     0.002 A 
HETATM   14  C7  UNL     1      -3.419   2.533  -0.006  1.00  0.00     0.002 A 
HETATM   15  C8  UNL     1      -3.453   1.157   0.044  1.00  0.00     0.031 A 
HETATM   16  C9  UNL     1      -2.303   0.402   0.050  1.00  0.00     0.056 A 
BRANCH  16  17
HETATM   17  N3  UNL     1      -2.381  -1.014   0.064  1.00  0.00    -0.388 N 
HETATM   18  C10 UNL     1      -2.003  -1.739  -1.156  1.00  0.00     0.149 C 
HETATM   19  C11 UNL     1      -2.822  -1.728   1.250  1.00  0.00     0.149 C 
ENDBRANCH  16  17
ENDBRANCH   1  11
TORSDOF 5
