REMARK  4 active torsions:
REMARK  status: ('A' for Active; 'I' for Inactive)
REMARK    1  A    between atoms: C2_2  and  C4_4 
REMARK    2  A    between atoms: C4_4  and  O1_5 
REMARK    3  A    between atoms: C4_4  and  C5_7 
REMARK    4  A    between atoms: C8_11  and  N1_12 
ROOT
HETATM    1  C5  UNL     1      -0.016  -1.069  -0.398  1.00  0.00     0.078 C 
HETATM    2  C6  UNL     1      -0.501  -2.415   0.027  1.00  0.00     0.043 C 
HETATM    3  C7  UNL     1       0.925  -1.284  -1.570  1.00  0.00     0.212 C 
HETATM    4  O2  UNL     1       1.705  -0.082  -1.445  1.00  0.00    -0.320 OA
HETATM    5  C8  UNL     1       1.816   0.131  -0.055  1.00  0.00     0.218 C 
HETATM    6  N2  UNL     1       0.840  -0.428   0.556  1.00  0.00    -0.343 N 
ATOM      7  H2  UNL     1       0.694  -0.419   1.565  1.00  0.00     0.164 HD
ENDROOT
BRANCH   1   8
HETATM    8  C4  UNL     1      -1.105  -0.151  -0.899  1.00  0.00     0.151 C 
BRANCH   8   9
HETATM    9  C2  UNL     1      -1.824   0.603   0.152  1.00  0.00     0.009 C 
HETATM   10  C1  UNL     1      -2.713  -0.158   1.047  1.00  0.00     0.012 C 
HETATM   11  C3  UNL     1      -2.617   1.717  -0.536  1.00  0.00     0.012 C 
ENDBRANCH   8   9
BRANCH   8  12
HETATM   12  O1  UNL     1      -1.888  -0.819  -1.802  1.00  0.00    -0.393 OA
ATOM     13  H1  UNL     1      -1.426  -1.303  -2.477  1.00  0.00     0.210 HD
ENDBRANCH   8  12
ENDBRANCH   1   8
BRANCH   5  14
HETATM   14  N1  UNL     1       2.867   0.862   0.565  1.00  0.00    -0.344 N 
HETATM   15  C9  UNL     1       4.273   0.770   1.118  1.00  0.00     0.146 A 
HETATM   16  C10 UNL     1       3.527   2.018   1.134  1.00  0.00     0.146 A 
ENDBRANCH   5  14
TORSDOF 4
