REMARK  4 active torsions:
REMARK  status: ('A' for Active; 'I' for Inactive)
REMARK    1  A    between atoms: N1_2  and  C3_4 
REMARK    2  A    between atoms: C3_4  and  O1_6 
REMARK    3  A    between atoms: O1_6  and  C4_7 
REMARK    4  A    between atoms: C4_7  and  C5_8 
ROOT
HETATM    1  C5  UNL     1      -1.438  -0.707   0.411  1.00  0.00     0.171 C 
HETATM    2  C6  UNL     1      -2.352  -0.966  -0.740  1.00  0.00     0.266 C 
HETATM    3  N2  UNL     1      -2.687   0.327  -1.333  1.00  0.00    -0.071 N 
ATOM      4  H21 UNL     1      -3.098   0.239  -2.262  1.00  0.00     0.277 HD
ATOM      5  H22 UNL     1      -1.862   0.864  -1.598  1.00  0.00     0.277 HD
HETATM    6  C7  UNL     1      -3.552   1.045  -0.399  1.00  0.00     0.258 C 
HETATM    7  C8  UNL     1      -3.035   0.787   1.005  1.00  0.00     0.196 C 
HETATM    8  O2  UNL     1      -1.662   0.572   0.917  1.00  0.00    -0.380 OA
ENDROOT
BRANCH   1   9
HETATM    9  C4  UNL     1      -0.016  -0.898  -0.041  1.00  0.00     0.211 C 
BRANCH   9  10
HETATM   10  O1  UNL     1       0.910  -0.713   1.010  1.00  0.00    -0.324 OA
BRANCH  10  11
HETATM   11  C3  UNL     1       2.275  -0.833   0.852  1.00  0.00     0.211 C 
HETATM   12  S1  UNL     1       3.027  -2.075   1.599  1.00  0.00    -0.033 SA
BRANCH  11  13
HETATM   13  N1  UNL     1       3.062   0.052   0.084  1.00  0.00    -0.361 N 
HETATM   14  C1  UNL     1       2.450   1.185  -0.610  1.00  0.00     0.152 C 
HETATM   15  C2  UNL     1       4.491  -0.110  -0.056  1.00  0.00     0.152 C 
ENDBRANCH  11  13
ENDBRANCH  10  11
ENDBRANCH   9  10
ENDBRANCH   1   9
TORSDOF 4
