REMARK  0 active torsions:
REMARK  status: ('A' for Active; 'I' for Inactive)
ROOT
HETATM    1  C1  UNL     1      -2.567  -0.368  -0.297  1.00  0.00     0.034 C 
HETATM    2  C2  UNL     1      -1.279  -1.041   0.079  1.00  0.00     0.059 C 
HETATM    3  C3  UNL     1      -0.278  -0.311  -0.786  1.00  0.00     0.325 C 
HETATM    4  N1  UNL     1      -0.713   1.058  -0.679  1.00  0.00     0.118 N 
HETATM    5  C4  UNL     1      -2.144   1.006  -0.740  1.00  0.00     0.276 C 
HETATM    6  C5  UNL     1      -0.208   1.518   0.600  1.00  0.00     0.350 C 
HETATM    7  C6  UNL     1       1.104   0.777   0.671  1.00  0.00     0.105 A 
HETATM    8  N2  UNL     1       2.237   0.806   1.277  1.00  0.00    -0.377 N 
ATOM      9  H2  UNL     1       2.506   1.496   1.979  1.00  0.00     0.160 HD
HETATM   10  C7  UNL     1       3.081  -0.286   0.819  1.00  0.00     0.141 A 
HETATM   11  C8  UNL     1       2.316  -0.983  -0.285  1.00  0.00     0.146 A 
HETATM   12  N3  UNL     1       1.039  -0.306  -0.247  1.00  0.00    -0.338 N 
ENDROOT
TORSDOF 0
