REMARK  11 active torsions:
REMARK  status: ('A' for Active; 'I' for Inactive)
REMARK       I    between atoms: C2_2  and  N1_4 
REMARK    1  A    between atoms: N1_4  and  C3_6 
REMARK    2  A    between atoms: C4_7  and  O2_8 
REMARK       I    between atoms: N2_11  and  C6_13 
REMARK    3  A    between atoms: C6_13  and  C7_15 
REMARK    4  A    between atoms: C17_25  and  O4_26 
REMARK    5  A    between atoms: O4_26  and  C18_27 
REMARK    6  A    between atoms: C18_27  and  C19_29 
REMARK    7  A    between atoms: C19_29  and  N3_30 
REMARK    8  A    between atoms: C27_39  and  O7_40 
REMARK    9  A    between atoms: O7_40  and  C28_41 
REMARK   10  A    between atoms: C28_41  and  C29_43 
REMARK   11  A    between atoms: C31_45  and  C32_46 
ROOT
HETATM    1  C3  UNL     1      -1.648  -0.002   0.845  1.00  0.00     0.176 C 
HETATM    2  C4  UNL     1      -1.988   1.325   0.302  1.00  0.00     0.196 C 
HETATM    3  C5  UNL     1      -0.882   2.312   0.211  1.00  0.00     0.055 C 
HETATM    4  N2  UNL     1      -1.185   3.517   0.102  1.00  0.00    -0.328 N 
ATOM      5  H2  UNL     1      -0.344   4.092   0.054  1.00  0.00     0.168 HD
HETATM    6  C6  UNL     1      -2.300   4.297   0.028  1.00  0.00     0.229 C 
HETATM    7  O3  UNL     1      -3.413   4.077  -0.513  1.00  0.00    -0.272 OA
HETATM    8  C11 UNL     1       0.589   2.069   0.198  1.00  0.00     0.102 C 
HETATM    9  C12 UNL     1       1.068   2.707  -1.086  1.00  0.00     0.053 C 
HETATM   10  C13 UNL     1       1.321   2.734   1.312  1.00  0.00     0.071 C 
HETATM   11  C14 UNL     1       2.148   1.694   1.975  1.00  0.00    -0.018 C 
HETATM   12  C15 UNL     1       2.847   0.598   1.695  1.00  0.00    -0.058 C 
HETATM   13  C16 UNL     1       3.421   0.087   2.979  1.00  0.00     0.046 C 
HETATM   14  C17 UNL     1       3.221  -0.233   0.584  1.00  0.00     0.166 C 
HETATM   15  C22 UNL     1       2.226  -0.829  -0.362  1.00  0.00     0.049 C 
HETATM   16  C23 UNL     1       1.971  -2.205   0.251  1.00  0.00     0.016 C 
HETATM   17  C24 UNL     1       1.086  -0.017  -0.744  1.00  0.00     0.160 C 
HETATM   18  O6  UNL     1       0.818   0.765   0.343  1.00  0.00    -0.364 OA
HETATM   19  C25 UNL     1      -0.212  -0.556  -1.190  1.00  0.00    -0.023 C 
HETATM   20  C26 UNL     1      -0.157  -1.413  -2.416  1.00  0.00     0.049 C 
HETATM   21  C27 UNL     1      -1.162  -1.034  -0.125  1.00  0.00     0.087 C 
ENDROOT
BRANCH  21  22
HETATM   22  O7  UNL     1      -2.152  -1.916  -0.543  1.00  0.00    -0.277 OA
BRANCH  22  23
HETATM   23  C28 UNL     1      -2.265  -3.243  -0.353  1.00  0.00     0.293 C 
HETATM   24  O8  UNL     1      -1.354  -3.789   0.269  1.00  0.00    -0.259 OA
BRANCH  23  25
HETATM   25  C29 UNL     1      -3.426  -3.972  -0.876  1.00  0.00     0.010 C 
HETATM   26  C30 UNL     1      -4.493  -3.226  -1.577  1.00  0.00     0.054 C 
HETATM   27  C31 UNL     1      -3.515  -5.280  -0.721  1.00  0.00    -0.010 C 
BRANCH  27  28
HETATM   28  C32 UNL     1      -4.704  -5.982  -1.257  1.00  0.00     0.001 C 
HETATM   29  C33 UNL     1      -5.418  -6.702  -0.122  1.00  0.00     0.013 C 
HETATM   30  C34 UNL     1      -4.247  -6.956  -2.317  1.00  0.00     0.013 C 
ENDBRANCH  27  28
ENDBRANCH  23  25
ENDBRANCH  22  23
ENDBRANCH  21  22
BRANCH   1  31
HETATM   31  N1  UNL     1      -2.838  -0.468   1.583  1.00  0.00    -0.348 N 
HETATM   32  C2  UNL     1      -2.857  -0.625   2.979  1.00  0.00     0.214 C 
HETATM   33  C1  UNL     1      -4.007  -1.088   3.779  1.00  0.00     0.117 C 
HETATM   34  O1  UNL     1      -1.771  -0.335   3.587  1.00  0.00    -0.274 OA
ATOM     35  H1  UNL     1      -3.684  -0.686   1.056  1.00  0.00     0.163 HD
ENDBRANCH   1  31
BRANCH   2  36
HETATM   36  O2  UNL     1      -2.884   1.913   1.244  1.00  0.00    -0.387 OA
ATOM     37  H2  UNL     1      -3.103   2.769   0.894  1.00  0.00     0.210 HD
ENDBRANCH   2  36
BRANCH  14  38
HETATM   38  O4  UNL     1       4.202   0.450  -0.218  1.00  0.00    -0.310 OA
BRANCH  38  39
HETATM   39  C18 UNL     1       5.537   0.062  -0.227  1.00  0.00     0.288 C 
HETATM   40  O5  UNL     1       5.882  -0.904   0.482  1.00  0.00    -0.263 OA
BRANCH  39  41
HETATM   41  C19 UNL     1       6.556   0.789  -1.072  1.00  0.00     0.381 C 
BRANCH  41  42
HETATM   42  N3  UNL     1       7.888   0.321  -0.765  1.00  0.00     0.089 N 
HETATM   43  C20 UNL     1       8.791   1.138  -1.583  1.00  0.00     0.310 C 
HETATM   44  C21 UNL     1       7.975  -1.078  -1.198  1.00  0.00     0.310 C 
ENDBRANCH  41  42
ENDBRANCH  39  41
ENDBRANCH  38  39
ENDBRANCH  14  38
BRANCH   6  45
HETATM   45  C7  UNL     1      -2.210   5.664   0.697  1.00  0.00     0.030 C 
HETATM   46  C8  UNL     1      -0.971   6.361   0.124  1.00  0.00     0.025 C 
HETATM   47  C9  UNL     1      -2.101   5.525   2.173  1.00  0.00     0.025 C 
HETATM   48  C10 UNL     1      -3.373   6.538   0.340  1.00  0.00     0.025 C 
ENDBRANCH   6  45
TORSDOF 11
