REMARK  8 active torsions:
REMARK  status: ('A' for Active; 'I' for Inactive)
REMARK    1  A    between atoms: N1_2  and  N2_4 
REMARK    2  A    between atoms: N3_6  and  C2_8 
REMARK    3  A    between atoms: C5_11  and  S1_12 
REMARK    4  A    between atoms: S1_12  and  N4_14 
REMARK    5  A    between atoms: S1_12  and  N5_18 
REMARK    6  A    between atoms: N4_14  and  O2_16 
REMARK    7  A    between atoms: N5_18  and  S2_20 
REMARK    8  A    between atoms: S2_20  and  C6_23 
ROOT
HETATM    1  S1  UNL     1      -0.425   0.011  -0.604  1.00  0.00     0.170 S 
HETATM    2  O1  UNL     1      -0.552  -0.154  -2.091  1.00  0.00    -0.221 OA
ENDROOT
BRANCH   1   3
HETATM    3  C5  UNL     1       1.294   0.142  -0.265  1.00  0.00     0.061 A 
HETATM    4  C4  UNL     1       2.174  -0.575  -1.048  1.00  0.00     0.026 A 
HETATM    5  C3  UNL     1       3.534  -0.541  -0.865  1.00  0.00     0.032 A 
HETATM    6  C2  UNL     1       4.049   0.240   0.140  1.00  0.00     0.049 A 
HETATM    7  C13 UNL     1       3.182   0.964   0.932  1.00  0.00     0.032 A 
HETATM    8  C12 UNL     1       1.818   0.915   0.730  1.00  0.00     0.026 A 
BRANCH   6   9
HETATM    9  N3  UNL     1       5.452   0.288   0.343  1.00  0.00    -0.287 N 
HETATM   10  N2  UNL     1       6.185  -0.641  -0.136  1.00  0.00    -0.243 N 
ATOM     11  H2  UNL     1       5.747  -1.401  -0.657  1.00  0.00     0.208 HD
ATOM     12  H3  UNL     1       5.871   1.057   0.866  1.00  0.00     0.188 HD
BRANCH  10  13
HETATM   13  N1  UNL     1       7.563  -0.645   0.033  1.00  0.00    -0.308 N 
HETATM   14  C1  UNL     1       8.150   0.237   0.746  1.00  0.00     0.140 C 
ATOM     15  H1  UNL     1       8.119  -1.369  -0.423  1.00  0.00     0.186 HD
ENDBRANCH  10  13
ENDBRANCH   6   9
ENDBRANCH   1   3
BRANCH   1  16
HETATM   16  N4  UNL     1      -1.046   1.417  -0.241  1.00  0.00    -0.207 N 
ATOM     17  H4  UNL     1      -1.539   1.554   0.641  1.00  0.00     0.206 HD
BRANCH  16  18
HETATM   18  O2  UNL     1      -0.910   2.457  -1.137  1.00  0.00    -0.281 OA
ATOM     19  H2  UNL     1      -1.284   3.303  -0.919  1.00  0.00     0.245 HD
ENDBRANCH  16  18
ENDBRANCH   1  16
BRANCH   1  20
HETATM   20  N5  UNL     1      -1.154  -1.254   0.274  1.00  0.00    -0.218 N 
ATOM     21  H5  UNL     1      -0.779  -1.669   1.127  1.00  0.00     0.190 HD
BRANCH  20  22
HETATM   22  S2  UNL     1      -2.605  -1.721  -0.488  1.00  0.00     0.270 S 
HETATM   23  O3  UNL     1      -2.497  -1.507  -1.972  1.00  0.00    -0.200 OA
HETATM   24  O4  UNL     1      -2.785  -3.204  -0.259  1.00  0.00    -0.200 OA
BRANCH  22  25
HETATM   25  C6  UNL     1      -3.984  -0.824   0.085  1.00  0.00     0.080 A 
HETATM   26  C7  UNL     1      -4.759  -1.205   1.153  1.00  0.00     0.028 A 
HETATM   27  C8  UNL     1      -5.835  -0.445   1.548  1.00  0.00     0.044 A 
HETATM   28  C9  UNL     1      -6.177   0.729   0.887  1.00  0.00     0.116 A 
HETATM   29  F1  UNL     1      -7.251   1.458   1.306  1.00  0.00    -0.206 F 
HETATM   30  C10 UNL     1      -5.399   1.106  -0.181  1.00  0.00     0.044 A 
HETATM   31  C11 UNL     1      -4.317   0.339  -0.576  1.00  0.00     0.028 A 
ENDBRANCH  22  25
ENDBRANCH  20  22
ENDBRANCH   1  20
TORSDOF 8
