REMARK  9 active torsions:
REMARK  status: ('A' for Active; 'I' for Inactive)
REMARK    1  A    between atoms: O1_2  and  N1_3 
REMARK    2  A    between atoms: N1_3  and  C2_5 
REMARK    3  A    between atoms: C4_12  and  O3_13 
REMARK    4  A    between atoms: C5_15  and  C6_16 
REMARK    5  A    between atoms: C6_16  and  C7_18 
REMARK    6  A    between atoms: C7_18  and  N4_19 
REMARK    7  A    between atoms: N4_19  and  S1_21 
REMARK    8  A    between atoms: S1_21  and  C8_23 
REMARK    9  A    between atoms: C10_29  and  O7_30 
ROOT
HETATM    1  C6  UNL     1      -1.168  -0.226   0.099  1.00  0.00     0.185 C 
HETATM    2  O4  UNL     1      -1.251  -1.366  -0.444  1.00  0.00    -0.290 OA
ENDROOT
BRANCH   1   3
HETATM    3  C5  UNL     1      -2.264   0.712  -0.098  1.00  0.00     0.108 A 
HETATM    4  C2  UNL     1      -3.350   0.350  -0.867  1.00  0.00     0.147 A 
HETATM    5  N2  UNL     1      -4.351   1.193  -1.060  1.00  0.00    -0.292 N 
HETATM    6  C3  UNL     1      -4.374   2.418  -0.534  1.00  0.00     0.327 A 
ATOM      7  H2  UNL     1      -5.138   0.893  -1.635  1.00  0.00     0.172 HD
HETATM    8  O2  UNL     1      -5.359   3.187  -0.750  1.00  0.00    -0.247 OA
HETATM    9  N3  UNL     1      -3.339   2.815   0.222  1.00  0.00    -0.288 N 
HETATM   10  C4  UNL     1      -2.307   1.979   0.434  1.00  0.00     0.162 A 
ATOM     11  H3  UNL     1      -3.335   3.748   0.635  1.00  0.00     0.172 HD
BRANCH   4  12
HETATM   12  N1  UNL     1      -3.387  -0.818  -1.402  1.00  0.00    -0.250 N 
ATOM     13  H1  UNL     1      -2.614  -1.466  -1.252  1.00  0.00     0.196 HD
BRANCH  12  14
HETATM   14  O1  UNL     1      -4.442  -1.198  -2.163  1.00  0.00    -0.284 OA
HETATM   15  C1  UNL     1      -5.078  -2.444  -2.080  1.00  0.00     0.237 C 
ENDBRANCH  12  14
ENDBRANCH   4  12
BRANCH  10  16
HETATM   16  O3  UNL     1      -1.277   2.435   1.214  1.00  0.00    -0.345 OA
ATOM     17  H3  UNL     1      -0.548   1.844   1.364  1.00  0.00     0.219 HD
ENDBRANCH  10  16
ENDBRANCH   1   3
BRANCH   1  18
HETATM   18  C7  UNL     1       0.031   0.053   0.883  1.00  0.00     0.214 C 
BRANCH  18  19
HETATM   19  N4  UNL     1       0.892  -1.108   0.878  1.00  0.00    -0.329 N 
ATOM     20  H4  UNL     1       0.681  -1.983   0.399  1.00  0.00     0.170 HD
BRANCH  19  21
HETATM   21  S1  UNL     1       2.360  -0.806   1.814  1.00  0.00     0.158 S 
HETATM   22  O5  UNL     1       2.990  -2.121   2.164  1.00  0.00    -0.230 OA
BRANCH  21  23
HETATM   23  C8  UNL     1       3.414   0.172   0.750  1.00  0.00     0.148 A 
HETATM   24  S2  UNL     1       3.526   1.869   0.589  1.00  0.00    -0.013 SA
HETATM   25  C9  UNL     1       4.741   1.924  -0.606  1.00  0.00     0.291 A 
HETATM   26  O6  UNL     1       5.289   2.935  -1.176  1.00  0.00    -0.260 OA
HETATM   27  N5  UNL     1       5.005   0.637  -0.828  1.00  0.00    -0.296 N 
HETATM   28  C10 UNL     1       4.347  -0.261  -0.154  1.00  0.00     0.173 A 
ATOM     29  H5  UNL     1       5.709   0.361  -1.513  1.00  0.00     0.171 HD
BRANCH  28  30
HETATM   30  O7  UNL     1       4.551  -1.662  -0.313  1.00  0.00    -0.339 OA
HETATM   31  C11 UNL     1       5.588  -2.309   0.400  1.00  0.00     0.211 C 
ENDBRANCH  28  30
ENDBRANCH  21  23
ENDBRANCH  19  21
ENDBRANCH  18  19
ENDBRANCH   1  18
TORSDOF 9
