REMARK  9 active torsions:
REMARK  status: ('A' for Active; 'I' for Inactive)
REMARK    1  A    between atoms: N1_2  and  N2_3 
REMARK    2  A    between atoms: N1_2  and  S1_29 
REMARK    3  A    between atoms: N3_5  and  C2_7 
REMARK    4  A    between atoms: C3_8  and  N4_9 
REMARK    5  A    between atoms: N4_9  and  C4_11 
REMARK    6  A    between atoms: C4_11  and  C5_12 
REMARK    7  A    between atoms: C5_12  and  O1_13 
REMARK    8  A    between atoms: C6_15  and  C7_16 
REMARK    9  A    between atoms: S1_29  and  N8_30 
ROOT
HETATM    1  C2  UNL     1       0.311  -0.196  -0.518  1.00  0.00     0.145 A 
HETATM    2  C3  UNL     1      -0.377   0.331   0.548  1.00  0.00     0.079 A 
HETATM    3  C6  UNL     1      -1.674  -0.107   0.842  1.00  0.00     0.081 A 
HETATM    4  C8  UNL     1      -2.216  -1.090  -0.004  1.00  0.00     0.036 A 
HETATM    5  N6  UNL     1      -1.487  -1.561  -1.032  1.00  0.00    -0.290 N 
HETATM    6  C9  UNL     1      -0.239  -1.153  -1.326  1.00  0.00     0.280 A 
HETATM    7  O3  UNL     1       0.389  -1.645  -2.312  1.00  0.00    -0.265 OA
HETATM    8  C10 UNL     1      -2.027  -2.575  -1.914  1.00  0.00     0.364 C 
HETATM    9  N7  UNL     1      -2.987  -3.355  -1.202  1.00  0.00    -0.059 N 
ATOM     10  H71 UNL     1      -2.563  -3.844  -0.413  1.00  0.00     0.279 HD
ATOM     11  H72 UNL     1      -3.289  -4.165  -1.743  1.00  0.00     0.279 HD
HETATM   12  C11 UNL     1      -4.114  -2.542  -0.784  1.00  0.00     0.240 C 
HETATM   13  C12 UNL     1      -3.580  -1.568   0.264  1.00  0.00     0.086 C 
ENDROOT
BRANCH   1  14
HETATM   14  N3  UNL     1       1.640   0.245  -0.794  1.00  0.00    -0.278 N 
HETATM   15  N2  UNL     1       2.659  -0.291  -0.244  1.00  0.00    -0.230 N 
ATOM     16  H2  UNL     1       2.566  -1.061   0.419  1.00  0.00     0.209 HD
ATOM     17  H3  UNL     1       1.780   1.012  -1.451  1.00  0.00     0.189 HD
BRANCH  15  18
HETATM   18  N1  UNL     1       3.907   0.226  -0.593  1.00  0.00    -0.192 N 
HETATM   19  C1  UNL     1       4.324   0.128  -1.969  1.00  0.00     0.194 C 
BRANCH  18  20
HETATM   20  S1  UNL     1       4.892   0.951   0.617  1.00  0.00     0.333 S 
HETATM   21  O4  UNL     1       4.028   1.493   1.719  1.00  0.00    -0.181 OA
HETATM   22  O5  UNL     1       5.716   2.011  -0.041  1.00  0.00    -0.181 OA
BRANCH  20  23
HETATM   23  N8  UNL     1       5.898  -0.269   1.320  1.00  0.00    -0.310 N 
ATOM     24  H82 UNL     1       5.896  -1.253   1.050  1.00  0.00     0.170 HD
ATOM     25  H81 UNL     1       6.482   0.161   2.037  1.00  0.00     0.170 HD
ENDBRANCH  20  23
ENDBRANCH  18  20
ENDBRANCH  15  18
ENDBRANCH   1  14
BRANCH   2  26
HETATM   26  N4  UNL     1       0.282   1.320   1.316  1.00  0.00    -0.385 N 
ATOM     27  H4  UNL     1       0.502   1.108   2.289  1.00  0.00     0.159 HD
BRANCH  26  28
HETATM   28  C4  UNL     1       0.658   2.608   0.797  1.00  0.00     0.146 C 
BRANCH  28  29
HETATM   29  C5  UNL     1      -0.385   3.266  -0.011  1.00  0.00     0.183 C 
BRANCH  29  30
HETATM   30  O1  UNL     1      -1.561   3.552   0.613  1.00  0.00    -0.399 OA
ATOM     31  H1  UNL     1      -2.233   3.976   0.092  1.00  0.00     0.209 HD
ENDBRANCH  29  30
ENDBRANCH  28  29
ENDBRANCH  26  28
ENDBRANCH   2  26
BRANCH   3  32
HETATM   32  C7  UNL     1      -2.316   0.390   2.018  1.00  0.00     0.269 C 
HETATM   33  N5  UNL     1      -3.627   0.099   2.437  1.00  0.00    -0.057 NA
HETATM   34  O2  UNL     1      -1.678   1.184   2.803  1.00  0.00    -0.271 OA
ENDBRANCH   3  32
TORSDOF 9
