REMARK  7 active torsions:
REMARK  status: ('A' for Active; 'I' for Inactive)
REMARK    1  A    between atoms: C6_6  and  C7_7 
REMARK    2  A    between atoms: C7_7  and  O2_9 
REMARK    3  A    between atoms: O2_9  and  C8_10 
REMARK    4  A    between atoms: C8_10  and  N1_11 
REMARK    5  A    between atoms: C9_15  and  S1_16 
REMARK    6  A    between atoms: S1_16  and  C10_17 
REMARK    7  A    between atoms: N3_20  and  C12_21 
ROOT
HETATM    1  C10 UNL     1       0.338   2.686   3.025  1.00  0.00     0.204 C 
HETATM    2  C11 UNL     1       1.416   1.866   3.553  1.00  0.00     0.069 C 
HETATM    3  N2  UNL     1       2.269   1.226   3.993  1.00  0.00    -0.197 NA
ENDROOT
BRANCH   1   4
HETATM    4  S1  UNL     1       0.399   2.906   1.236  1.00  0.00    -0.097 SA
BRANCH   4   5
HETATM    5  C9  UNL     1       0.112   1.320   0.460  1.00  0.00     0.090 A 
HETATM    6  C6  UNL     1      -1.173   0.885   0.183  1.00  0.00     0.081 A 
HETATM    7  C5  UNL     1      -1.036  -0.334  -0.413  1.00  0.00    -0.011 A 
HETATM    8  C4  UNL     1      -1.903  -1.405  -0.974  1.00  0.00     0.079 C 
HETATM    9  C17 UNL     1       0.336  -0.617  -0.488  1.00  0.00     0.044 A 
HETATM   10  C2  UNL     1      -1.447  -2.772  -0.520  1.00  0.00     0.058 C 
HETATM   11  C1  UNL     1      -1.953  -2.953   0.910  1.00  0.00     0.046 C 
HETATM   12  C3  UNL     1      -2.134  -3.816  -1.367  1.00  0.00     0.046 C 
HETATM   13  O4  UNL     1      -0.072  -2.903  -0.470  1.00  0.00    -0.375 OA
HETATM   14  C18 UNL     1       0.633  -1.917  -1.122  1.00  0.00     0.226 C 
HETATM   15  N3  UNL     1       1.009   0.402   0.048  1.00  0.00    -0.337 N 
BRANCH   6  16
HETATM   16  C7  UNL     1      -2.453   1.530   0.440  1.00  0.00     0.298 C 
HETATM   17  O1  UNL     1      -3.090   1.362   1.505  1.00  0.00    -0.259 OA
BRANCH  16  18
HETATM   18  O2  UNL     1      -2.996   2.365  -0.526  1.00  0.00    -0.290 OA
BRANCH  18  19
HETATM   19  C8  UNL     1      -4.234   3.036  -0.372  1.00  0.00     0.407 C 
BRANCH  19  20
HETATM   20  N1  UNL     1      -4.438   3.800  -1.598  1.00  0.00    -0.058 N 
ATOM     21  H13 UNL     1      -3.663   4.425  -1.821  1.00  0.00     0.276 HD
ATOM     22  H12 UNL     1      -4.387   3.232  -2.443  1.00  0.00     0.276 HD
ATOM     23  H11 UNL     1      -5.329   4.283  -1.487  1.00  0.00     0.276 HD
ENDBRANCH  19  20
ENDBRANCH  18  19
ENDBRANCH  16  18
ENDBRANCH   6  16
BRANCH  15  24
HETATM   24  C12 UNL     1       2.432   0.496   0.153  1.00  0.00     0.094 C 
HETATM   25  C13 UNL     1       3.093   0.734  -1.207  1.00  0.00     0.052 C 
HETATM   26  C14 UNL     1       4.546   1.087  -0.871  1.00  0.00     0.169 C 
HETATM   27  O3  UNL     1       5.196   0.025  -0.275  1.00  0.00    -0.391 OA
HETATM   28  C15 UNL     1       4.382  -1.067  -0.020  1.00  0.00     0.169 C 
HETATM   29  C16 UNL     1       3.130  -0.662   0.771  1.00  0.00     0.052 C 
ENDBRANCH  15  24
ENDBRANCH   4   5
ENDBRANCH   1   4
TORSDOF 7
