REMARK  7 active torsions:
REMARK  status: ('A' for Active; 'I' for Inactive)
REMARK    1  A    between atoms: C2_2  and  N1_3 
REMARK    2  A    between atoms: N1_3  and  C3_5 
REMARK    3  A    between atoms: C4_7  and  C5_8 
REMARK    4  A    between atoms: N4_17  and  C9_18 
REMARK    5  A    between atoms: N5_21  and  C12_22 
REMARK    6  A    between atoms: C12_22  and  C13_23 
REMARK    7  A    between atoms: C13_23  and  O1_25 
ROOT
HETATM    1  C3  UNL     1      -1.260  -1.195   0.570  1.00  0.00     0.164 A 
HETATM    2  S1  UNL     1      -2.882  -0.951   1.062  1.00  0.00    -0.031 SA
HETATM    3  C4  UNL     1      -3.047   0.660   0.561  1.00  0.00     0.126 A 
HETATM    4  N3  UNL     1      -1.861   0.908   0.054  1.00  0.00    -0.287 N 
ATOM      5  H3  UNL     1      -1.657   1.828  -0.337  1.00  0.00     0.188 HD
HETATM    6  N4  UNL     1      -0.955  -0.006   0.049  1.00  0.00    -0.265 N 
ENDROOT
BRANCH   6   7
HETATM    7  C9  UNL     1       0.377   0.288  -0.529  1.00  0.00     0.114 C 
HETATM    8  C10 UNL     1       1.316   0.371   0.669  1.00  0.00     0.057 C 
HETATM    9  C11 UNL     1       2.709   0.775   0.234  1.00  0.00     0.274 C 
HETATM   10  N5  UNL     1       3.071   0.079  -0.997  1.00  0.00     0.091 N 
HETATM   11  C15 UNL     1       2.248  -1.107  -1.189  1.00  0.00     0.274 C 
HETATM   12  C16 UNL     1       0.820  -0.686  -1.546  1.00  0.00     0.057 C 
BRANCH  10  13
HETATM   13  C12 UNL     1       4.423  -0.407  -0.795  1.00  0.00     0.303 C 
BRANCH  13  14
HETATM   14  C13 UNL     1       5.419   0.727  -0.729  1.00  0.00     0.142 C 
HETATM   15  C14 UNL     1       5.416   1.508  -2.047  1.00  0.00     0.041 C 
BRANCH  14  16
HETATM   16  O1  UNL     1       6.712   0.276  -0.534  1.00  0.00    -0.394 OA
ATOM     17  H1  UNL     1       7.338   0.989  -0.492  1.00  0.00     0.210 HD
ENDBRANCH  14  16
ENDBRANCH  13  14
ENDBRANCH  10  13
ENDBRANCH   6   7
BRANCH   1  18
HETATM   18  N1  UNL     1      -0.512  -2.270   0.678  1.00  0.00    -0.370 N 
ATOM     19  H1  UNL     1       0.451  -2.286   0.341  1.00  0.00     0.161 HD
BRANCH  18  20
HETATM   20  C2  UNL     1      -1.124  -3.446   1.305  1.00  0.00     0.117 C 
HETATM   21  C1  UNL     1      -1.730  -4.364   0.283  1.00  0.00     0.026 C 
ENDBRANCH  18  20
ENDBRANCH   1  18
BRANCH   3  22
HETATM   22  C5  UNL     1      -4.158   1.631   0.619  1.00  0.00     0.110 A 
HETATM   23  N2  UNL     1      -5.375   1.444   1.115  1.00  0.00    -0.352 N 
HETATM   24  C6  UNL     1      -6.238   2.407   1.088  1.00  0.00     0.012 A 
ATOM     25  H2  UNL     1      -5.629   0.542   1.517  1.00  0.00     0.166 HD
HETATM   26  C7  UNL     1      -7.649   2.237   1.644  1.00  0.00     0.068 C 
HETATM   27  C8  UNL     1      -5.838   3.601   0.532  1.00  0.00     0.076 A 
HETATM   28  S2  UNL     1      -4.229   3.248   0.083  1.00  0.00    -0.079 SA
ENDBRANCH   3  22
TORSDOF 7
