REMARK  8 active torsions:
REMARK  status: ('A' for Active; 'I' for Inactive)
REMARK    1  A    between atoms: C2_2  and  C4_4 
REMARK    2  A    between atoms: C4_4  and  O1_5 
REMARK    3  A    between atoms: C4_4  and  C5_7 
REMARK    4  A    between atoms: C5_7  and  O3_9 
REMARK    5  A    between atoms: O3_9  and  C6_10 
REMARK    6  A    between atoms: C6_10  and  C7_11 
REMARK    7  A    between atoms: C7_11  and  O4_12 
REMARK    8  A    between atoms: O4_12  and  N1_13 
ROOT
HETATM    1  N1  UNL     1      -0.442   1.580  -1.886  1.00  0.00    -0.275 N 
ATOM      2  H1  UNL     1      -0.795   1.731  -2.831  1.00  0.00     0.193 HD
HETATM    3  C8  UNL     1      -1.270   1.353  -0.958  1.00  0.00     0.014 C 
HETATM    4  C9  UNL     1      -0.817   1.125   0.427  1.00  0.00     0.056 C 
HETATM    5  C10 UNL     1      -1.827   1.572   1.453  1.00  0.00     0.015 C 
HETATM    6  C11 UNL     1      -3.211   1.067   1.197  1.00  0.00    -0.043 C 
HETATM    7  C12 UNL     1      -4.238   2.166   1.348  1.00  0.00     0.015 C 
HETATM    8  C13 UNL     1      -3.509   0.011   2.238  1.00  0.00     0.015 C 
HETATM    9  C14 UNL     1      -3.332   0.413  -0.155  1.00  0.00     0.006 C 
HETATM   10  C15 UNL     1      -4.723   0.334  -0.665  1.00  0.00    -0.013 C 
HETATM   11  C16 UNL     1      -5.507  -0.829  -0.114  1.00  0.00     0.010 C 
HETATM   12  C17 UNL     1      -4.539   0.199  -2.166  1.00  0.00     0.005 C 
HETATM   13  C18 UNL     1      -3.107   0.587  -2.458  1.00  0.00     0.011 C 
HETATM   14  C19 UNL     1      -2.702   1.304  -1.208  1.00  0.00     0.038 C 
ENDROOT
BRANCH   1  15
HETATM   15  O4  UNL     1       0.889   1.630  -1.677  1.00  0.00    -0.278 OA
BRANCH  15  16
HETATM   16  C7  UNL     1       1.755   0.544  -1.462  1.00  0.00     0.228 C 
BRANCH  16  17
HETATM   17  C6  UNL     1       3.183   1.007  -1.272  1.00  0.00     0.207 C 
BRANCH  17  18
HETATM   18  O3  UNL     1       4.088  -0.034  -1.055  1.00  0.00    -0.317 OA
BRANCH  18  19
HETATM   19  C5  UNL     1       4.016  -0.866   0.027  1.00  0.00     0.288 C 
HETATM   20  O2  UNL     1       3.120  -0.729   0.898  1.00  0.00    -0.262 OA
BRANCH  19  21
HETATM   21  C4  UNL     1       4.983  -1.981   0.248  1.00  0.00     0.221 C 
BRANCH  21  22
HETATM   22  C2  UNL     1       5.636  -1.896   1.624  1.00  0.00     0.016 C 
HETATM   23  C1  UNL     1       6.432  -3.159   1.822  1.00  0.00     0.012 C 
HETATM   24  C3  UNL     1       6.510  -0.652   1.697  1.00  0.00     0.012 C 
ENDBRANCH  21  22
BRANCH  21  25
HETATM   25  O1  UNL     1       5.932  -2.093  -0.735  1.00  0.00    -0.385 OA
ATOM     26  H1  UNL     1       5.525  -2.146  -1.592  1.00  0.00     0.210 HD
ENDBRANCH  21  25
ENDBRANCH  19  21
ENDBRANCH  18  19
ENDBRANCH  17  18
ENDBRANCH  16  17
ENDBRANCH  15  16
ENDBRANCH   1  15
TORSDOF 8
