REMARK  5 active torsions:
REMARK  status: ('A' for Active; 'I' for Inactive)
REMARK    1  A    between atoms: C2_2  and  C4_4 
REMARK    2  A    between atoms: C4_4  and  C5_5 
REMARK    3  A    between atoms: C5_5  and  C6_6 
REMARK    4  A    between atoms: C7_7  and  C8_8 
REMARK    5  A    between atoms: C10_10  and  O1_11 
ROOT
HETATM    1  C8  UNL     1      -1.810   0.149   0.027  1.00  0.00     0.099 C 
HETATM    2  C9  UNL     1      -2.551  -0.075  -1.255  1.00  0.00     0.051 C 
HETATM    3  C10 UNL     1      -4.026  -0.173  -1.107  1.00  0.00     0.122 C 
HETATM    4  C11 UNL     1      -4.493  -0.990   0.051  1.00  0.00     0.067 C 
HETATM    5  C12 UNL     1      -3.749  -0.767   1.319  1.00  0.00     0.167 C 
HETATM    6  O2  UNL     1      -3.970   0.485   1.910  1.00  0.00    -0.290 OA
HETATM    7  C13 UNL     1      -2.812   0.794   2.611  1.00  0.00     0.407 C 
HETATM    8  O3  UNL     1      -2.717   1.810   3.359  1.00  0.00    -0.229 OA
HETATM    9  O4  UNL     1      -1.824  -0.164   2.359  1.00  0.00    -0.289 OA
HETATM   10  C14 UNL     1      -2.251  -0.775   1.131  1.00  0.00     0.179 C 
ENDROOT
BRANCH   1  11
HETATM   11  C7  UNL     1      -0.384  -0.101  -0.227  1.00  0.00    -0.099 C 
HETATM   12  C6  UNL     1       0.787  -0.303  -0.455  1.00  0.00    -0.106 C 
BRANCH  12  13
HETATM   13  C5  UNL     1       2.208  -0.533  -0.752  1.00  0.00     0.094 C 
BRANCH  13  14
HETATM   14  C4  UNL     1       2.987   0.558  -0.052  1.00  0.00     0.016 C 
BRANCH  14  15
HETATM   15  C2  UNL     1       4.469   0.427  -0.285  1.00  0.00    -0.022 C 
HETATM   16  C1  UNL     1       5.147   1.564   0.457  1.00  0.00     0.009 C 
HETATM   17  C3  UNL     1       4.953  -0.899   0.234  1.00  0.00     0.009 C 
ENDBRANCH  14  15
ENDBRANCH  13  14
ENDBRANCH  12  13
ENDBRANCH   1  11
BRANCH   3  18
HETATM   18  O1  UNL     1      -4.573   1.109  -1.117  1.00  0.00    -0.395 OA
ATOM     19  H1  UNL     1      -5.516   1.046  -1.022  1.00  0.00     0.210 HD
ENDBRANCH   3  18
TORSDOF 5
