REMARK  4 active torsions:
REMARK  status: ('A' for Active; 'I' for Inactive)
REMARK    1  A    between atoms: C2_2  and  C3_3 
REMARK    2  A    between atoms: C8_9  and  C9_10 
REMARK    3  A    between atoms: C12_13  and  O1_15 
REMARK    4  A    between atoms: O1_15  and  C14_16 
ROOT
HETATM    1  C9  UNL     1      -1.396   0.240   0.548  1.00  0.00     0.217 C 
HETATM    2  C10 UNL     1      -1.629   1.218  -0.510  1.00  0.00     0.014 C 
HETATM    3  C11 UNL     1      -0.793   2.066  -1.061  1.00  0.00     0.042 C 
HETATM    4  C12 UNL     1       0.642   2.270  -0.757  1.00  0.00     0.220 C 
HETATM    5  C13 UNL     1       1.378   2.202  -2.081  1.00  0.00     0.087 C 
HETATM    6  O3  UNL     1       1.179   1.457   0.196  1.00  0.00    -0.193 OA
HETATM    7  O4  UNL     1       2.176   0.711  -0.247  1.00  0.00    -0.194 OA
HETATM    8  C16 UNL     1       1.722  -0.617  -0.442  1.00  0.00     0.229 C 
HETATM    9  C17 UNL     1       2.406  -1.307  -1.531  1.00  0.00     0.074 C 
HETATM   10  C18 UNL     1       3.509  -2.245  -1.193  1.00  0.00     0.006 C 
HETATM   11  C19 UNL     1       3.556  -2.714   0.218  1.00  0.00     0.000 C 
HETATM   12  C20 UNL     1       3.182  -1.682   1.238  1.00  0.00     0.006 C 
HETATM   13  C21 UNL     1       1.769  -1.274   0.905  1.00  0.00     0.074 C 
HETATM   14  O5  UNL     1       0.347  -0.420  -0.736  1.00  0.00    -0.197 OA
HETATM   15  O6  UNL     1      -0.400  -0.700   0.275  1.00  0.00    -0.224 OA
ENDROOT
BRANCH   1  16
HETATM   16  C8  UNL     1      -2.614  -0.412   1.089  1.00  0.00    -0.016 A 
HETATM   17  C3  UNL     1      -3.496  -1.065   0.314  1.00  0.00    -0.048 A 
HETATM   18  C4  UNL     1      -4.690  -1.560   0.892  1.00  0.00     0.031 A 
HETATM   19  C5  UNL     1      -4.964  -1.393   2.224  1.00  0.00     0.034 A 
HETATM   20 CL1  UNL     1      -6.434  -1.995   2.969  1.00  0.00    -0.084 Cl
HETATM   21  C6  UNL     1      -4.073  -0.735   3.021  1.00  0.00     0.024 A 
HETATM   22  C7  UNL     1      -2.928  -0.259   2.457  1.00  0.00     0.012 A 
BRANCH  17  23
HETATM   23  C2  UNL     1      -3.284  -1.417  -1.087  1.00  0.00     0.035 C 
HETATM   24  C1  UNL     1      -2.426  -2.696  -1.082  1.00  0.00     0.010 C 
ENDBRANCH  17  23
ENDBRANCH   1  16
BRANCH   4  25
HETATM   25  O1  UNL     1       0.705   3.615  -0.234  1.00  0.00    -0.277 OA
BRANCH  25  26
HETATM   26  C14 UNL     1       1.898   4.189   0.171  1.00  0.00     0.257 C 
HETATM   27  C15 UNL     1       1.980   5.571   0.711  1.00  0.00     0.126 C 
HETATM   28  O2  UNL     1       2.928   3.474   0.059  1.00  0.00    -0.266 OA
ENDBRANCH  25  26
ENDBRANCH   4  25
TORSDOF 4
