REMARK  6 active torsions:
REMARK  status: ('A' for Active; 'I' for Inactive)
REMARK    1  A    between atoms: C2_2  and  N1_4 
REMARK    2  A    between atoms: N1_4  and  N2_5 
REMARK    3  A    between atoms: C7_10  and  O2_11 
REMARK    4  A    between atoms: O2_11  and  C8_12 
REMARK       I    between atoms: C8_12  and  N3_14 
REMARK    5  A    between atoms: N3_14  and  S1_16 
REMARK    6  A    between atoms: S1_16  and  N4_17 
ROOT
HETATM    1  N2  UNL     1      -1.650   0.305   0.253  1.00  0.00    -0.101 NA
HETATM    2  O1  UNL     1      -1.348  -1.006  -0.014  1.00  0.00    -0.274 OA
HETATM    3  C4  UNL     1      -0.265  -0.883  -0.918  1.00  0.00     0.105 C 
HETATM    4  C5  UNL     1      -0.867  -0.360  -2.207  1.00  0.00     0.050 C 
HETATM    5  C6  UNL     1       0.420  -2.171  -1.180  1.00  0.00     0.050 C 
HETATM    6  C7  UNL     1       0.580   0.151  -0.228  1.00  0.00     0.190 C 
HETATM    7  C9  UNL     1      -0.363   0.790   0.717  1.00  0.00     0.134 C 
HETATM    8  C10 UNL     1      -0.291   2.301   0.695  1.00  0.00     0.033 C 
ENDROOT
BRANCH   6   9
HETATM    9  O2  UNL     1       1.758  -0.341   0.322  1.00  0.00    -0.293 OA
BRANCH   9  10
HETATM   10  C8  UNL     1       3.019   0.084  -0.065  1.00  0.00     0.376 C 
HETATM   11  O3  UNL     1       3.025   0.965  -0.966  1.00  0.00    -0.237 OA
HETATM   12  N3  UNL     1       4.207  -0.418   0.496  1.00  0.00    -0.213 N 
ATOM     13  H3  UNL     1       4.153  -1.131   1.223  1.00  0.00     0.185 HD
BRANCH  12  14
HETATM   14  S1  UNL     1       5.748   0.143  -0.017  1.00  0.00     0.321 S 
HETATM   15  O4  UNL     1       5.537   1.183  -1.104  1.00  0.00    -0.183 OA
HETATM   16  O5  UNL     1       6.596  -0.969  -0.529  1.00  0.00    -0.183 OA
BRANCH  14  17
HETATM   17  N4  UNL     1       6.580   0.881   1.308  1.00  0.00    -0.311 N 
ATOM     18  H42 UNL     1       6.198   0.963   2.250  1.00  0.00     0.170 HD
ATOM     19  H41 UNL     1       7.495   1.214   1.003  1.00  0.00     0.170 HD
ENDBRANCH  14  17
ENDBRANCH  12  14
ENDBRANCH   9  10
ENDBRANCH   6   9
BRANCH   1  20
HETATM   20  N1  UNL     1      -2.530   0.383   1.315  1.00  0.00    -0.135 NA
BRANCH  20  21
HETATM   21  C2  UNL     1      -3.910   0.169   0.967  1.00  0.00     0.088 C 
HETATM   22  C1  UNL     1      -4.444   1.149  -0.021  1.00  0.00     0.029 C 
HETATM   23  C3  UNL     1      -4.156  -1.229   0.420  1.00  0.00     0.029 C 
ENDBRANCH  20  21
ENDBRANCH   1  20
TORSDOF 6
