REMARK  0 active torsions:
REMARK  status: ('A' for Active; 'I' for Inactive)
ROOT
HETATM    1  O1  UNL     1       1.294   2.607  -0.158  1.00  0.00    -0.266 OA
HETATM    2  C1  UNL     1       1.314   1.354  -0.052  1.00  0.00     0.280 A 
HETATM    3  N1  UNL     1       2.432   0.627   0.063  1.00  0.00    -0.251 N 
ATOM      4  H1  UNL     1       3.331   1.109   0.066  1.00  0.00     0.192 HD
HETATM    5  N2  UNL     1       2.419  -0.699   0.174  1.00  0.00    -0.238 N 
ATOM      6  H2  UNL     1       3.307  -1.195   0.257  1.00  0.00     0.208 HD
HETATM    7  N3  UNL     1       1.295  -1.397   0.180  1.00  0.00    -0.269 N 
ATOM      8  H3  UNL     1       1.296  -2.413   0.267  1.00  0.00     0.190 HD
HETATM    9  C2  UNL     1       0.150  -0.697   0.066  1.00  0.00     0.157 A 
HETATM   10  N4  UNL     1      -1.137  -1.095   0.038  1.00  0.00    -0.281 N 
ATOM     11  H4  UNL     1      -1.442  -2.066   0.105  1.00  0.00     0.188 HD
HETATM   12  N5  UNL     1      -1.949  -0.065  -0.087  1.00  0.00    -0.264 N 
ATOM     13  H5  UNL     1      -2.967  -0.112  -0.131  1.00  0.00     0.190 HD
HETATM   14  C3  UNL     1      -1.218   1.048  -0.147  1.00  0.00     0.279 A 
HETATM   15  O2  UNL     1      -1.587   2.242  -0.265  1.00  0.00    -0.266 OA
HETATM   16  C4  UNL     1       0.114   0.679  -0.052  1.00  0.00     0.149 A 
ENDROOT
TORSDOF 0
