REMARK  2 active torsions:
REMARK  status: ('A' for Active; 'I' for Inactive)
REMARK    1  A    between atoms: N3_7  and  N4_8 
REMARK    2  A    between atoms: N5_11  and  N6_12 
ROOT
HETATM    1  C1  UNL     1      -2.458  -1.915   0.216  1.00  0.00     0.091 C 
HETATM    2  C2  UNL     1      -1.319  -0.957   0.105  1.00  0.00     0.097 A 
HETATM    3  N1  UNL     1      -1.487   0.316  -0.030  1.00  0.00    -0.316 N 
ATOM      4  H1  UNL     1      -2.440   0.677  -0.062  1.00  0.00     0.170 HD
HETATM    5  C3  UNL     1      -0.415   1.237  -0.136  1.00  0.00     0.234 A 
HETATM    6  N2  UNL     1      -0.669   2.647  -0.285  1.00  0.00    -0.060 NA
HETATM    7  N3  UNL     1       0.829   0.897  -0.108  1.00  0.00    -0.135 N 
HETATM    8  N5  UNL     1       1.081  -0.485   0.038  1.00  0.00    -0.112 N 
HETATM    9  N7  UNL     1       0.034  -1.400   0.143  1.00  0.00    -0.252 N 
ATOM     10  H7  UNL     1       0.239  -2.394   0.248  1.00  0.00     0.192 HD
ENDROOT
BRANCH   7  11
HETATM   11  N4  UNL     1       1.866   1.824  -0.214  1.00  0.00    -0.319 N 
ATOM     12  H42 UNL     1       1.684   2.822  -0.319  1.00  0.00     0.179 HD
ATOM     13  H41 UNL     1       2.850   1.555  -0.192  1.00  0.00     0.179 HD
ENDBRANCH   7  11
BRANCH   8  14
HETATM   14  N6  UNL     1       2.421  -0.906   0.074  1.00  0.00    -0.307 N 
ATOM     15  H62 UNL     1       3.187  -0.237  -0.003  1.00  0.00     0.180 HD
ATOM     16  H61 UNL     1       2.603  -1.904   0.179  1.00  0.00     0.180 HD
ENDBRANCH   8  14
TORSDOF 2
