REMARK  6 active torsions:
REMARK  status: ('A' for Active; 'I' for Inactive)
REMARK    1  A    between atoms: C2_2  and  C3_3 
REMARK    2  A    between atoms: C7_7  and  O1_8 
REMARK    3  A    between atoms: C8_10  and  O2_11 
REMARK    4  A    between atoms: C9_13  and  C10_14 
REMARK    5  A    between atoms: C10_14  and  N1_15 
REMARK    6  A    between atoms: N1_15  and  C11_17 
ROOT
HETATM    1  C3  UNL     1      -2.082   1.332   0.150  1.00  0.00     0.016 A 
HETATM    2  C4  UNL     1      -2.902   0.261   0.737  1.00  0.00    -0.001 A 
HETATM    3  C5  UNL     1      -2.259  -0.869   1.488  1.00  0.00     0.013 C 
HETATM    4  C6  UNL     1      -2.023  -1.918   0.427  1.00  0.00     0.022 C 
HETATM    5  C7  UNL     1      -0.816  -2.770   0.717  1.00  0.00     0.151 C 
HETATM    6  C8  UNL     1       0.264  -2.351  -0.256  1.00  0.00     0.153 C 
HETATM    7  C9  UNL     1      -0.139  -0.894  -0.524  1.00  0.00     0.040 C 
HETATM    8  C16 UNL     1      -1.620  -1.066  -0.763  1.00  0.00     0.005 C 
HETATM    9  C17 UNL     1      -2.401   0.185  -0.693  1.00  0.00     0.003 A 
ENDROOT
BRANCH   7  10
HETATM   10  C10 UNL     1       0.610  -0.462  -1.751  1.00  0.00     0.128 C 
BRANCH  10  11
HETATM   11  N1  UNL     1       2.022  -0.582  -1.474  1.00  0.00    -0.376 N 
ATOM     12  H1  UNL     1       2.495  -1.422  -1.807  1.00  0.00     0.161 HD
BRANCH  11  13
HETATM   13  C11 UNL     1       2.719   0.268  -0.854  1.00  0.00     0.100 A 
HETATM   14  C12 UNL     1       4.060   0.041  -0.651  1.00  0.00     0.050 A 
HETATM   15  C13 UNL     1       4.853   0.969   0.034  1.00  0.00     0.029 A 
HETATM   16  C14 UNL     1       4.270   2.128   0.509  1.00  0.00     0.049 A 
HETATM   17 CL1  UNL     1       5.287   3.266   1.359  1.00  0.00    -0.083 Cl
HETATM   18  C15 UNL     1       2.935   2.318   0.288  1.00  0.00     0.113 A 
HETATM   19  N2  UNL     1       2.186   1.403  -0.379  1.00  0.00    -0.351 N 
ATOM     20  H2  UNL     1       1.192   1.584  -0.522  1.00  0.00     0.166 HD
ENDBRANCH  11  13
ENDBRANCH  10  11
ENDBRANCH   7  10
BRANCH   6  21
HETATM   21  O2  UNL     1       0.046  -3.039  -1.441  1.00  0.00    -0.393 OA
ATOM     22  H2  UNL     1       0.724  -2.776  -2.052  1.00  0.00     0.210 HD
ENDBRANCH   6  21
BRANCH   5  23
HETATM   23  O1  UNL     1      -0.330  -2.576   2.013  1.00  0.00    -0.393 OA
ATOM     24  H1  UNL     1       0.432  -3.114   2.196  1.00  0.00     0.210 HD
ENDBRANCH   5  23
BRANCH   1  25
HETATM   25  C2  UNL     1      -2.822   2.605  -0.193  1.00  0.00    -0.031 C 
HETATM   26  C1  UNL     1      -2.189   3.702  -0.542  1.00  0.00     0.007 C 
ENDBRANCH   1  25
TORSDOF 6
