REMARK  7 active torsions:
REMARK  status: ('A' for Active; 'I' for Inactive)
REMARK    1  A    between atoms: N1_1  and  C1_5 
REMARK    2  A    between atoms: C6_10  and  N2_11 
REMARK    3  A    between atoms: N2_11  and  C7_13 
REMARK    4  A    between atoms: C9_15  and  O1_16 
REMARK    5  A    between atoms: O1_16  and  C10_17 
REMARK    6  A    between atoms: C16_25  and  N4_26 
REMARK       I    between atoms: N4_26  and  C17_28 
REMARK    7  A    between atoms: C17_28  and  O3_30 
ROOT
HETATM    1  C7  UNL     1       0.678   0.067  -0.204  1.00  0.00     0.121 A 
HETATM    2  C8  UNL     1      -0.485  -0.670  -0.207  1.00  0.00     0.105 A 
HETATM    3  C9  UNL     1      -1.727  -0.041  -0.090  1.00  0.00     0.161 A 
HETATM    4  N3  UNL     1      -1.713   1.295   0.023  1.00  0.00    -0.170 N 
ATOM      5  H3  UNL     1      -2.602   1.788   0.110  1.00  0.00     0.186 HD
HETATM    6  C16 UNL     1      -0.570   2.014   0.026  1.00  0.00     0.690 A 
HETATM    7  N5  UNL     1       0.608   1.391  -0.087  1.00  0.00    -0.176 N 
ATOM      8  H5  UNL     1       1.468   1.940  -0.083  1.00  0.00     0.186 HD
ENDROOT
BRANCH   1   9
HETATM    9  N2  UNL     1       1.790  -0.580  -0.315  1.00  0.00    -0.369 N 
ATOM     10  H2  UNL     1       1.748  -1.596  -0.398  1.00  0.00     0.161 HD
BRANCH   9  11
HETATM   11  C6  UNL     1       3.093   0.051  -0.328  1.00  0.00     0.113 C 
HETATM   12  C1  UNL     1       4.074  -0.848  -1.020  1.00  0.00     0.206 C 
HETATM   13  C2  UNL     1       4.691  -1.883  -0.153  1.00  0.00     0.035 C 
HETATM   14  C3  UNL     1       5.378  -1.150   1.008  1.00  0.00     0.002 C 
HETATM   15  C4  UNL     1       4.252  -0.552   1.821  1.00  0.00     0.002 C 
HETATM   16  C5  UNL     1       3.492   0.477   1.037  1.00  0.00     0.027 C 
BRANCH  12  17
HETATM   17  N1  UNL     1       5.103  -0.078  -1.672  1.00  0.00    -0.073 N 
ATOM     18  H13 UNL     1       5.761   0.324  -1.005  1.00  0.00     0.274 HD
ATOM     19  H12 UNL     1       5.756  -0.669  -2.186  1.00  0.00     0.274 HD
ATOM     20  H11 UNL     1       4.679   0.633  -2.268  1.00  0.00     0.274 HD
ENDBRANCH  12  17
ENDBRANCH   9  11
ENDBRANCH   1   9
BRANCH   3  21
HETATM   21  O1  UNL     1      -2.897  -0.774  -0.092  1.00  0.00    -0.329 OA
BRANCH  21  22
HETATM   22  C10 UNL     1      -4.192  -0.300   0.015  1.00  0.00     0.135 C 
HETATM   23  C11 UNL     1      -4.944  -0.961   1.192  1.00  0.00     0.037 C 
HETATM   24  C12 UNL     1      -6.093  -1.545   0.463  1.00  0.00    -0.011 C 
HETATM   25  C13 UNL     1      -5.421  -2.167  -0.762  1.00  0.00     0.012 C 
HETATM   26  C15 UNL     1      -6.474  -0.409  -0.496  1.00  0.00     0.012 C 
HETATM   27  C14 UNL     1      -5.099  -0.729  -1.102  1.00  0.00     0.016 C 
ENDBRANCH  21  22
ENDBRANCH   3  21
BRANCH   6  28
HETATM   28  N4  UNL     1      -0.606   3.303   0.137  1.00  0.00    -0.134 N 
HETATM   29  C17 UNL     1       0.574   4.064   0.142  1.00  0.00     0.396 C 
HETATM   30  O2  UNL     1       0.940   4.610   1.237  1.00  0.00    -0.236 OA
ATOM     31  H4  UNL     1      -1.507   3.774   0.222  1.00  0.00     0.189 HD
BRANCH  29  32
HETATM   32  O3  UNL     1       1.387   4.280  -0.953  1.00  0.00    -0.185 OA
HETATM   33 CL1  UNL     1       2.819   5.220  -0.891  1.00  0.00     0.072 Cl
ENDBRANCH  29  32
ENDBRANCH   6  28
TORSDOF 7
