REMARK  6 active torsions:
REMARK  status: ('A' for Active; 'I' for Inactive)
REMARK    1  A    between atoms: N1_1  and  C1_4 
REMARK    2  A    between atoms: C3_10  and  N4_11 
REMARK    3  A    between atoms: N4_11  and  S1_13 
REMARK    4  A    between atoms: S1_13  and  C4_16 
REMARK    5  A    between atoms: C7_19  and  O3_20 
REMARK    6  A    between atoms: O3_20  and  C8_21 
ROOT
HETATM    1  S1  UNL     1       2.187   0.454   0.618  1.00  0.00     0.276 S 
HETATM    2  O1  UNL     1       2.379  -0.011   2.039  1.00  0.00    -0.200 OA
HETATM    3  O2  UNL     1       2.455   1.931   0.607  1.00  0.00    -0.200 OA
ENDROOT
BRANCH   1   4
HETATM    4  N4  UNL     1       3.217  -0.406  -0.427  1.00  0.00    -0.112 N 
ATOM      5  H4  UNL     1       2.768  -1.003  -1.122  1.00  0.00     0.197 HD
BRANCH   4   6
HETATM    6  C3  UNL     1       4.485  -0.382  -0.432  1.00  0.00     0.707 A 
HETATM    7  N3  UNL     1       5.116  -1.151  -1.358  1.00  0.00    -0.186 N 
HETATM    8  C2  UNL     1       6.461  -1.191  -1.440  1.00  0.00     0.215 A 
ATOM      9  H3  UNL     1       4.560  -1.710  -2.005  1.00  0.00     0.185 HD
HETATM   10  N2  UNL     1       7.197  -0.454  -0.587  1.00  0.00    -0.187 N 
HETATM   11  C1  UNL     1       6.598   0.324   0.349  1.00  0.00     0.691 A 
ATOM     12  H2  UNL     1       8.215  -0.481  -0.645  1.00  0.00     0.185 HD
HETATM   13  N5  UNL     1       5.262   0.326   0.386  1.00  0.00    -0.022 N 
ATOM     14  H5  UNL     1       4.807   0.909   1.088  1.00  0.00     0.203 HD
BRANCH  11  15
HETATM   15  N1  UNL     1       7.347   1.011   1.143  1.00  0.00    -0.234 N 
ATOM     16  H12 UNL     1       8.367   1.009   1.115  1.00  0.00     0.174 HD
ATOM     17  H11 UNL     1       6.897   1.596   1.847  1.00  0.00     0.174 HD
ENDBRANCH  11  15
ENDBRANCH   4   6
ENDBRANCH   1   4
BRANCH   1  18
HETATM   18  C4  UNL     1       0.527   0.123   0.135  1.00  0.00     0.080 A 
HETATM   19  C5  UNL     1      -0.145   0.881  -0.780  1.00  0.00     0.028 A 
HETATM   20  C6  UNL     1      -1.446   0.569  -1.115  1.00  0.00     0.039 A 
HETATM   21  C7  UNL     1      -2.131  -0.497  -0.565  1.00  0.00     0.076 A 
HETATM   22  C14 UNL     1      -1.439  -1.265   0.367  1.00  0.00     0.039 A 
HETATM   23  C15 UNL     1      -0.138  -0.946   0.697  1.00  0.00     0.028 A 
BRANCH  21  24
HETATM   24  O3  UNL     1      -3.433  -0.776  -0.927  1.00  0.00    -0.309 OA
BRANCH  24  25
HETATM   25  C8  UNL     1      -4.540  -0.270  -0.310  1.00  0.00     0.093 A 
HETATM   26  C9  UNL     1      -4.406   0.583   0.756  1.00  0.00     0.039 A 
HETATM   27  C10 UNL     1      -5.530   1.112   1.402  1.00  0.00     0.003 A 
HETATM   28  C11 UNL     1      -6.786   0.767   0.957  1.00  0.00     0.002 A 
HETATM   29  C12 UNL     1      -6.942  -0.099  -0.123  1.00  0.00     0.022 A 
HETATM   30  C13 UNL     1      -5.805  -0.598  -0.732  1.00  0.00     0.044 A 
HETATM   31 BR1  UNL     1      -5.994  -1.776  -2.202  1.00  0.00    -0.048 Br
ENDBRANCH  24  25
ENDBRANCH  21  24
ENDBRANCH   1  18
TORSDOF 6
