REMARK  5 active torsions:
REMARK  status: ('A' for Active; 'I' for Inactive)
REMARK    1  A    between atoms: O1_2  and  C2_3 
REMARK    2  A    between atoms: C4_6  and  N1_7 
REMARK    3  A    between atoms: N1_7  and  S2_9 
REMARK    4  A    between atoms: S2_9  and  C5_12 
REMARK    5  A    between atoms: C10_17  and  C11_18 
ROOT
HETATM    1  S2  UNL     1       1.137   0.942   0.633  1.00  0.00     0.264 S 
HETATM    2  O2  UNL     1       1.743  -0.471   0.926  1.00  0.00    -0.200 OA
HETATM    3  O3  UNL     1       1.540   1.869   1.782  1.00  0.00    -0.200 OA
ENDROOT
BRANCH   1   4
HETATM    4  N1  UNL     1       1.826   1.440  -0.826  1.00  0.00    -0.260 N 
ATOM      5  H1  UNL     1       1.274   1.857  -1.576  1.00  0.00     0.181 HD
BRANCH   4   6
HETATM    6  C4  UNL     1       3.141   1.250  -0.929  1.00  0.00     0.160 A 
HETATM    7  S1  UNL     1       4.157   1.621  -2.263  1.00  0.00    -0.061 SA
HETATM    8  C3  UNL     1       5.637   1.021  -1.621  1.00  0.00     0.109 A 
HETATM    9  C2  UNL     1       5.249   0.567  -0.409  1.00  0.00     0.150 A 
HETATM   10  N2  UNL     1       3.984   0.697  -0.084  1.00  0.00    -0.316 N 
ATOM     11  H2  UNL     1       3.655   0.369   0.824  1.00  0.00     0.170 HD
BRANCH   9  12
HETATM   12  O1  UNL     1       6.148  -0.049   0.509  1.00  0.00    -0.340 OA
HETATM   13  C1  UNL     1       7.461  -0.295   0.342  1.00  0.00     0.211 C 
ENDBRANCH   9  12
ENDBRANCH   4   6
ENDBRANCH   1   4
BRANCH   1  14
HETATM   14  C5  UNL     1      -0.564   0.641   0.731  1.00  0.00     0.080 A 
HETATM   15  C6  UNL     1      -1.077   0.644   2.031  1.00  0.00     0.026 A 
HETATM   16  C7  UNL     1      -2.331   0.266   2.256  1.00  0.00     0.009 A 
HETATM   17  C8  UNL     1      -3.145  -0.135   1.209  1.00  0.00    -0.051 A 
HETATM   18  C9  UNL     1      -4.524  -0.531   1.572  1.00  0.00     0.049 C 
HETATM   19  C10 UNL     1      -2.716  -0.161  -0.096  1.00  0.00    -0.027 A 
HETATM   20  C14 UNL     1      -1.388   0.247  -0.298  1.00  0.00     0.037 A 
BRANCH  19  21
HETATM   21  C11 UNL     1      -3.559  -0.747  -1.129  1.00  0.00    -0.077 C 
HETATM   22  C12 UNL     1      -4.127   0.221  -2.119  1.00  0.00     0.044 C 
HETATM   23  C13 UNL     1      -4.328  -1.983  -0.839  1.00  0.00     0.044 C 
ENDBRANCH  19  21
ENDBRANCH   1  14
TORSDOF 5
