REMARK  10 active torsions:
REMARK  status: ('A' for Active; 'I' for Inactive)
REMARK    1  A    between atoms: C1_2  and  C2_3 
REMARK       I    between atoms: C1_2  and  N1_17 
REMARK    2  A    between atoms: C3_4  and  C4_5 
REMARK    3  A    between atoms: C9_10  and  C10_11 
REMARK    4  A    between atoms: C10_11  and  S1_12 
REMARK    5  A    between atoms: S1_12  and  C11_13 
REMARK    6  A    between atoms: C11_13  and  C12_14 
REMARK    7  A    between atoms: C12_14  and  O2_15 
REMARK    8  A    between atoms: N1_17  and  C13_19 
REMARK    9  A    between atoms: C13_19  and  C14_20 
REMARK   10  A    between atoms: C14_20  and  N2_21 
ROOT
HETATM    1  C2  UNL     1       0.259  -0.051  -0.395  1.00  0.00     0.070 C 
HETATM    2  C3  UNL     1       1.254   0.496   0.225  1.00  0.00    -0.016 C 
ENDROOT
BRANCH   2   3
HETATM    3  C4  UNL     1       2.699   0.514  -0.123  1.00  0.00     0.013 C 
HETATM    4  C5  UNL     1       3.212   1.947  -0.043  1.00  0.00     0.009 C 
HETATM    5  C6  UNL     1       2.948   2.699  -1.323  1.00  0.00     0.001 C 
HETATM    6  C7  UNL     1       3.597   2.006  -2.502  1.00  0.00     0.000 C 
HETATM    7  C8  UNL     1       3.261   0.575  -2.604  1.00  0.00     0.006 C 
HETATM    8  C9  UNL     1       3.101  -0.202  -1.330  1.00  0.00     0.002 C 
BRANCH   8   9
HETATM    9  C10 UNL     1       4.182  -1.233  -1.154  1.00  0.00     0.079 C 
BRANCH   9  10
HETATM   10  S1  UNL     1       5.756  -0.782  -0.551  1.00  0.00    -0.167 SA
BRANCH  10  11
HETATM   11  C11 UNL     1       5.935  -0.435   1.172  1.00  0.00     0.099 C 
BRANCH  11  12
HETATM   12  C12 UNL     1       5.687  -1.680   2.018  1.00  0.00     0.174 C 
BRANCH  12  13
HETATM   13  O2  UNL     1       6.575  -2.686   1.704  1.00  0.00    -0.400 OA
ATOM     14  H2  UNL     1       6.421  -3.461   2.231  1.00  0.00     0.209 HD
ENDBRANCH  12  13
ENDBRANCH  11  12
ENDBRANCH  10  11
ENDBRANCH   9  10
ENDBRANCH   8   9
ENDBRANCH   2   3
BRANCH   1  15
HETATM   15  C1  UNL     1      -1.112   0.071   0.160  1.00  0.00     0.240 C 
HETATM   16  O1  UNL     1      -1.217   0.714   1.233  1.00  0.00    -0.269 OA
HETATM   17  N1  UNL     1      -2.217  -0.514  -0.505  1.00  0.00    -0.356 N 
ATOM     18  H1  UNL     1      -2.095  -1.030  -1.376  1.00  0.00     0.162 HD
BRANCH  17  19
HETATM   19  C13 UNL     1      -3.527  -0.356   0.093  1.00  0.00     0.153 C 
BRANCH  19  20
HETATM   20  C14 UNL     1      -4.611  -1.004  -0.692  1.00  0.00     0.292 C 
BRANCH  20  21
HETATM   21  N2  UNL     1      -5.870  -0.807  -0.073  1.00  0.00     0.090 N 
HETATM   22  C15 UNL     1      -6.373   0.538  -0.060  1.00  0.00     0.272 C 
HETATM   23  C16 UNL     1      -7.704   0.381   0.643  1.00  0.00     0.032 C 
HETATM   24  C17 UNL     1      -7.365  -0.612   1.733  1.00  0.00     0.032 C 
HETATM   25  C18 UNL     1      -6.032  -1.225   1.274  1.00  0.00     0.272 C 
ENDBRANCH  20  21
ENDBRANCH  19  20
ENDBRANCH  17  19
ENDBRANCH   1  15
TORSDOF 10
