REMARK  3 active torsions:
REMARK  status: ('A' for Active; 'I' for Inactive)
REMARK    1  A    between atoms: C2_2  and  N1_4 
REMARK    2  A    between atoms: N1_4  and  C4_6 
REMARK    3  A    between atoms: C4_6  and  C5_7 
ROOT
HETATM    1  C5  UNL     1       0.618   0.169  -0.118  1.00  0.00     0.249 C 
HETATM    2  C6  UNL     1       1.804   1.133  -0.296  1.00  0.00     0.270 C 
HETATM    3  N2  UNL     1       3.066   0.463  -0.347  1.00  0.00    -0.071 N 
ATOM      4  H21 UNL     1       3.826   1.131  -0.476  1.00  0.00     0.277 HD
ATOM      5  H22 UNL     1       3.159  -0.068  -1.213  1.00  0.00     0.277 HD
HETATM    6  C7  UNL     1       3.313  -0.379   0.799  1.00  0.00     0.260 C 
HETATM    7  C8  UNL     1       2.039  -1.116   1.196  1.00  0.00     0.260 C 
HETATM    8  N3  UNL     1       1.229  -1.149  -0.035  1.00  0.00    -0.063 N 
ATOM      9  H31 UNL     1       1.754  -1.415  -0.868  1.00  0.00     0.278 HD
ATOM     10  H32 UNL     1       0.560  -1.918  -0.069  1.00  0.00     0.278 HD
ENDROOT
BRANCH   1  11
HETATM   11  C4  UNL     1      -0.358   0.304  -1.229  1.00  0.00     0.090 C 
BRANCH  11  12
HETATM   12  N1  UNL     1      -1.506  -0.486  -1.237  1.00  0.00    -0.396 N 
ATOM     13  H1  UNL     1      -1.588  -1.225  -1.936  1.00  0.00     0.159 HD
BRANCH  12  14
HETATM   14  C2  UNL     1      -2.551  -0.305  -0.323  1.00  0.00     0.072 C 
HETATM   15  C1  UNL     1      -2.248  -0.534   1.130  1.00  0.00     0.031 C 
HETATM   16  C3  UNL     1      -3.248   1.040  -0.419  1.00  0.00     0.031 C 
ENDBRANCH  12  14
ENDBRANCH  11  12
ENDBRANCH   1  11
TORSDOF 3
