REMARK  1 active torsions:
REMARK  status: ('A' for Active; 'I' for Inactive)
REMARK    1  A    between atoms: C2_5  and  C3_7 
ROOT
HETATM    1  F1  UNL     1      -1.042   1.599  -0.868  1.00  0.00    -0.225 F 
HETATM    2  C1  UNL     1      -1.091   0.523  -0.030  1.00  0.00     0.345 C 
HETATM    3  N1  UNL     1      -1.262  -0.766  -0.622  1.00  0.00    -0.102 NA
HETATM    4  N2  UNL     1      -0.355  -1.276   0.324  1.00  0.00    -0.088 NA
HETATM    5  C2  UNL     1       0.196   0.057   0.563  1.00  0.00     0.331 C 
HETATM    6  F2  UNL     1       0.309   0.378   1.898  1.00  0.00    -0.208 F 
ENDROOT
BRANCH   5   7
HETATM    7  C3  UNL     1       1.439   0.305  -0.215  1.00  0.00     0.444 C 
HETATM    8  F3  UNL     1       1.693   1.635  -0.466  1.00  0.00    -0.166 F 
HETATM    9  F4  UNL     1       2.500  -0.254   0.509  1.00  0.00    -0.166 F 
HETATM   10  F5  UNL     1       1.415  -0.355  -1.421  1.00  0.00    -0.166 F 
ENDBRANCH   5   7
TORSDOF 1
