REMARK  11 active torsions:
REMARK  status: ('A' for Active; 'I' for Inactive)
REMARK    1  A    between atoms: C4_12  and  C5_13 
REMARK    2  A    between atoms: C5_13  and  C6_14 
REMARK    3  A    between atoms: C6_14  and  C7_15 
REMARK    4  A    between atoms: C7_15  and  C8_16 
REMARK    5  A    between atoms: C8_16  and  N4_17 
REMARK    6  A    between atoms: N4_17  and  C9_20 
REMARK    7  A    between atoms: C9_20  and  C10_21 
REMARK    8  A    between atoms: C10_21  and  C11_22 
REMARK    9  A    between atoms: C11_22  and  C12_23 
REMARK   10  A    between atoms: C12_23  and  N5_24 
REMARK   11  A    between atoms: N7_30  and  O2_31 
ROOT
HETATM    1  N1  UNL     1       8.056   2.097  -0.363  1.00  0.00    -0.234 N 
ATOM      2  H11 UNL     1       8.194   2.532  -1.275  1.00  0.00     0.174 HD
ATOM      3  H12 UNL     1       8.751   2.200   0.377  1.00  0.00     0.174 HD
HETATM    4  C1  UNL     1       6.993   1.416  -0.159  1.00  0.00     0.680 A 
HETATM    5  N2  UNL     1       6.808   0.833   1.065  1.00  0.00    -0.154 N 
ATOM      6  H2  UNL     1       7.496   0.929   1.812  1.00  0.00     0.187 HD
HETATM    7  C2  UNL     1       5.680   0.129   1.237  1.00  0.00     0.290 A 
HETATM    8  O1  UNL     1       5.439  -0.444   2.355  1.00  0.00    -0.265 OA
HETATM    9  C3  UNL     1       4.709  -0.037   0.260  1.00  0.00     0.152 A 
HETATM   10  N3  UNL     1       3.587  -0.753   0.482  1.00  0.00    -0.337 N 
ATOM     11  H3  UNL     1       3.442  -1.191   1.392  1.00  0.00     0.167 HD
HETATM   12  C4  UNL     1       2.646  -0.899  -0.491  1.00  0.00     0.098 A 
HETATM   13  N6  UNL     1       2.883  -0.308  -1.663  1.00  0.00    -0.261 N 
ATOM     14  H6  UNL     1       2.193  -0.405  -2.408  1.00  0.00     0.191 HD
HETATM   15  N7  UNL     1       3.994   0.410  -1.904  1.00  0.00    -0.142 N 
HETATM   16  C13 UNL     1       4.947   0.573  -0.955  1.00  0.00     0.199 A 
HETATM   17  N8  UNL     1       6.073   1.280  -1.139  1.00  0.00    -0.170 N 
ATOM     18  H8  UNL     1       6.238   1.726  -2.041  1.00  0.00     0.186 HD
ENDROOT
BRANCH  12  19
HETATM   19  C5  UNL     1       1.432  -1.683  -0.218  1.00  0.00     0.078 C 
BRANCH  19  20
HETATM   20  C6  UNL     1       0.292  -0.855   0.336  1.00  0.00     0.009 C 
BRANCH  20  21
HETATM   21  C7  UNL     1      -0.856  -1.802   0.599  1.00  0.00     0.028 C 
BRANCH  21  22
HETATM   22  C8  UNL     1      -2.057  -1.122   1.168  1.00  0.00     0.232 C 
BRANCH  22  23
HETATM   23  N4  UNL     1      -2.655  -0.121   0.343  1.00  0.00    -0.075 N 
ATOM     24  H42 UNL     1      -1.980   0.562  -0.001  1.00  0.00     0.277 HD
ATOM     25  H41 UNL     1      -2.955  -0.483  -0.562  1.00  0.00     0.277 HD
BRANCH  23  26
HETATM   26  C9  UNL     1      -3.739   0.488   1.092  1.00  0.00     0.232 C 
BRANCH  26  27
HETATM   27  C10 UNL     1      -4.556   1.465   0.288  1.00  0.00     0.029 C 
BRANCH  27  28
HETATM   28  C11 UNL     1      -5.221   0.798  -0.901  1.00  0.00     0.029 C 
BRANCH  28  29
HETATM   29  C12 UNL     1      -6.146  -0.326  -0.422  1.00  0.00     0.229 C 
BRANCH  29  30
HETATM   30  N5  UNL     1      -7.185   0.171   0.452  1.00  0.00    -0.079 N 
ATOM     31  H53 UNL     1      -6.793   0.690   1.238  1.00  0.00     0.274 HD
ATOM     32  H52 UNL     1      -7.713   0.924   0.011  1.00  0.00     0.274 HD
ATOM     33  H51 UNL     1      -7.801  -0.577   0.771  1.00  0.00     0.274 HD
ENDBRANCH  29  30
ENDBRANCH  28  29
ENDBRANCH  27  28
ENDBRANCH  26  27
ENDBRANCH  23  26
ENDBRANCH  22  23
ENDBRANCH  21  22
ENDBRANCH  20  21
ENDBRANCH  19  20
ENDBRANCH  12  19
BRANCH  15  34
HETATM   34  O2  UNL     1       4.190   0.951  -3.005  1.00  0.00    -0.266 OA
ATOM     35  H2  UNL     1       4.975   1.458  -3.175  1.00  0.00     0.247 HD
ENDBRANCH  15  34
TORSDOF 11
