REMARK  1 active torsions:
REMARK  status: ('A' for Active; 'I' for Inactive)
REMARK    1  A    between atoms: S1_2  and  N1_3 
ROOT
HETATM    1  N1  UNL     1       0.516  -0.273   0.930  1.00  0.00    -0.300 N 
ATOM      2  H1  UNL     1       0.635   0.369   1.713  1.00  0.00     0.177 HD
HETATM    3  C2  UNL     1      -0.655  -0.431   0.384  1.00  0.00     0.215 C 
HETATM    4  N2  UNL     1      -1.834   0.243   0.804  1.00  0.00    -0.255 N 
ATOM      5  H2  UNL     1      -2.017   0.668   1.713  1.00  0.00     0.187 HD
HETATM    6  N3  UNL     1      -2.691   0.195  -0.306  1.00  0.00    -0.006 NA
HETATM    7  N4  UNL     1      -2.355  -0.935  -1.015  1.00  0.00    -0.006 NA
HETATM    8  N5  UNL     1      -1.035  -1.258  -0.694  1.00  0.00    -0.255 N 
ATOM      9  H5  UNL     1      -0.454  -1.960  -1.153  1.00  0.00     0.187 HD
ENDROOT
BRANCH   1  10
HETATM   10  S1  UNL     1       1.881  -1.167   0.313  1.00  0.00    -0.058 SA
HETATM   11  C1  UNL     1       3.300  -0.048   0.173  1.00  0.00     0.115 C 
ENDBRANCH   1  10
TORSDOF 1
