REMARK  3 active torsions:
REMARK  status: ('A' for Active; 'I' for Inactive)
REMARK    1  A    between atoms: C2_3  and  N2_4 
REMARK    2  A    between atoms: C2_3  and  C3_8 
REMARK    3  A    between atoms: C4_9  and  C5_11 
ROOT
HETATM    1  N1  UNL     1      -4.966  -0.584  -0.776  1.00  0.00    -0.195 NA
HETATM    2  C1  UNL     1      -3.863  -0.273  -0.634  1.00  0.00     0.096 C 
HETATM    3  C2  UNL     1      -2.443   0.112  -0.435  1.00  0.00     0.313 C 
ENDROOT
BRANCH   3   4
HETATM    4  N2  UNL     1      -2.374   1.419   0.159  1.00  0.00    -0.059 N 
ATOM      5  H23 UNL     1      -2.888   2.114  -0.382  1.00  0.00     0.276 HD
ATOM      6  H22 UNL     1      -2.912   1.477   1.023  1.00  0.00     0.276 HD
ATOM      7  H21 UNL     1      -1.398   1.684   0.296  1.00  0.00     0.276 HD
ENDBRANCH   3   4
BRANCH   3   8
HETATM    8  C3  UNL     1      -1.762  -0.879   0.438  1.00  0.00     0.043 C 
HETATM    9  C4  UNL     1      -0.471  -0.943   0.628  1.00  0.00     0.027 C 
HETATM   10  N3  UNL     1       0.069  -1.929   1.483  1.00  0.00    -0.107 NA
BRANCH   9  11
HETATM   11  C5  UNL     1       0.420   0.013  -0.048  1.00  0.00     0.033 C 
HETATM   12  C6  UNL     1       1.578  -0.737  -0.729  1.00  0.00     0.010 C 
HETATM   13  C7  UNL     1       2.461   0.474  -1.064  1.00  0.00     0.001 C 
HETATM   14  C8  UNL     1       2.549   1.126   0.292  1.00  0.00     0.001 C 
HETATM   15  C9  UNL     1       1.220   0.842   0.955  1.00  0.00     0.010 C 
ENDBRANCH   9  11
ENDBRANCH   3   8
TORSDOF 3
