REMARK  0 active torsions:
REMARK  status: ('A' for Active; 'I' for Inactive)
ROOT
HETATM    1  C1  UNL     1      -4.556  -2.868  -0.181  1.00  0.00     0.048 C 
HETATM    2  C2  UNL     1      -3.605  -1.719  -0.168  1.00  0.00    -0.060 A 
HETATM    3  C3  UNL     1      -4.157  -0.466  -0.267  1.00  0.00     0.009 A 
HETATM    4  C4  UNL     1      -3.367   0.658  -0.264  1.00  0.00     0.032 A 
HETATM    5  C5  UNL     1      -2.007   0.496  -0.161  1.00  0.00     0.059 A 
HETATM    6  C6  UNL     1      -1.423  -0.774  -0.059  1.00  0.00     0.058 A 
HETATM    7  C7  UNL     1      -2.256  -1.864  -0.066  1.00  0.00     0.038 A 
HETATM    8  N1  UNL     1      -0.052  -1.090   0.051  1.00  0.00    -0.348 N 
ATOM      9  H1  UNL     1       0.144  -1.973   0.524  1.00  0.00     0.163 HD
HETATM   10  C8  UNL     1       1.128  -0.369  -0.396  1.00  0.00     0.206 A 
HETATM   11  O1  UNL     1       1.384  -0.454  -1.763  1.00  0.00    -0.294 OA
HETATM   12  C9  UNL     1       2.513  -1.188  -1.546  1.00  0.00     0.157 A 
HETATM   13  N2  UNL     1       3.598  -1.854  -2.072  1.00  0.00    -0.346 N 
ATOM     14  H2  UNL     1       3.736  -1.887  -3.082  1.00  0.00     0.167 HD
HETATM   15  C10 UNL     1       4.473  -2.459  -1.256  1.00  0.00     0.090 A 
HETATM   16  C11 UNL     1       4.326  -2.440   0.114  1.00  0.00     0.018 A 
HETATM   17  C12 UNL     1       3.251  -1.779   0.646  1.00  0.00     0.018 A 
HETATM   18  C13 UNL     1       2.341  -1.149  -0.216  1.00  0.00     0.053 A 
HETATM   19  C14 UNL     1       1.149   1.051   0.066  1.00  0.00     0.031 A 
HETATM   20  C15 UNL     1       2.407   1.488   0.430  1.00  0.00     0.015 A 
HETATM   21  C16 UNL     1       2.599   2.780   0.873  1.00  0.00     0.003 A 
HETATM   22  C17 UNL     1       1.522   3.626   0.948  1.00  0.00     0.029 A 
HETATM   23  C18 UNL     1       0.243   3.233   0.593  1.00  0.00     0.073 A 
HETATM   24  N3  UNL     1      -0.858   4.114   0.672  1.00  0.00    -0.100 NA
HETATM   25  C19 UNL     1       0.095   1.914   0.150  1.00  0.00     0.068 A 
HETATM   26  N4  UNL     1      -1.297   1.737  -0.166  1.00  0.00    -0.352 N 
ATOM     27  H4  UNL     1      -1.826   2.573  -0.416  1.00  0.00     0.166 HD
ENDROOT
TORSDOF 0
