REMARK  6 active torsions:
REMARK  status: ('A' for Active; 'I' for Inactive)
REMARK    1  A    between atoms: C2_2  and  C3_3 
REMARK    2  A    between atoms: N2_11  and  O3_12 
REMARK    3  A    between atoms: O3_12  and  C7_13 
REMARK    4  A    between atoms: C8_14  and  O4_15 
REMARK    5  A    between atoms: C9_17  and  O5_18 
REMARK    6  A    between atoms: C10_20  and  O6_21 
ROOT
HETATM    1  C7  UNL     1      -1.300  -0.184  -0.157  1.00  0.00     0.204 C 
HETATM    2  C8  UNL     1      -2.027   1.099   0.221  1.00  0.00     0.182 C 
HETATM    3  C9  UNL     1      -3.252   0.928   1.020  1.00  0.00     0.179 C 
HETATM    4  C10 UNL     1      -4.116  -0.278   0.712  1.00  0.00     0.164 C 
HETATM    5  C11 UNL     1      -3.159  -1.451   0.665  1.00  0.00     0.100 A 
HETATM    6  S1  UNL     1      -2.807  -2.677  -0.338  1.00  0.00    -0.146 SA
HETATM    7  C12 UNL     1      -2.405  -1.131  -0.654  1.00  0.00     0.051 A 
HETATM    8  C13 UNL     1      -3.196  -0.455  -1.780  1.00  0.00     0.031 C 
ENDROOT
BRANCH   1   9
HETATM    9  O3  UNL     1      -0.426  -0.074  -1.141  1.00  0.00    -0.258 OA
BRANCH   9  10
HETATM   10  N2  UNL     1       0.825  -0.326  -1.135  1.00  0.00    -0.143 N 
HETATM   11  C6  UNL     1       1.614   0.069  -2.285  1.00  0.00     0.342 C 
HETATM   12  C5  UNL     1       3.048  -0.194  -2.322  1.00  0.00     0.313 C 
HETATM   13  O2  UNL     1       1.035   0.637  -3.239  1.00  0.00    -0.259 OA
HETATM   14  N1  UNL     1       3.629  -0.842  -1.199  1.00  0.00    -0.335 N 
HETATM   15  O1  UNL     1       3.774   0.131  -3.306  1.00  0.00    -0.262 OA
HETATM   16  C3  UNL     1       2.991  -0.603   0.090  1.00  0.00     0.113 C 
ATOM     17  H1  UNL     1       4.449  -1.442  -1.290  1.00  0.00     0.164 HD
HETATM   18  C4  UNL     1       3.611  -1.380   1.206  1.00  0.00     0.049 C 
HETATM   19  C14 UNL     1       1.558  -0.958  -0.112  1.00  0.00     0.279 C 
HETATM   20  O7  UNL     1       1.074  -1.820   0.656  1.00  0.00    -0.268 OA
BRANCH  16  21
HETATM   21  C2  UNL     1       3.174   0.861   0.407  1.00  0.00     0.036 C 
HETATM   22  C1  UNL     1       4.689   1.098   0.500  1.00  0.00     0.008 C 
ENDBRANCH  16  21
ENDBRANCH   9  10
ENDBRANCH   1   9
BRANCH   2  23
HETATM   23  O4  UNL     1      -1.102   1.790   1.050  1.00  0.00    -0.390 OA
ATOM     24  H4  UNL     1      -1.556   2.591   1.286  1.00  0.00     0.210 HD
ENDBRANCH   2  23
BRANCH   3  25
HETATM   25  O5  UNL     1      -4.000   2.099   0.967  1.00  0.00    -0.390 OA
ATOM     26  H5  UNL     1      -4.790   1.989   1.482  1.00  0.00     0.210 HD
ENDBRANCH   3  25
BRANCH   4  27
HETATM   27  O6  UNL     1      -4.941  -0.476   1.818  1.00  0.00    -0.392 OA
ATOM     28  H6  UNL     1      -5.483  -1.232   1.625  1.00  0.00     0.210 HD
ENDBRANCH   4  27
TORSDOF 6
