REMARK  5 active torsions:
REMARK  status: ('A' for Active; 'I' for Inactive)
REMARK    1  A    between atoms: C2_2  and  C3_3 
REMARK    2  A    between atoms: C3_3  and  C4_4 
REMARK    3  A    between atoms: C4_4  and  C5_5 
REMARK       I    between atoms: C5_5  and  N1_7 
REMARK    4  A    between atoms: N1_7  and  C6_9 
REMARK    5  A    between atoms: N3_16  and  C10_17 
ROOT
HETATM    1  C6  UNL     1      -0.020  -1.327   0.347  1.00  0.00     0.144 A 
HETATM    2  C7  UNL     1       0.636  -2.500   0.021  1.00  0.00     0.080 A 
HETATM    3 BR1  UNL     1       2.518  -2.858   0.119  1.00  0.00    -0.045 Br
HETATM    4  C8  UNL     1      -0.352  -3.370  -0.394  1.00  0.00     0.043 A 
HETATM    5  C9  UNL     1      -0.073  -4.759  -0.839  1.00  0.00     0.071 C 
HETATM    6  N2  UNL     1      -1.517  -2.712  -0.305  1.00  0.00    -0.300 N 
ATOM      7  H2  UNL     1      -2.425  -3.108  -0.548  1.00  0.00     0.187 HD
HETATM    8  N3  UNL     1      -1.332  -1.488   0.138  1.00  0.00    -0.270 N 
ENDROOT
BRANCH   1   9
HETATM    9  N1  UNL     1       0.510  -0.263   0.776  1.00  0.00    -0.311 N 
HETATM   10  C5  UNL     1       1.848   0.032   1.034  1.00  0.00     0.223 C 
HETATM   11  O1  UNL     1       2.370  -0.360   2.131  1.00  0.00    -0.273 OA
ATOM     12  H1  UNL     1      -0.143   0.498   0.963  1.00  0.00     0.170 HD
BRANCH  10  13
HETATM   13  C4  UNL     1       2.707   0.788   0.088  1.00  0.00     0.103 C 
BRANCH  13  14
HETATM   14  C3  UNL     1       4.104   0.931   0.629  1.00  0.00     0.009 C 
BRANCH  14  15
HETATM   15  C2  UNL     1       5.015   1.684  -0.280  1.00  0.00    -0.004 C 
HETATM   16  C1  UNL     1       6.382   1.755   0.381  1.00  0.00     0.005 C 
ENDBRANCH  14  15
ENDBRANCH  13  14
ENDBRANCH  10  13
ENDBRANCH   1   9
BRANCH   8  17
HETATM   17  C10 UNL     1      -2.396  -0.559   0.333  1.00  0.00     0.115 C 
HETATM   18  C11 UNL     1      -3.172  -0.297  -0.947  1.00  0.00     0.059 C 
HETATM   19  C12 UNL     1      -4.353   0.587  -0.546  1.00  0.00     0.124 C 
HETATM   20  C13 UNL     1      -4.196   1.998  -1.010  1.00  0.00     0.034 C 
HETATM   21  O2  UNL     1      -4.455   0.719   0.836  1.00  0.00    -0.380 OA
HETATM   22  C14 UNL     1      -3.451   2.666   0.139  1.00  0.00     0.034 C 
HETATM   23  C15 UNL     1      -3.351   1.518   1.128  1.00  0.00     0.124 C 
HETATM   24  C16 UNL     1      -2.030   0.757   0.913  1.00  0.00     0.059 C 
ENDBRANCH   8  17
TORSDOF 5
