REMARK  4 active torsions:
REMARK  status: ('A' for Active; 'I' for Inactive)
REMARK    1  A    between atoms: C2_3  and  N2_4 
REMARK       I    between atoms: N2_4  and  C3_6 
REMARK    2  A    between atoms: C3_6  and  C4_8 
REMARK    3  A    between atoms: C4_8  and  N3_9 
REMARK    4  A    between atoms: N4_17  and  C11_18 
ROOT
HETATM    1  N1  UNL     1      -1.506  -0.699   3.361  1.00  0.00    -0.195 NA
HETATM    2  C1  UNL     1      -0.935  -0.498   2.379  1.00  0.00     0.091 C 
HETATM    3  C2  UNL     1      -0.186  -0.231   1.139  1.00  0.00     0.128 C 
HETATM    4  C9  UNL     1      -0.411  -1.349   0.145  1.00  0.00     0.067 C 
HETATM    5  C10 UNL     1      -1.846  -1.339  -0.363  1.00  0.00     0.126 C 
HETATM    6  N4  UNL     1      -2.344  -0.020  -0.504  1.00  0.00    -0.388 N 
HETATM    7  C16 UNL     1      -1.397   1.006  -0.585  1.00  0.00     0.062 C 
HETATM    8  C17 UNL     1      -0.582   1.128   0.652  1.00  0.00     0.091 C 
ENDROOT
BRANCH   3   9
HETATM    9  N2  UNL     1       1.231  -0.215   1.488  1.00  0.00    -0.337 N 
HETATM   10  C3  UNL     1       2.267   0.045   0.554  1.00  0.00     0.236 C 
HETATM   11  O1  UNL     1       2.078   0.292  -0.671  1.00  0.00    -0.272 OA
ATOM     12  H2  UNL     1       1.491  -0.401   2.457  1.00  0.00     0.164 HD
BRANCH  10  13
HETATM   13  C4  UNL     1       3.680   0.019   1.082  1.00  0.00     0.228 C 
BRANCH  13  14
HETATM   14  N3  UNL     1       4.615   0.301   0.019  1.00  0.00    -0.343 N 
HETATM   15  C5  UNL     1       5.225  -0.718  -0.841  1.00  0.00     0.127 C 
HETATM   16  C6  UNL     1       6.465  -0.088  -1.402  1.00  0.00     0.029 C 
HETATM   17  C7  UNL     1       6.375   1.387  -1.131  1.00  0.00     0.104 C 
HETATM   18  C8  UNL     1       5.112   1.549  -0.393  1.00  0.00     0.220 C 
HETATM   19  O2  UNL     1       4.562   2.656  -0.170  1.00  0.00    -0.273 OA
ENDBRANCH  13  14
ENDBRANCH  10  13
ENDBRANCH   3   9
BRANCH   6  20
HETATM   20  C11 UNL     1      -3.706   0.221  -0.487  1.00  0.00     0.083 C 
HETATM   21  C12 UNL     1      -4.461  -0.115   0.772  1.00  0.00     0.025 C 
HETATM   22  C13 UNL     1      -5.923  -0.077   0.322  1.00  0.00     0.002 C 
HETATM   23  C14 UNL     1      -5.924  -0.051  -1.178  1.00  0.00     0.002 C 
HETATM   24  C15 UNL     1      -4.529  -0.527  -1.519  1.00  0.00     0.025 C 
ENDBRANCH   6  20
TORSDOF 4
