REMARK  14 active torsions:
REMARK  status: ('A' for Active; 'I' for Inactive)
REMARK    1  A    between atoms: C3_3  and  C4_4 
REMARK    2  A    between atoms: C4_4  and  O1_5 
REMARK    3  A    between atoms: O1_5  and  C5_6 
REMARK       I    between atoms: C5_6  and  N1_8 
REMARK    4  A    between atoms: N1_8  and  C6_10 
REMARK    5  A    between atoms: C6_10  and  C7_11 
REMARK    6  A    between atoms: C9_14  and  C10_15 
REMARK    7  A    between atoms: C10_15  and  O4_16 
REMARK    8  A    between atoms: C11_18  and  O5_19 
REMARK    9  A    between atoms: C12_21  and  O6_22 
REMARK   10  A    between atoms: C13_24  and  O7_25 
REMARK   11  A    between atoms: O7_25  and  C14_26 
REMARK   12  A    between atoms: C15_27  and  N2_28 
REMARK   13  A    between atoms: C17_33  and  N3_34 
REMARK   14  A    between atoms: C18_38  and  O8_39 
ROOT
HETATM    1  C1  UNL     1       4.512  -0.314  -2.287  1.00  0.00     0.097 C 
HETATM    2  C2  UNL     1       3.327  -0.531  -2.064  1.00  0.00    -0.182 C 
HETATM    3  C3  UNL     1       1.965  -0.797  -1.878  1.00  0.00     0.151 C 
ENDROOT
BRANCH   3   4
HETATM    4  C4  UNL     1       1.461  -1.197  -0.542  1.00  0.00     0.213 C 
HETATM    5  O3  UNL     1       2.143  -2.321  -0.055  1.00  0.00    -0.341 OA
HETATM    6  C9  UNL     1       1.918  -3.530  -0.552  1.00  0.00     0.180 C 
HETATM    7  C11 UNL     1       0.496  -3.881  -0.892  1.00  0.00     0.180 C 
HETATM    8  C12 UNL     1      -0.422  -2.867  -0.252  1.00  0.00     0.183 C 
HETATM    9  C13 UNL     1      -0.049  -1.466  -0.590  1.00  0.00     0.217 C 
BRANCH   4  10
HETATM   10  O1  UNL     1       1.621  -0.253   0.423  1.00  0.00    -0.262 OA
BRANCH  10  11
HETATM   11  C5  UNL     1       2.587   0.340   1.104  1.00  0.00     0.363 C 
HETATM   12  O2  UNL     1       3.769   0.009   0.924  1.00  0.00    -0.238 OA
HETATM   13  N1  UNL     1       2.334   1.362   2.056  1.00  0.00    -0.337 N 
ATOM     14  H1  UNL     1       1.362   1.631   2.209  1.00  0.00     0.164 HD
BRANCH  13  15
HETATM   15  C6  UNL     1       3.330   2.041   2.814  1.00  0.00     0.124 C 
BRANCH  15  16
HETATM   16  C7  UNL     1       4.293   2.801   1.976  1.00  0.00     0.015 C 
HETATM   17  C8  UNL     1       5.337   3.519   2.811  1.00  0.00     0.006 C 
ENDBRANCH  15  16
ENDBRANCH  13  15
ENDBRANCH  10  11
ENDBRANCH   4  10
BRANCH   6  18
HETATM   18  C10 UNL     1       2.798  -4.000  -1.689  1.00  0.00     0.198 C 
BRANCH  18  19
HETATM   19  O4  UNL     1       4.147  -4.022  -1.296  1.00  0.00    -0.398 OA
ATOM     20  H4  UNL     1       4.700  -4.317  -2.010  1.00  0.00     0.209 HD
ENDBRANCH  18  19
ENDBRANCH   6  18
BRANCH   7  21
HETATM   21  O5  UNL     1       0.254  -3.994  -2.260  1.00  0.00    -0.390 OA
ATOM     22  H5  UNL     1      -0.644  -4.216  -2.475  1.00  0.00     0.210 HD
ENDBRANCH   7  21
BRANCH   8  23
HETATM   23  O6  UNL     1      -0.392  -3.092   1.136  1.00  0.00    -0.390 OA
ATOM     24  H6  UNL     1      -0.969  -2.454   1.539  1.00  0.00     0.210 HD
ENDBRANCH   8  23
BRANCH   9  25
HETATM   25  O7  UNL     1      -0.767  -0.643   0.261  1.00  0.00    -0.370 OA
BRANCH  25  26
HETATM   26  C14 UNL     1      -1.683   0.183  -0.349  1.00  0.00     0.159 C 
HETATM   27  C15 UNL     1      -1.344   1.608  -0.005  1.00  0.00     0.214 C 
HETATM   28  C16 UNL     1      -2.525   2.453   0.388  1.00  0.00     0.070 C 
HETATM   29  C17 UNL     1      -3.758   2.216  -0.417  1.00  0.00     0.214 C 
HETATM   30  C18 UNL     1      -4.086   0.766  -0.550  1.00  0.00     0.157 C 
HETATM   31  C20 UNL     1      -3.096  -0.144   0.093  1.00  0.00     0.044 C 
HETATM   32  C21 UNL     1      -3.282  -0.143   1.574  1.00  0.00     0.015 C 
BRANCH  27  33
HETATM   33  N2  UNL     1      -0.624   2.231  -1.116  1.00  0.00    -0.072 N 
ATOM     34  H23 UNL     1       0.201   1.696  -1.386  1.00  0.00     0.274 HD
ATOM     35  H22 UNL     1      -1.139   2.161  -1.993  1.00  0.00     0.274 HD
ATOM     36  H21 UNL     1      -0.394   3.197  -0.883  1.00  0.00     0.274 HD
ENDBRANCH  27  33
BRANCH  29  37
HETATM   37  N3  UNL     1      -4.848   2.940   0.239  1.00  0.00    -0.072 N 
ATOM     38  H33 UNL     1      -4.958   2.691   1.222  1.00  0.00     0.274 HD
ATOM     39  H32 UNL     1      -4.644   3.930   0.376  1.00  0.00     0.274 HD
ATOM     40  H31 UNL     1      -5.691   2.778  -0.312  1.00  0.00     0.274 HD
ENDBRANCH  29  37
BRANCH  30  41
HETATM   41  O8  UNL     1      -5.359   0.545  -0.010  1.00  0.00    -0.388 OA
HETATM   42  C19 UNL     1      -6.250   0.118  -0.999  1.00  0.00     0.202 C 
ENDBRANCH  30  41
ENDBRANCH  25  26
ENDBRANCH   9  25
ENDBRANCH   3   4
TORSDOF 14
