REMARK  4 active torsions:
REMARK  status: ('A' for Active; 'I' for Inactive)
REMARK    1  A    between atoms: C3_3  and  O1_4 
REMARK    2  A    between atoms: C8_10  and  C9_11 
REMARK    3  A    between atoms: C9_11  and  C10_12 
REMARK    4  A    between atoms: C21_25  and  N1_26 
ROOT
HETATM    1  C1  UNL     1      -2.142  -0.422  -2.810  1.00  0.00     0.013 C 
HETATM    2  C2  UNL     1      -1.475  -0.767  -1.490  1.00  0.00     0.019 C 
HETATM    3  C3  UNL     1      -2.478  -1.474  -0.618  1.00  0.00     0.125 C 
HETATM    4  C4  UNL     1      -2.421  -1.184   0.824  1.00  0.00     0.070 C 
HETATM    5  C5  UNL     1      -1.730   0.026   1.293  1.00  0.00     0.070 C 
HETATM    6  C6  UNL     1      -1.115  -0.299   2.639  1.00  0.00     0.039 C 
HETATM    7  C7  UNL     1      -0.028  -1.193   2.213  1.00  0.00     0.009 C 
HETATM    8  C8  UNL     1       0.430  -0.804   0.774  1.00  0.00     0.012 C 
HETATM    9  C17 UNL     1      -0.438   0.336   0.496  1.00  0.00     0.034 C 
HETATM   10  C18 UNL     1      -1.057   0.551  -0.859  1.00  0.00    -0.028 C 
HETATM   11  C19 UNL     1      -0.291   1.375  -1.826  1.00  0.00     0.016 C 
HETATM   12  C20 UNL     1      -2.388   1.308  -0.721  1.00  0.00     0.071 C 
HETATM   13  C21 UNL     1      -2.488   2.079   0.560  1.00  0.00     0.319 C 
HETATM   14  O3  UNL     1      -2.489   1.135   1.557  1.00  0.00    -0.347 OA
ENDROOT
BRANCH   8  15
HETATM   15  C9  UNL     1       1.899  -0.715   0.941  1.00  0.00     0.053 C 
HETATM   16  C11 UNL     1       2.356   0.410   1.843  1.00  0.00     0.021 C 
HETATM   17  C12 UNL     1       2.899   1.479   0.904  1.00  0.00     0.009 C 
HETATM   18  C13 UNL     1       3.527   0.652  -0.203  1.00  0.00     0.022 C 
HETATM   19  C14 UNL     1       3.574   1.301  -1.533  1.00  0.00     0.013 C 
HETATM   20  C15 UNL     1       2.869  -0.712  -0.163  1.00  0.00     0.117 C 
HETATM   21  C16 UNL     1       2.534  -1.320  -1.460  1.00  0.00     0.053 C 
HETATM   22  F1  UNL     1       4.013  -1.537   0.149  1.00  0.00    -0.242 F 
BRANCH  15  23
HETATM   23  C10 UNL     1       2.306  -2.004   1.662  1.00  0.00     0.244 C 
HETATM   24  O2  UNL     1       3.172  -2.006   2.503  1.00  0.00    -0.306 OA
ENDBRANCH  15  23
ENDBRANCH   8  15
BRANCH   3  25
HETATM   25  O1  UNL     1      -2.266  -2.858  -0.856  1.00  0.00    -0.395 OA
ATOM     26  H1  UNL     1      -2.899  -3.304  -0.306  1.00  0.00     0.210 HD
ENDBRANCH   3  25
BRANCH  13  27
HETATM   27  N1  UNL     1      -3.808   2.694   0.570  1.00  0.00    -0.053 N 
ATOM     28  H13 UNL     1      -3.996   3.260  -0.258  1.00  0.00     0.277 HD
ATOM     29  H12 UNL     1      -4.567   2.024   0.441  1.00  0.00     0.277 HD
ATOM     30  H11 UNL     1      -3.876   3.219   1.442  1.00  0.00     0.277 HD
ENDBRANCH  13  27
TORSDOF 4
