REMARK  8 active torsions:
REMARK  status: ('A' for Active; 'I' for Inactive)
REMARK    1  A    between atoms: O1_1  and  C1_3 
REMARK    2  A    between atoms: C1_3  and  O2_4 
REMARK    3  A    between atoms: O2_4  and  C2_5 
REMARK    4  A    between atoms: C2_5  and  N1_6 
REMARK    5  A    between atoms: N2_8  and  C4_9 
REMARK    6  A    between atoms: C4_9  and  C5_10 
REMARK    7  A    between atoms: C5_10  and  O3_11 
REMARK    8  A    between atoms: N4_14  and  O4_15 
ROOT
HETATM    1  N1  UNL     1      -0.898  -0.252  -0.398  1.00  0.00    -0.223 N 
HETATM    2  C3  UNL     1       0.263  -0.131   0.269  1.00  0.00     0.224 A 
HETATM    3  N2  UNL     1       1.235  -0.657  -0.503  1.00  0.00    -0.265 N 
HETATM    4  N3  UNL     1       0.651  -1.081  -1.609  1.00  0.00     0.027 NA
HETATM    5  N4  UNL     1      -0.647  -0.840  -1.556  1.00  0.00    -0.074 N 
ENDROOT
BRANCH   1   6
HETATM    6  C2  UNL     1      -2.188   0.200   0.103  1.00  0.00     0.324 C 
BRANCH   6   7
HETATM    7  O2  UNL     1      -2.829  -0.808   0.826  1.00  0.00    -0.346 OA
BRANCH   7   8
HETATM    8  C1  UNL     1      -4.047  -0.289   1.264  1.00  0.00     0.336 C 
BRANCH   8   9
HETATM    9  O1  UNL     1      -4.769   0.072   0.122  1.00  0.00    -0.377 OA
ATOM     10  H1  UNL     1      -5.599   0.426   0.420  1.00  0.00     0.212 HD
ENDBRANCH   8   9
ENDBRANCH   7   8
ENDBRANCH   6   7
ENDBRANCH   1   6
BRANCH   5  11
HETATM   11  O4  UNL     1      -1.595  -1.141  -2.531  1.00  0.00    -0.255 OA
ATOM     12  H4  UNL     1      -1.415  -1.563  -3.363  1.00  0.00     0.248 HD
ENDBRANCH   5  11
BRANCH   3  13
HETATM   13  C4  UNL     1       2.618  -0.704  -0.112  1.00  0.00     0.173 C 
BRANCH  13  14
HETATM   14  C5  UNL     1       3.402   0.502  -0.525  1.00  0.00     0.185 C 
BRANCH  14  15
HETATM   15  O3  UNL     1       4.717   0.319  -0.082  1.00  0.00    -0.399 OA
ATOM     16  H3  UNL     1       5.215   1.085  -0.344  1.00  0.00     0.209 HD
ENDBRANCH  14  15
ENDBRANCH  13  14
ENDBRANCH   3  13
TORSDOF 8
