REMARK  4 active torsions:
REMARK  status: ('A' for Active; 'I' for Inactive)
REMARK       I    between atoms: N1_2  and  C3_4 
REMARK       I    between atoms: C3_4  and  N2_6 
REMARK       I    between atoms: N2_6  and  C4_8 
REMARK    1  A    between atoms: C4_8  and  C5_10 
REMARK    2  A    between atoms: C5_10  and  N3_11 
REMARK    3  A    between atoms: C5_10  and  C6_15 
REMARK    4  A    between atoms: C6_15  and  N4_16 
REMARK       I    between atoms: N4_16  and  C7_18 
REMARK       I    between atoms: C7_18  and  N8_26 
REMARK       I    between atoms: N5_19  and  C8_21 
ROOT
HETATM    1  N4  UNL     1       1.129   0.409   1.071  1.00  0.00    -0.223 N 
ATOM      2  H4  UNL     1       0.662   1.308   1.192  1.00  0.00     0.177 HD
HETATM    3  C7  UNL     1       2.441   0.332   0.490  1.00  0.00     0.689 C 
HETATM    4  N5  UNL     1       2.615   0.875  -0.635  1.00  0.00    -0.163 N 
ATOM      5  H5  UNL     1       1.815   1.338  -1.066  1.00  0.00     0.187 HD
HETATM    6  C8  UNL     1       3.814   0.888  -1.326  1.00  0.00     0.200 C 
HETATM    7  N6  UNL     1       3.845   1.349  -2.535  1.00  0.00    -0.373 N 
ATOM      8  H61 UNL     1       4.729   1.359  -3.044  1.00  0.00     0.158 HD
ATOM      9  H62 UNL     1       2.972   1.686  -2.941  1.00  0.00     0.158 HD
HETATM   10  N7  UNL     1       5.012   0.425  -0.769  1.00  0.00    -0.063 NA
HETATM   11  N8  UNL     1       3.486  -0.331   1.170  1.00  0.00    -0.126 N 
ATOM     12  H8  UNL     1       3.844  -1.214   0.807  1.00  0.00     0.197 HD
HETATM   13  C9  UNL     1       4.045   0.220   2.356  1.00  0.00     0.196 C 
HETATM   14  N9  UNL     1       4.500   0.675   3.314  1.00  0.00    -0.171 NA
ENDROOT
BRANCH   1  15
HETATM   15  C6  UNL     1       0.495  -0.808   1.476  1.00  0.00     0.180 C 
BRANCH  15  16
HETATM   16  C5  UNL     1       0.126  -1.672   0.305  1.00  0.00     0.293 C 
BRANCH  16  17
HETATM   17  C4  UNL     1      -0.806  -0.946  -0.578  1.00  0.00     0.257 C 
HETATM   18  N2  UNL     1      -2.024  -0.439  -0.043  1.00  0.00    -0.277 N 
HETATM   19  C3  UNL     1      -2.935   0.255  -0.873  1.00  0.00     0.324 C 
ATOM     20  H2  UNL     1      -2.241  -0.577   0.944  1.00  0.00     0.173 HD
HETATM   21  N1  UNL     1      -4.132   0.743  -0.334  1.00  0.00    -0.343 N 
HETATM   22  O1  UNL     1      -2.650   0.426  -2.104  1.00  0.00    -0.247 OA
HETATM   23  C1  UNL     1      -5.060   1.446  -1.174  1.00  0.00     0.154 C 
HETATM   24  C2  UNL     1      -4.440   0.545   1.052  1.00  0.00     0.154 C 
HETATM   25  O2  UNL     1      -0.521  -0.779  -1.790  1.00  0.00    -0.271 OA
ENDBRANCH  16  17
BRANCH  16  26
HETATM   26  N3  UNL     1       1.293  -2.117  -0.409  1.00  0.00    -0.065 N 
ATOM     27  H33 UNL     1       1.041  -2.675  -1.224  1.00  0.00     0.275 HD
ATOM     28  H32 UNL     1       1.757  -1.343  -0.885  1.00  0.00     0.275 HD
ATOM     29  H31 UNL     1       1.938  -2.619   0.202  1.00  0.00     0.275 HD
ENDBRANCH  16  26
ENDBRANCH  15  16
ENDBRANCH   1  15
TORSDOF 4
