REMARK  13 active torsions:
REMARK  status: ('A' for Active; 'I' for Inactive)
REMARK    1  A    between atoms: O1_2  and  C2_3 
REMARK    2  A    between atoms: C5_7  and  O3_8 
REMARK    3  A    between atoms: C6_10  and  N1_11 
REMARK       I    between atoms: N1_11  and  C7_13 
REMARK    4  A    between atoms: C7_13  and  C8_15 
REMARK    5  A    between atoms: C8_15  and  N2_16 
REMARK    6  A    between atoms: C8_15  and  C14_28 
REMARK       I    between atoms: N2_16  and  C9_18 
REMARK    7  A    between atoms: C9_18  and  C10_20 
REMARK    8  A    between atoms: C10_20  and  N3_21 
REMARK    9  A    between atoms: C10_20  and  C11_25 
REMARK   10  A    between atoms: C14_28  and  C15_29 
REMARK   11  A    between atoms: C14_28  and  C17_32 
REMARK   12  A    between atoms: C15_29  and  S1_30 
REMARK   13  A    between atoms: C18_35  and  O8_36 
ROOT
HETATM    1  C8  UNL     1      -1.199   0.742   0.121  1.00  0.00     0.191 C 
ENDROOT
BRANCH   1   2
HETATM    2  C7  UNL     1       0.064  -0.003  -0.024  1.00  0.00     0.241 C 
HETATM    3  N1  UNL     1       1.339   0.581   0.136  1.00  0.00    -0.349 N 
ATOM      4  H1  UNL     1       1.419   1.571   0.369  1.00  0.00     0.163 HD
HETATM    5  O4  UNL     1      -0.045  -1.253  -0.309  1.00  0.00    -0.271 OA
BRANCH   3   6
HETATM    6  C6  UNL     1       2.534  -0.219  -0.029  1.00  0.00     0.149 C 
HETATM    7  C5  UNL     1       3.396  -0.250   1.209  1.00  0.00     0.172 C 
HETATM    8  C3  UNL     1       4.433  -1.330   0.991  1.00  0.00     0.151 C 
HETATM    9  O2  UNL     1       4.988  -1.303  -0.258  1.00  0.00    -0.351 OA
HETATM   10  C4  UNL     1       5.455  -1.357   2.104  1.00  0.00     0.042 C 
HETATM   11  C2  UNL     1       4.859  -0.127  -0.947  1.00  0.00     0.290 C 
HETATM   12  C18 UNL     1       3.405   0.268  -1.166  1.00  0.00     0.198 C 
BRANCH   7  13
HETATM   13  O3  UNL     1       2.646  -0.518   2.352  1.00  0.00    -0.391 OA
ATOM     14  H3  UNL     1       1.995   0.160   2.489  1.00  0.00     0.210 HD
ENDBRANCH   7  13
BRANCH  11  15
HETATM   15  O1  UNL     1       5.422  -0.277  -2.210  1.00  0.00    -0.363 OA
HETATM   16  C1  UNL     1       6.417   0.625  -2.488  1.00  0.00     0.204 C 
ENDBRANCH  11  15
BRANCH  12  17
HETATM   17  O8  UNL     1       3.008  -0.269  -2.386  1.00  0.00    -0.388 OA
ATOM     18  H8  UNL     1       2.101  -0.023  -2.523  1.00  0.00     0.210 HD
ENDBRANCH  12  17
ENDBRANCH   3   6
ENDBRANCH   1   2
BRANCH   1  19
HETATM   19  N2  UNL     1      -2.336  -0.194   0.161  1.00  0.00    -0.345 N 
HETATM   20  C9  UNL     1      -3.243  -0.252   1.242  1.00  0.00     0.249 C 
HETATM   21  O5  UNL     1      -3.014   0.562   2.191  1.00  0.00    -0.271 OA
ATOM     22  H2  UNL     1      -2.474  -0.828  -0.626  1.00  0.00     0.163 HD
BRANCH  20  23
HETATM   23  C10 UNL     1      -4.354  -1.191   1.237  1.00  0.00     0.278 C 
BRANCH  23  24
HETATM   24  N3  UNL     1      -5.142  -0.908   2.455  1.00  0.00    -0.066 N 
ATOM     25  H33 UNL     1      -4.589  -0.939   3.312  1.00  0.00     0.275 HD
ATOM     26  H32 UNL     1      -5.435   0.066   2.530  1.00  0.00     0.275 HD
ATOM     27  H31 UNL     1      -5.921  -1.566   2.451  1.00  0.00     0.275 HD
ENDBRANCH  23  24
BRANCH  23  28
HETATM   28  C11 UNL     1      -4.043  -2.636   1.285  1.00  0.00     0.017 C 
HETATM   29  C12 UNL     1      -3.233  -3.206   0.182  1.00  0.00     0.012 C 
HETATM   30  C13 UNL     1      -5.382  -3.385   1.339  1.00  0.00     0.012 C 
ENDBRANCH  23  28
ENDBRANCH  20  23
ENDBRANCH   1  19
BRANCH   1  31
HETATM   31  C14 UNL     1      -1.485   1.680  -1.051  1.00  0.00     0.128 C 
BRANCH  31  32
HETATM   32  C15 UNL     1      -0.489   2.724  -1.318  1.00  0.00     0.091 C 
BRANCH  32  33
HETATM   33  S1  UNL     1      -0.949   3.699  -2.759  1.00  0.00    -0.172 SA
HETATM   34  C16 UNL     1      -2.389   4.723  -2.607  1.00  0.00     0.089 C 
ENDBRANCH  32  33
ENDBRANCH  31  32
BRANCH  31  35
HETATM   35  C17 UNL     1      -2.775   2.356  -0.622  1.00  0.00     0.180 C 
HETATM   36  O6  UNL     1      -2.653   3.384   0.076  1.00  0.00    -0.648 OA
HETATM   37  O7  UNL     1      -4.008   1.893  -0.955  1.00  0.00    -0.648 OA
ENDBRANCH  31  35
ENDBRANCH   1  31
TORSDOF 13
