REMARK  13 active torsions:
REMARK  status: ('A' for Active; 'I' for Inactive)
REMARK    1  A    between atoms: C2_2  and  C4_4 
REMARK       I    between atoms: C4_4  and  N1_6 
REMARK    2  A    between atoms: N1_6  and  S1_8 
REMARK    3  A    between atoms: S1_8  and  O4_11 
REMARK    4  A    between atoms: O4_11  and  C5_12 
REMARK    5  A    between atoms: C9_16  and  N2_17 
REMARK    6  A    between atoms: C10_21  and  O5_22 
REMARK    7  A    between atoms: O5_22  and  C11_23 
REMARK    8  A    between atoms: C11_23  and  N3_24 
REMARK    9  A    between atoms: C11_23  and  C12_28 
REMARK   10  A    between atoms: C12_28  and  C13_29 
REMARK   11  A    between atoms: C12_28  and  C16_34 
REMARK   12  A    between atoms: C13_29  and  C14_30 
REMARK   13  A    between atoms: C14_30  and  C15_31 
ROOT
HETATM    1  C5  UNL     1       0.434  -1.487   0.857  1.00  0.00     0.175 C 
HETATM    2  C6  UNL     1       1.132  -2.825   0.831  1.00  0.00     0.036 C 
HETATM    3  C7  UNL     1       1.616  -3.180  -0.541  1.00  0.00     0.005 C 
HETATM    4  C8  UNL     1       0.990  -2.395  -1.640  1.00  0.00     0.035 C 
HETATM    5  C9  UNL     1      -0.372  -1.836  -1.400  1.00  0.00     0.215 C 
HETATM    6  C10 UNL     1      -0.826  -1.664  -0.020  1.00  0.00     0.185 C 
ENDROOT
BRANCH   6   7
HETATM    7  O5  UNL     1      -1.525  -0.475   0.194  1.00  0.00    -0.348 OA
BRANCH   7   8
HETATM    8  C11 UNL     1      -2.698  -0.645   0.861  1.00  0.00     0.333 C 
BRANCH   8   9
HETATM    9  N3  UNL     1      -2.408  -0.294   2.332  1.00  0.00    -0.052 N 
ATOM     10  H33 UNL     1      -1.633  -0.824   2.731  1.00  0.00     0.277 HD
ATOM     11  H32 UNL     1      -2.001   0.633   2.456  1.00  0.00     0.277 HD
ATOM     12  H31 UNL     1      -3.288  -0.421   2.832  1.00  0.00     0.277 HD
ENDBRANCH   8   9
BRANCH   8  13
HETATM   13  C12 UNL     1      -3.778   0.312   0.456  1.00  0.00     0.143 C 
BRANCH  13  14
HETATM   14  C13 UNL     1      -3.407   1.730   0.687  1.00  0.00     0.028 C 
BRANCH  14  15
HETATM   15  C14 UNL     1      -4.416   2.756   0.350  1.00  0.00     0.100 C 
BRANCH  15  16
HETATM   16  C15 UNL     1      -4.791   3.010  -1.022  1.00  0.00     0.231 C 
HETATM   17  N4  UNL     1      -6.110   3.466  -1.378  1.00  0.00    -0.062 NA
HETATM   18  O6  UNL     1      -3.954   2.841  -1.960  1.00  0.00    -0.277 OA
ENDBRANCH  15  16
ENDBRANCH  14  15
ENDBRANCH  13  14
BRANCH  13  19
HETATM   19  C16 UNL     1      -4.415   0.001  -0.815  1.00  0.00     0.181 C 
HETATM   20  O7  UNL     1      -5.703   0.024  -0.920  1.00  0.00    -0.648 OA
HETATM   21  O8  UNL     1      -3.777  -0.335  -1.990  1.00  0.00    -0.648 OA
ENDBRANCH  13  19
ENDBRANCH   8  13
ENDBRANCH   7   8
ENDBRANCH   6   7
BRANCH   1  22
HETATM   22  O4  UNL     1       1.297  -0.571   0.280  1.00  0.00    -0.251 OA
BRANCH  22  23
HETATM   23  S1  UNL     1       1.701   0.707   1.273  1.00  0.00     0.364 S 
HETATM   24  O2  UNL     1       1.058   1.944   0.679  1.00  0.00    -0.175 OA
HETATM   25  O3  UNL     1       1.176   0.543   2.674  1.00  0.00    -0.175 OA
BRANCH  23  26
HETATM   26  N1  UNL     1       3.393   1.000   1.355  1.00  0.00    -0.231 N 
HETATM   27  C4  UNL     1       4.197   1.106   0.201  1.00  0.00     0.236 C 
HETATM   28  O1  UNL     1       3.635   0.977  -0.921  1.00  0.00    -0.272 OA
ATOM     29  H1  UNL     1       3.831   1.101   2.271  1.00  0.00     0.183 HD
BRANCH  27  30
HETATM   30  C2  UNL     1       5.635   1.362   0.288  1.00  0.00     0.071 C 
HETATM   31  C1  UNL     1       6.280   1.386  -1.088  1.00  0.00     0.019 C 
HETATM   32  C3  UNL     1       6.379   0.444   1.223  1.00  0.00     0.019 C 
ENDBRANCH  27  30
ENDBRANCH  23  26
ENDBRANCH  22  23
ENDBRANCH   1  22
BRANCH   5  33
HETATM   33  N2  UNL     1      -1.340  -2.700  -2.132  1.00  0.00    -0.072 N 
ATOM     34  H23 UNL     1      -1.118  -2.798  -3.123  1.00  0.00     0.274 HD
ATOM     35  H22 UNL     1      -1.263  -3.686  -1.882  1.00  0.00     0.274 HD
ATOM     36  H21 UNL     1      -2.271  -2.318  -1.968  1.00  0.00     0.274 HD
ENDBRANCH   5  33
TORSDOF 13
