REMARK  5 active torsions:
REMARK  status: ('A' for Active; 'I' for Inactive)
REMARK    1  A    between atoms: N2_6  and  C4_8 
REMARK    2  A    between atoms: C10_20  and  N7_21 
REMARK    3  A    between atoms: N7_21  and  C11_23 
REMARK    4  A    between atoms: C11_23  and  C12_24 
REMARK    5  A    between atoms: C12_24  and  O1_26 
ROOT
HETATM    1  C1  UNL     1       0.393  -3.615  -1.475  1.00  0.00     0.089 C 
HETATM    2  C2  UNL     1       0.222  -2.215  -1.005  1.00  0.00     0.095 A 
HETATM    3  N1  UNL     1      -1.007  -1.678  -0.890  1.00  0.00    -0.179 N 
ATOM      4  H1  UNL     1      -1.828  -2.235  -1.127  1.00  0.00     0.185 HD
HETATM    5  C3  UNL     1      -1.158  -0.411  -0.464  1.00  0.00     0.703 A 
HETATM    6  N2  UNL     1      -2.331   0.147  -0.338  1.00  0.00    -0.220 N 
ATOM      7  H2  UNL     1      -2.386   1.111  -0.011  1.00  0.00     0.178 HD
HETATM    8  N3  UNL     1      -0.108   0.374  -0.136  1.00  0.00    -0.064 N 
HETATM    9  N4  UNL     1      -0.284   1.622   0.281  1.00  0.00    -0.250 N 
ATOM     10  H4  UNL     1      -1.234   1.986   0.351  1.00  0.00     0.191 HD
HETATM   11  C9  UNL     1       0.743   2.427   0.615  1.00  0.00     0.209 A 
HETATM   12  N5  UNL     1       0.554   3.760   1.061  1.00  0.00    -0.062 NA
HETATM   13  N6  UNL     1       1.985   1.910   0.507  1.00  0.00    -0.312 N 
ATOM     14  H6  UNL     1       2.786   2.493   0.751  1.00  0.00     0.170 HD
HETATM   15  C10 UNL     1       2.201   0.643   0.085  1.00  0.00     0.151 A 
HETATM   16  C14 UNL     1       1.118  -0.166  -0.253  1.00  0.00     0.191 A 
HETATM   17  N8  UNL     1       1.281  -1.437  -0.680  1.00  0.00    -0.327 N 
ATOM     18  H8  UNL     1       2.223  -1.819  -0.759  1.00  0.00     0.169 HD
ENDROOT
BRANCH   6  19
HETATM   19  C4  UNL     1      -3.561  -0.561  -0.649  1.00  0.00     0.099 C 
HETATM   20  C5  UNL     1      -4.176  -0.035  -1.928  1.00  0.00     0.026 C 
HETATM   21  C6  UNL     1      -5.656  -0.288  -1.687  1.00  0.00     0.002 C 
HETATM   22  C7  UNL     1      -5.843   0.158  -0.268  1.00  0.00     0.002 C 
HETATM   23  C8  UNL     1      -4.611  -0.344   0.419  1.00  0.00     0.026 C 
ENDBRANCH   6  19
BRANCH  15  24
HETATM   24  N7  UNL     1       3.359   0.127  -0.027  1.00  0.00    -0.371 N 
ATOM     25  H7  UNL     1       3.405  -0.838  -0.355  1.00  0.00     0.161 HD
BRANCH  24  26
HETATM   26  C11 UNL     1       4.607   0.775   0.265  1.00  0.00     0.152 C 
BRANCH  26  27
HETATM   27  C12 UNL     1       4.986   0.535   1.713  1.00  0.00     0.132 C 
HETATM   28  C13 UNL     1       5.133  -0.947   1.990  1.00  0.00     0.041 C 
BRANCH  27  29
HETATM   29  O1  UNL     1       6.182   1.142   2.036  1.00  0.00    -0.394 OA
ATOM     30  H1  UNL     1       6.420   0.992   2.943  1.00  0.00     0.210 HD
ENDBRANCH  27  29
ENDBRANCH  26  27
ENDBRANCH  24  26
ENDBRANCH  15  24
TORSDOF 5
