REMARK  3 active torsions:
REMARK  status: ('A' for Active; 'I' for Inactive)
REMARK       I    between atoms: C2_4  and  N2_5 
REMARK       I    between atoms: C2_4  and  N3_13 
REMARK    1  A    between atoms: N2_5  and  C3_7 
REMARK    2  A    between atoms: N3_13  and  S1_15 
REMARK    3  A    between atoms: S1_15  and  N4_18 
REMARK       I    between atoms: N4_18  and  C9_19 
ROOT
HETATM    1  C1  UNL     1       0.743  -3.384   0.152  1.00  0.00     0.165 C 
HETATM    2  N1  UNL     1       1.083  -2.021   0.129  1.00  0.00    -0.230 N 
ATOM      3  H1  UNL     1       2.007  -1.830   0.517  1.00  0.00     0.177 HD
HETATM    4  C2  UNL     1       0.494  -0.995  -0.265  1.00  0.00     0.685 C 
HETATM    5  N2  UNL     1      -0.808  -1.110  -0.798  1.00  0.00    -0.221 N 
ATOM      6  H2  UNL     1      -1.024  -1.940  -1.351  1.00  0.00     0.178 HD
HETATM    7  N3  UNL     1       1.185   0.235  -0.286  1.00  0.00    -0.089 N 
ATOM      8  H3  UNL     1       0.966   0.910  -1.019  1.00  0.00     0.200 HD
ENDROOT
BRANCH   5   9
HETATM    9  C3  UNL     1      -1.842  -0.144  -0.616  1.00  0.00     0.099 C 
HETATM   10  C4  UNL     1      -1.804   0.413   0.817  1.00  0.00     0.026 C 
HETATM   11  C5  UNL     1      -2.838   1.493   0.843  1.00  0.00     0.002 C 
HETATM   12  C6  UNL     1      -4.230   0.945   0.687  1.00  0.00     0.000 C 
HETATM   13  C7  UNL     1      -4.380  -0.280  -0.136  1.00  0.00     0.002 C 
HETATM   14  C8  UNL     1      -3.182  -0.822  -0.868  1.00  0.00     0.026 C 
ENDBRANCH   5   9
BRANCH   7  15
HETATM   15  S1  UNL     1       2.374   0.634   0.871  1.00  0.00     0.407 S 
HETATM   16  O1  UNL     1       1.649   1.556   1.901  1.00  0.00    -0.169 OA
HETATM   17  O2  UNL     1       2.596  -0.608   1.744  1.00  0.00    -0.169 OA
BRANCH  15  18
HETATM   18  N4  UNL     1       3.762   1.258   0.311  1.00  0.00    -0.267 NA
HETATM   19  C9  UNL     1       4.939   1.789  -0.168  1.00  0.00     0.301 C 
HETATM   20  C10 UNL     1       6.107   1.410   0.772  1.00  0.00     0.136 C 
HETATM   21  O3  UNL     1       5.133   2.447  -1.206  1.00  0.00    -0.257 OA
ENDBRANCH  15  18
ENDBRANCH   7  15
TORSDOF 3
