REMARK  6 active torsions:
REMARK  status: ('A' for Active; 'I' for Inactive)
REMARK       I    between atoms: N2_3  and  C2_5 
REMARK    1  A    between atoms: N4_7  and  N5_9 
REMARK    2  A    between atoms: N5_9  and  C3_10 
REMARK    3  A    between atoms: C3_10  and  O1_11 
REMARK    4  A    between atoms: C3_10  and  C4_13 
REMARK    5  A    between atoms: C7_16  and  C8_17 
REMARK    6  A    between atoms: C9_18  and  C11_21 
ROOT
HETATM    1  N1  UNL     1      -7.513   2.133  -1.149  1.00  0.00    -0.172 NA
HETATM    2  C1  UNL     1      -6.643   1.411  -1.395  1.00  0.00     0.184 C 
HETATM    3  N2  UNL     1      -5.607   0.519  -1.687  1.00  0.00    -0.266 N 
ATOM      4  H2  UNL     1      -5.686  -0.056  -2.526  1.00  0.00     0.180 HD
HETATM    5  C2  UNL     1      -4.450   0.371  -0.877  1.00  0.00     0.227 C 
HETATM    6  N3  UNL     1      -3.894   1.457  -0.146  1.00  0.00    -0.060 NA
HETATM    7  N4  UNL     1      -3.874  -0.763  -0.788  1.00  0.00    -0.203 N 
ATOM      8  H4  UNL     1      -4.356  -1.464  -1.351  1.00  0.00     0.205 HD
ENDROOT
BRANCH   7   9
HETATM    9  N5  UNL     1      -2.872  -1.264  -0.197  1.00  0.00    -0.297 NA
BRANCH   9  10
HETATM   10  C3  UNL     1      -2.045  -1.852   0.382  1.00  0.00     0.248 C 
BRANCH  10  11
HETATM   11  O1  UNL     1      -2.304  -3.126   0.953  1.00  0.00    -0.333 OA
ATOM     12  H1  UNL     1      -1.632  -3.604   1.424  1.00  0.00     0.220 HD
ENDBRANCH  10  11
BRANCH  10  13
HETATM   13  C4  UNL     1      -0.680  -1.305   0.554  1.00  0.00     0.031 A 
HETATM   14  C5  UNL     1      -0.313  -0.090   0.051  1.00  0.00     0.018 A 
HETATM   15  C6  UNL     1       0.955   0.414   0.220  1.00  0.00     0.012 A 
HETATM   16  C7  UNL     1       1.919  -0.286   0.906  1.00  0.00    -0.035 A 
HETATM   17  C12 UNL     1       1.548  -1.528   1.422  1.00  0.00     0.012 A 
HETATM   18  C13 UNL     1       0.280  -2.008   1.242  1.00  0.00     0.018 A 
BRANCH  16  19
HETATM   19  C8  UNL     1       3.286   0.162   1.109  1.00  0.00     0.039 C 
HETATM   20  C9  UNL     1       4.007   0.618   0.137  1.00  0.00     0.110 C 
HETATM   21  C10 UNL     1       3.534   0.715  -1.192  1.00  0.00     0.104 C 
HETATM   22  N6  UNL     1       3.170   0.788  -2.305  1.00  0.00    -0.191 NA
BRANCH  20  23
HETATM   23  C11 UNL     1       5.384   1.049   0.478  1.00  0.00     0.275 C 
HETATM   24  N7  UNL     1       6.164   1.547  -0.596  1.00  0.00    -0.057 NA
HETATM   25  O2  UNL     1       5.815   0.970   1.655  1.00  0.00    -0.270 OA
ENDBRANCH  20  23
ENDBRANCH  16  19
ENDBRANCH  10  13
ENDBRANCH   9  10
ENDBRANCH   7   9
TORSDOF 6
