REMARK  8 active torsions:
REMARK  status: ('A' for Active; 'I' for Inactive)
REMARK    1  A    between atoms: C13_13  and  O1_14 
REMARK    2  A    between atoms: C16_18  and  C17_19 
REMARK    3  A    between atoms: C17_19  and  C18_20 
REMARK    4  A    between atoms: C18_20  and  C19_21 
REMARK    5  A    between atoms: C19_21  and  C20_22 
REMARK    6  A    between atoms: C20_22  and  C21_23 
REMARK    7  A    between atoms: C21_23  and  C22_24 
REMARK    8  A    between atoms: C22_24  and  N1_25 
ROOT
HETATM    1  C1  UNL     1      -2.873   2.748   1.088  1.00  0.00     0.015 C 
HETATM    2  C2  UNL     1      -3.386   1.607   0.221  1.00  0.00    -0.044 C 
HETATM    3  C3  UNL     1      -4.882   1.557   0.450  1.00  0.00     0.015 C 
HETATM    4  C4  UNL     1      -3.162   1.920  -1.236  1.00  0.00     0.009 C 
HETATM    5  C5  UNL     1      -1.733   2.211  -1.557  1.00  0.00     0.001 C 
HETATM    6  C6  UNL     1      -0.813   1.315  -0.702  1.00  0.00     0.005 C 
HETATM    7  C7  UNL     1      -1.529   0.063  -0.324  1.00  0.00    -0.004 C 
HETATM    8  C8  UNL     1      -2.713   0.286   0.606  1.00  0.00    -0.002 C 
HETATM    9  C9  UNL     1      -3.681  -0.842   0.356  1.00  0.00     0.006 C 
HETATM   10  C10 UNL     1      -3.088  -1.965  -0.469  1.00  0.00     0.012 C 
HETATM   11  C11 UNL     1      -1.757  -2.292   0.119  1.00  0.00    -0.014 C 
HETATM   12  C12 UNL     1      -2.034  -2.646   1.555  1.00  0.00     0.018 C 
HETATM   13  C13 UNL     1      -1.113  -3.539  -0.464  1.00  0.00     0.126 C 
HETATM   14  C14 UNL     1       0.124  -3.816   0.355  1.00  0.00     0.033 C 
HETATM   15  C15 UNL     1       0.964  -2.658   0.689  1.00  0.00     0.007 C 
HETATM   16  C16 UNL     1       0.251  -1.322   0.957  1.00  0.00    -0.009 C 
HETATM   17  C23 UNL     1      -0.742  -1.151  -0.063  1.00  0.00     0.005 C 
ENDROOT
BRANCH  16  18
HETATM   18  C17 UNL     1       1.344  -0.391   1.252  1.00  0.00     0.005 C 
BRANCH  18  19
HETATM   19  C18 UNL     1       2.402  -0.188   0.209  1.00  0.00     0.000 C 
BRANCH  19  20
HETATM   20  C19 UNL     1       3.418   0.828   0.706  1.00  0.00     0.000 C 
BRANCH  20  21
HETATM   21  C20 UNL     1       4.470   1.016  -0.355  1.00  0.00     0.002 C 
BRANCH  21  22
HETATM   22  C21 UNL     1       5.528   1.993   0.017  1.00  0.00     0.027 C 
BRANCH  22  23
HETATM   23  C22 UNL     1       6.508   2.063  -1.163  1.00  0.00     0.229 C 
BRANCH  23  24
HETATM   24  N1  UNL     1       7.576   3.001  -0.878  1.00  0.00    -0.079 N 
ATOM     25  H13 UNL     1       7.216   3.922  -0.628  1.00  0.00     0.274 HD
ATOM     26  H12 UNL     1       8.051   2.781  -0.002  1.00  0.00     0.274 HD
ATOM     27  H11 UNL     1       8.227   3.048  -1.662  1.00  0.00     0.274 HD
ENDBRANCH  23  24
ENDBRANCH  22  23
ENDBRANCH  21  22
ENDBRANCH  20  21
ENDBRANCH  19  20
ENDBRANCH  18  19
ENDBRANCH  16  18
BRANCH  13  28
HETATM   28  O1  UNL     1      -0.816  -3.329  -1.799  1.00  0.00    -0.395 OA
ATOM     29  H1  UNL     1      -0.413  -4.109  -2.163  1.00  0.00     0.210 HD
ENDBRANCH  13  28
TORSDOF 8
