REMARK  2 active torsions:
REMARK  status: ('A' for Active; 'I' for Inactive)
REMARK    1  A    between atoms: N1_1  and  C1_5 
REMARK    2  A    between atoms: C3_7  and  C4_8 
ROOT
HETATM    1  C1  UNL     1      -2.942  -0.291  -0.327  1.00  0.00     0.184 C 
HETATM    2  C2  UNL     1      -1.748   0.553  -0.795  1.00  0.00     0.037 C 
HETATM    3  C3  UNL     1      -1.107   0.154   0.534  1.00  0.00    -0.007 C 
HETATM    4  C10 UNL     1      -1.892  -1.135   0.415  1.00  0.00     0.037 C 
ENDROOT
BRANCH   3   5
HETATM    5  C4  UNL     1       0.382   0.025   0.490  1.00  0.00    -0.010 C 
HETATM    6  C5  UNL     1       1.034   1.335   0.086  1.00  0.00     0.005 C 
HETATM    7  C6  UNL     1       2.494   1.202   0.471  1.00  0.00     0.000 C 
HETATM    8  C7  UNL     1       3.080   0.121  -0.406  1.00  0.00     0.000 C 
HETATM    9  C8  UNL     1       2.371  -1.178  -0.313  1.00  0.00     0.000 C 
HETATM   10  C9  UNL     1       0.888  -1.116  -0.316  1.00  0.00     0.005 C 
ENDBRANCH   3   5
BRANCH   1  11
HETATM   11  N1  UNL     1      -3.702   0.451   0.626  1.00  0.00    -0.075 N 
ATOM     12  H13 UNL     1      -3.131   0.777   1.405  1.00  0.00     0.274 HD
ATOM     13  H12 UNL     1      -3.990   1.361   0.266  1.00  0.00     0.274 HD
ATOM     14  H11 UNL     1      -4.495  -0.110   0.937  1.00  0.00     0.274 HD
ENDBRANCH   1  11
TORSDOF 2
