REMARK  15 active torsions:
REMARK  status: ('A' for Active; 'I' for Inactive)
REMARK    1  A    between atoms: C2_2  and  O1_3 
REMARK    2  A    between atoms: O1_3  and  C3_4 
REMARK    3  A    between atoms: C3_4  and  C4_5 
REMARK    4  A    between atoms: C4_5  and  O2_6 
REMARK    5  A    between atoms: O2_6  and  C5_7 
REMARK    6  A    between atoms: C5_7  and  O3_8 
REMARK    7  A    between atoms: C5_7  and  N1_10 
REMARK    8  A    between atoms: N1_10  and  C6_12 
REMARK    9  A    between atoms: C6_12  and  C7_13 
REMARK   10  A    between atoms: C6_12  and  C9_15 
REMARK   11  A    between atoms: C9_15  and  C10_16 
REMARK   12  A    between atoms: C10_16  and  C11_18 
REMARK   13  A    between atoms: C13_22  and  C14_23 
REMARK       I    between atoms: C14_23  and  N3_25 
REMARK   14  A    between atoms: N3_25  and  C15_27 
REMARK   15  A    between atoms: C15_27  and  C17_29 
ROOT
HETATM    1  C10 UNL     1       0.994   0.480   0.266  1.00  0.00     0.186 C 
HETATM    2  O4  UNL     1       1.465   1.487   0.828  1.00  0.00    -0.290 OA
ENDROOT
BRANCH   1   3
HETATM    3  C9  UNL     1      -0.380   0.118   0.087  1.00  0.00     0.111 C 
BRANCH   3   4
HETATM    4  C6  UNL     1      -1.439   0.999   0.749  1.00  0.00     0.088 C 
BRANCH   4   5
HETATM    5  N1  UNL     1      -2.681   0.453   0.377  1.00  0.00    -0.371 N 
ATOM      6  H1  UNL     1      -2.643  -0.438  -0.118  1.00  0.00     0.158 HD
BRANCH   5   7
HETATM    7  C5  UNL     1      -3.928   0.957   0.591  1.00  0.00     0.363 C 
BRANCH   7   8
HETATM    8  O2  UNL     1      -4.923   0.501  -0.292  1.00  0.00    -0.342 OA
BRANCH   8   9
HETATM    9  C4  UNL     1      -5.638   1.456  -0.910  1.00  0.00     0.199 C 
BRANCH   9  10
HETATM   10  C3  UNL     1      -6.704   1.016  -1.864  1.00  0.00     0.193 C 
BRANCH  10  11
HETATM   11  O1  UNL     1      -7.682   0.255  -1.321  1.00  0.00    -0.389 OA
BRANCH  11  12
HETATM   12  C2  UNL     1      -7.369  -0.934  -0.747  1.00  0.00     0.163 C 
HETATM   13  C1  UNL     1      -6.680  -1.915  -1.693  1.00  0.00     0.033 C 
ENDBRANCH  11  12
ENDBRANCH  10  11
ENDBRANCH   9  10
ENDBRANCH   8   9
ENDBRANCH   7   8
BRANCH   7  14
HETATM   14  O3  UNL     1      -4.511   0.583   1.848  1.00  0.00    -0.355 OA
ATOM     15  H3  UNL     1      -3.839   0.891   2.444  1.00  0.00     0.214 HD
ENDBRANCH   7  14
ENDBRANCH   5   7
ENDBRANCH   4   5
BRANCH   4  16
HETATM   16  C7  UNL     1      -1.223   1.128   2.206  1.00  0.00     0.021 C 
HETATM   17  C8  UNL     1      -2.098   2.015   3.001  1.00  0.00     0.007 C 
ENDBRANCH   4  16
ENDBRANCH   3   4
ENDBRANCH   1   3
BRANCH   1  18
HETATM   18  C11 UNL     1       2.017  -0.446  -0.278  1.00  0.00     0.139 A 
HETATM   19  C12 UNL     1       1.773  -1.639  -0.960  1.00  0.00     0.131 A 
HETATM   20  N2  UNL     1       2.960  -2.170  -1.281  1.00  0.00    -0.339 N 
HETATM   21  C13 UNL     1       3.902  -1.336  -0.814  1.00  0.00     0.217 A 
ATOM     22  H2  UNL     1       3.118  -3.043  -1.785  1.00  0.00     0.167 HD
HETATM   23  O7  UNL     1       3.312  -0.329  -0.228  1.00  0.00    -0.284 OA
BRANCH  21  24
HETATM   24  C14 UNL     1       5.338  -1.534  -0.948  1.00  0.00     0.293 C 
HETATM   25  O5  UNL     1       5.805  -2.520  -1.591  1.00  0.00    -0.264 OA
HETATM   26  N3  UNL     1       6.286  -0.643  -0.372  1.00  0.00    -0.342 N 
ATOM     27  H3  UNL     1       5.946   0.160   0.156  1.00  0.00     0.163 HD
BRANCH  26  28
HETATM   28  C15 UNL     1       7.699  -0.830  -0.505  1.00  0.00     0.170 C 
HETATM   29  C16 UNL     1       8.375  -1.239   0.801  1.00  0.00     0.042 C 
BRANCH  28  30
HETATM   30  C17 UNL     1       8.354   0.379  -1.046  1.00  0.00     0.253 C 
HETATM   31  N4  UNL     1       9.771   0.384  -1.257  1.00  0.00    -0.060 NA
HETATM   32  O6  UNL     1       7.708   1.420  -1.335  1.00  0.00    -0.275 OA
ENDBRANCH  28  30
ENDBRANCH  26  28
ENDBRANCH  21  24
ENDBRANCH   1  18
TORSDOF 15
