REMARK  11 active torsions:
REMARK  status: ('A' for Active; 'I' for Inactive)
REMARK    1  A    between atoms: O1_2  and  C2_3 
REMARK    2  A    between atoms: C4_5  and  O2_6 
REMARK    3  A    between atoms: C5_8  and  O3_9 
REMARK    4  A    between atoms: O3_9  and  C6_10 
REMARK    5  A    between atoms: C7_11  and  O4_12 
REMARK    6  A    between atoms: C8_14  and  O5_15 
REMARK    7  A    between atoms: C9_18  and  C10_19 
REMARK    8  A    between atoms: C14_23  and  O7_24 
REMARK    9  A    between atoms: C20_32  and  O9_33 
REMARK   10  A    between atoms: C21_35  and  O10_36 
REMARK   11  A    between atoms: C23_39  and  O11_41 
ROOT
HETATM    1  C6  UNL     1       1.106   0.607  -0.239  1.00  0.00     0.168 C 
HETATM    2  C7  UNL     1       0.829   1.925  -1.003  1.00  0.00     0.202 C 
HETATM    3  C8  UNL     1      -0.065   1.765  -2.174  1.00  0.00     0.289 C 
HETATM    4  O6  UNL     1      -1.003   0.772  -2.227  1.00  0.00    -0.347 OA
HETATM    5  C9  UNL     1      -0.900  -0.216  -1.242  1.00  0.00     0.082 C 
HETATM    6  C22 UNL     1      -0.860  -1.666  -1.621  1.00  0.00     0.077 C 
HETATM    7  C23 UNL     1       0.587  -1.829  -1.111  1.00  0.00     0.066 C 
HETATM    8  C24 UNL     1       1.328  -2.611  -2.229  1.00  0.00     0.046 C 
HETATM    9  C25 UNL     1       0.579  -0.388  -1.172  1.00  0.00     0.087 C 
ENDROOT
BRANCH   5  10
HETATM   10  C10 UNL     1      -1.746   0.199  -0.143  1.00  0.00     0.061 C 
HETATM   11  C11 UNL     1      -1.884  -0.606   1.097  1.00  0.00     0.016 C 
HETATM   12  C12 UNL     1      -2.411   0.307   2.223  1.00  0.00    -0.002 C 
HETATM   13  C13 UNL     1      -3.365  -0.322   3.164  1.00  0.00     0.037 C 
HETATM   14  C15 UNL     1      -3.461   1.233   1.755  1.00  0.00     0.056 C 
HETATM   15  C14 UNL     1      -4.261   0.881   3.018  1.00  0.00     0.126 C 
HETATM   16  C16 UNL     1      -4.139   0.701   0.489  1.00  0.00     0.097 C 
HETATM   17  C17 UNL     1      -5.218   1.732   0.156  1.00  0.00     0.050 C 
HETATM   18  O8  UNL     1      -4.784  -0.443   0.854  1.00  0.00    -0.377 OA
HETATM   19  C21 UNL     1      -3.147   0.532  -0.642  1.00  0.00     0.121 C 
HETATM   20  C18 UNL     1      -5.447  -1.127  -0.114  1.00  0.00     0.171 C 
HETATM   21  C19 UNL     1      -4.472  -1.568  -1.158  1.00  0.00     0.061 C 
HETATM   22  C20 UNL     1      -3.729  -0.349  -1.673  1.00  0.00     0.158 C 
BRANCH  15  23
HETATM   23  O7  UNL     1      -5.595   0.638   2.812  1.00  0.00    -0.395 OA
ATOM     24  H7  UNL     1      -6.160   1.396   2.720  1.00  0.00     0.210 HD
ENDBRANCH  15  23
BRANCH  22  25
HETATM   25  O9  UNL     1      -4.783   0.404  -2.279  1.00  0.00    -0.392 OA
ATOM     26  H9  UNL     1      -4.318   1.167  -2.601  1.00  0.00     0.210 HD
ENDBRANCH  22  25
BRANCH  19  27
HETATM   27  O10 UNL     1      -3.128   1.831  -1.222  1.00  0.00    -0.384 OA
ATOM     28  H10 UNL     1      -4.001   2.039  -1.533  1.00  0.00     0.210 HD
ENDBRANCH  19  27
ENDBRANCH   5  10
BRANCH   3  29
HETATM   29  O5  UNL     1       0.610   1.827  -3.425  1.00  0.00    -0.368 OA
ATOM     30  H5  UNL     1       0.037   1.724  -4.176  1.00  0.00     0.212 HD
ENDBRANCH   3  29
BRANCH   7  31
HETATM   31  O11 UNL     1       0.785  -2.567  -0.000  1.00  0.00    -0.390 OA
ATOM     32  H11 UNL     1       1.676  -2.667   0.314  1.00  0.00     0.210 HD
ENDBRANCH   7  31
BRANCH   1  33
HETATM   33  O3  UNL     1       2.495   0.434  -0.185  1.00  0.00    -0.350 OA
BRANCH  33  34
HETATM   34  C5  UNL     1       2.976   0.358   1.109  1.00  0.00     0.289 C 
HETATM   35  C4  UNL     1       4.032   1.427   1.283  1.00  0.00     0.175 C 
HETATM   36  C3  UNL     1       5.306   0.867   1.873  1.00  0.00     0.071 C 
HETATM   37  C2  UNL     1       5.855  -0.149   0.868  1.00  0.00     0.152 C 
HETATM   38  C26 UNL     1       4.658  -0.915   0.358  1.00  0.00     0.149 C 
HETATM   39  O12 UNL     1       3.600  -0.880   1.257  1.00  0.00    -0.351 OA
HETATM   40  C27 UNL     1       4.996  -2.394   0.157  1.00  0.00     0.042 C 
BRANCH  35  41
HETATM   41  O2  UNL     1       3.598   2.441   2.142  1.00  0.00    -0.391 OA
ATOM     42  H2  UNL     1       2.797   2.793   1.771  1.00  0.00     0.210 HD
ENDBRANCH  35  41
BRANCH  37  43
HETATM   43  O1  UNL     1       6.755  -1.008   1.437  1.00  0.00    -0.388 OA
HETATM   44  C1  UNL     1       7.981  -0.924   0.808  1.00  0.00     0.202 C 
ENDBRANCH  37  43
ENDBRANCH  33  34
ENDBRANCH   1  33
BRANCH   2  45
HETATM   45  O4  UNL     1       2.039   2.474  -1.451  1.00  0.00    -0.388 OA
ATOM     46  H4  UNL     1       1.869   3.283  -1.920  1.00  0.00     0.210 HD
ENDBRANCH   2  45
TORSDOF 11
