REMARK  5 active torsions:
REMARK  status: ('A' for Active; 'I' for Inactive)
REMARK    1  A    between atoms: C5_5  and  C6_6 
REMARK    2  A    between atoms: C6_6  and  C7_7 
REMARK    3  A    between atoms: C7_7  and  C8_8 
REMARK    4  A    between atoms: C8_8  and  C9_9 
REMARK    5  A    between atoms: C9_9  and  C10_10 
ROOT
HETATM    1  C1  UNL     1      -4.225   1.105  -0.115  1.00  0.00     0.012 C 
HETATM    2  C2  UNL     1      -4.390  -0.135   0.318  1.00  0.00    -0.025 C 
HETATM    3  C3  UNL     1      -3.276  -1.096   0.569  1.00  0.00     0.029 C 
HETATM    4  C4  UNL     1      -2.260  -1.087  -0.512  1.00  0.00     0.029 C 
HETATM    5  C5  UNL     1      -1.302   0.045  -0.499  1.00  0.00     0.081 C 
HETATM    6  N1  UNL     1      -1.850   1.346  -0.595  1.00  0.00    -0.394 N 
ATOM      7  H1  UNL     1      -1.148   2.046  -0.833  1.00  0.00     0.159 HD
HETATM    8  C13 UNL     1      -3.023   1.857  -0.454  1.00  0.00     0.083 C 
ENDROOT
BRANCH   5   9
HETATM    9  C6  UNL     1      -0.375  -0.040   0.699  1.00  0.00     0.025 C 
BRANCH   9  10
HETATM   10  C7  UNL     1       0.605   1.114   0.717  1.00  0.00     0.002 C 
BRANCH  10  11
HETATM   11  C8  UNL     1       1.467   1.130  -0.522  1.00  0.00     0.000 C 
BRANCH  11  12
HETATM   12  C9  UNL     1       2.286  -0.106  -0.714  1.00  0.00     0.004 C 
BRANCH  12  13
HETATM   13  C10 UNL     1       3.253  -0.378   0.398  1.00  0.00    -0.014 A 
HETATM   14  C11 UNL     1       4.136  -1.568   0.352  1.00  0.00     0.005 A 
HETATM   15  C12 UNL     1       4.715  -0.243  -0.006  1.00  0.00     0.005 A 
ENDBRANCH  12  13
ENDBRANCH  11  12
ENDBRANCH  10  11
ENDBRANCH   9  10
ENDBRANCH   5   9
TORSDOF 5
