REMARK  9 active torsions:
REMARK  status: ('A' for Active; 'I' for Inactive)
REMARK    1  A    between atoms: O1_2  and  C2_3 
REMARK    2  A    between atoms: C2_3  and  C3_5 
REMARK    3  A    between atoms: C3_5  and  C4_6 
REMARK    4  A    between atoms: C4_6  and  N1_7 
REMARK    5  A    between atoms: C4_6  and  C13_31 
REMARK       I    between atoms: N1_7  and  C5_9 
REMARK    6  A    between atoms: C5_9  and  C6_11 
REMARK    7  A    between atoms: C7_15  and  C8_16 
REMARK    8  A    between atoms: C11_21  and  N4_22 
REMARK    9  A    between atoms: C13_31  and  O7_33 
ROOT
HETATM    1  C6  UNL     1       0.659  -0.002   0.354  1.00  0.00     0.197 A 
HETATM    2  N2  UNL     1       0.954   0.009  -0.959  1.00  0.00    -0.238 N 
ATOM      3  H2  UNL     1       0.277   0.036  -1.722  1.00  0.00     0.197 HD
HETATM    4  O4  UNL     1       2.248  -0.020  -1.091  1.00  0.00    -0.217 OA
HETATM    5  C7  UNL     1       2.848  -0.051   0.071  1.00  0.00     0.190 A 
HETATM    6  N6  UNL     1       1.849  -0.040   0.974  1.00  0.00    -0.314 N 
ATOM      7  H6  UNL     1       1.978  -0.058   1.986  1.00  0.00     0.169 HD
ENDROOT
BRANCH   1   8
HETATM    8  C5  UNL     1      -0.658   0.022   0.981  1.00  0.00     0.288 C 
HETATM    9  N1  UNL     1      -1.841   0.079   0.232  1.00  0.00    -0.340 N 
ATOM     10  H1  UNL     1      -1.798   0.104  -0.787  1.00  0.00     0.163 HD
HETATM   11  O3  UNL     1      -0.715  -0.009   2.245  1.00  0.00    -0.264 OA
BRANCH   9  12
HETATM   12  C4  UNL     1      -3.121   0.102   0.901  1.00  0.00     0.194 C 
BRANCH  12  13
HETATM   13  C3  UNL     1      -3.853   1.391   0.587  1.00  0.00     0.146 C 
BRANCH  13  14
HETATM   14  C2  UNL     1      -4.125   1.598  -0.837  1.00  0.00     0.260 C 
HETATM   15  O2  UNL     1      -3.219   1.984  -1.610  1.00  0.00    -0.265 OA
BRANCH  14  16
HETATM   16  O1  UNL     1      -5.380   1.377  -1.373  1.00  0.00    -0.326 OA
HETATM   17  C1  UNL     1      -5.600   1.592  -2.760  1.00  0.00     0.213 C 
ENDBRANCH  14  16
ENDBRANCH  13  14
ENDBRANCH  12  13
BRANCH  12  18
HETATM   18  C13 UNL     1      -3.941  -1.092   0.529  1.00  0.00     0.281 C 
HETATM   19  O6  UNL     1      -3.544  -1.980  -0.263  1.00  0.00    -0.263 OA
BRANCH  18  20
HETATM   20  O7  UNL     1      -5.218  -1.240   1.083  1.00  0.00    -0.325 OA
HETATM   21  C14 UNL     1      -5.990  -2.369   0.730  1.00  0.00     0.213 C 
ENDBRANCH  18  20
ENDBRANCH  12  18
ENDBRANCH   9  12
ENDBRANCH   1   8
BRANCH   5  22
HETATM   22  C8  UNL     1       4.271  -0.090   0.361  1.00  0.00     0.108 A 
HETATM   23  C9  UNL     1       5.187  -0.113  -0.668  1.00  0.00     0.043 A 
HETATM   24  C10 UNL     1       4.737  -0.107  -2.084  1.00  0.00     0.070 C 
HETATM   25  N3  UNL     1       6.522  -0.143  -0.377  1.00  0.00    -0.195 N 
HETATM   26  C11 UNL     1       6.937  -0.151   0.914  1.00  0.00     0.679 A 
ATOM     27  H3  UNL     1       7.207  -0.159  -1.132  1.00  0.00     0.184 HD
HETATM   28  N5  UNL     1       6.062  -0.130   1.940  1.00  0.00    -0.155 N 
HETATM   29  C12 UNL     1       4.764  -0.100   1.643  1.00  0.00     0.276 A 
ATOM     30  H5  UNL     1       6.383  -0.137   2.908  1.00  0.00     0.187 HD
HETATM   31  O5  UNL     1       3.929  -0.081   2.610  1.00  0.00    -0.267 OA
BRANCH  26  32
HETATM   32  N4  UNL     1       8.178  -0.178   1.163  1.00  0.00    -0.234 N 
ATOM     33  H42 UNL     1       8.840  -0.194   0.387  1.00  0.00     0.174 HD
ATOM     34  H41 UNL     1       8.490  -0.184   2.134  1.00  0.00     0.174 HD
ENDBRANCH  26  32
ENDBRANCH   5  22
TORSDOF 9
