REMARK  6 active torsions:
REMARK  status: ('A' for Active; 'I' for Inactive)
REMARK       I    between atoms: C2_2  and  N1_4 
REMARK    1  A    between atoms: C4_9  and  O3_10 
REMARK    2  A    between atoms: C5_12  and  S1_13 
REMARK    3  A    between atoms: S1_13  and  O4_14 
REMARK    4  A    between atoms: O4_14  and  N3_15 
REMARK    5  A    between atoms: C7_17  and  C8_18 
REMARK    6  A    between atoms: C8_18  and  O5_19 
ROOT
HETATM    1  C1  UNL     1      -5.085   2.435   0.461  1.00  0.00     0.118 C 
HETATM    2  C2  UNL     1      -5.215   0.991   0.161  1.00  0.00     0.231 C 
HETATM    3  O1  UNL     1      -6.373   0.484  -0.049  1.00  0.00    -0.273 OA
HETATM    4  N1  UNL     1      -4.099   0.153   0.097  1.00  0.00    -0.197 N 
HETATM    5  C3  UNL     1      -4.312  -1.164  -0.186  1.00  0.00     0.338 A 
HETATM    6  O2  UNL     1      -5.476  -1.621  -0.386  1.00  0.00    -0.246 OA
HETATM    7  N2  UNL     1      -3.311  -2.044  -0.269  1.00  0.00    -0.287 N 
ATOM      8  H2  UNL     1      -3.491  -3.025  -0.482  1.00  0.00     0.172 HD
HETATM    9  C4  UNL     1      -2.058  -1.598  -0.063  1.00  0.00     0.169 A 
HETATM   10  C5  UNL     1      -1.785  -0.285   0.225  1.00  0.00     0.150 A 
HETATM   11  C11 UNL     1      -2.858   0.595   0.301  1.00  0.00     0.281 A 
HETATM   12  O8  UNL     1      -2.564   1.792   0.568  1.00  0.00    -0.266 OA
ENDROOT
BRANCH  10  13
HETATM   13  S1  UNL     1      -0.111   0.238   0.485  1.00  0.00     0.071 SA
BRANCH  13  14
HETATM   14  O4  UNL     1       1.003  -1.074   0.326  1.00  0.00    -0.188 OA
BRANCH  14  15
HETATM   15  N3  UNL     1       2.326  -0.898   0.002  1.00  0.00    -0.167 N 
HETATM   16  C6  UNL     1       3.022   0.222   0.304  1.00  0.00     0.144 A 
HETATM   17  C7  UNL     1       4.352   0.378  -0.032  1.00  0.00     0.051 A 
HETATM   18  C9  UNL     1       5.009  -0.632  -0.700  1.00  0.00     0.259 A 
HETATM   19  O6  UNL     1       6.210  -0.526  -1.020  1.00  0.00    -0.267 OA
HETATM   20  N4  UNL     1       4.304  -1.738  -0.994  1.00  0.00    -0.273 N 
HETATM   21  C10 UNL     1       2.998  -1.861  -0.649  1.00  0.00     0.354 A 
ATOM     22  H4  UNL     1       4.762  -2.503  -1.489  1.00  0.00     0.173 HD
HETATM   23  O7  UNL     1       2.408  -2.926  -0.959  1.00  0.00    -0.244 OA
BRANCH  17  24
HETATM   24  C8  UNL     1       5.070   1.606   0.314  1.00  0.00     0.210 C 
BRANCH  24  25
HETATM   25  O5  UNL     1       4.218   2.485   0.981  1.00  0.00    -0.396 OA
ATOM     26  H5  UNL     1       4.684   3.282   1.206  1.00  0.00     0.209 HD
ENDBRANCH  24  25
ENDBRANCH  17  24
ENDBRANCH  14  15
ENDBRANCH  13  14
ENDBRANCH  10  13
BRANCH   9  27
HETATM   27  O3  UNL     1      -1.008  -2.523  -0.150  1.00  0.00    -0.345 OA
ATOM     28  H3  UNL     1      -0.124  -2.208  -0.005  1.00  0.00     0.219 HD
ENDBRANCH   9  27
TORSDOF 6
