REMARK  4 active torsions:
REMARK  status: ('A' for Active; 'I' for Inactive)
REMARK    1  A    between atoms: C2_2  and  C3_3 
REMARK    2  A    between atoms: C3_3  and  C4_4 
REMARK    3  A    between atoms: C7_7  and  O1_8 
REMARK    4  A    between atoms: C10_12  and  O2_14 
ROOT
HETATM    1  C4  UNL     1       0.102  -0.095  -0.109  1.00  0.00    -0.011 C 
HETATM    2  C5  UNL     1       0.225  -0.392  -1.608  1.00  0.00     0.018 C 
HETATM    3  C6  UNL     1      -0.311   1.334   0.016  1.00  0.00     0.044 C 
HETATM    4  C7  UNL     1      -1.767   1.540  -0.411  1.00  0.00     0.119 C 
HETATM    5  C8  UNL     1      -2.609   0.715   0.522  1.00  0.00     0.034 C 
HETATM    6  C9  UNL     1      -2.294  -0.728   0.316  1.00  0.00     0.041 C 
HETATM    7  C10 UNL     1      -0.856  -1.083   0.459  1.00  0.00     0.061 C 
HETATM    8  C11 UNL     1      -0.656  -2.453  -0.193  1.00  0.00     0.046 C 
ENDROOT
BRANCH   1   9
HETATM    9  C3  UNL     1       1.453  -0.289   0.489  1.00  0.00     0.012 C 
BRANCH   9  10
HETATM   10  C2  UNL     1       2.507   0.619  -0.103  1.00  0.00    -0.004 C 
HETATM   11  C1  UNL     1       3.861   0.384   0.535  1.00  0.00     0.005 C 
ENDBRANCH   9  10
ENDBRANCH   1   9
BRANCH   7  12
HETATM   12  O2  UNL     1      -0.594  -1.273   1.823  1.00  0.00    -0.389 OA
ATOM     13  H2  UNL     1      -1.205  -1.903   2.185  1.00  0.00     0.210 HD
ENDBRANCH   7  12
BRANCH   4  14
HETATM   14  O1  UNL     1      -2.056   2.886  -0.186  1.00  0.00    -0.396 OA
ATOM     15  H1  UNL     1      -2.959   3.014  -0.451  1.00  0.00     0.210 HD
ENDBRANCH   4  14
TORSDOF 4
