REMARK  4 active torsions:
REMARK  status: ('A' for Active; 'I' for Inactive)
REMARK    1  A    between atoms: C2_2  and  C9_14 
REMARK    2  A    between atoms: N1_3  and  N2_5 
REMARK    3  A    between atoms: C3_7  and  C4_8 
REMARK       I    between atoms: C9_14  and  N3_16 
REMARK    4  A    between atoms: N3_16  and  C10_18 
ROOT
HETATM    1  C1  UNL     1       0.643   0.768   0.559  1.00  0.00     0.076 C 
HETATM    2  C2  UNL     1       1.217  -0.311  -0.274  1.00  0.00     0.089 C 
HETATM    3  N1  UNL     1       0.415  -0.959  -1.041  1.00  0.00    -0.300 N 
ATOM      4  H1  UNL     1       0.808  -1.704  -1.616  1.00  0.00     0.186 HD
ENDROOT
BRANCH   3   5
HETATM    5  N2  UNL     1      -0.946  -0.718  -1.142  1.00  0.00    -0.315 N 
HETATM    6  C3  UNL     1      -1.805  -1.192  -0.299  1.00  0.00     0.085 C 
ATOM      7  H2  UNL     1      -1.285  -0.143  -1.913  1.00  0.00     0.185 HD
BRANCH   6   8
HETATM    8  C4  UNL     1      -3.243  -0.935  -0.409  1.00  0.00     0.038 A 
HETATM    9  C5  UNL     1      -3.726   0.425  -0.148  1.00  0.00     0.026 A 
HETATM   10  C6  UNL     1      -5.155   0.765   0.096  1.00  0.00     0.173 C 
HETATM   11  C8  UNL     1      -3.703  -0.057  -1.549  1.00  0.00     0.026 A 
HETATM   12  O1  UNL     1      -5.926   0.263  -0.912  1.00  0.00    -0.390 OA
HETATM   13  C7  UNL     1      -5.139  -0.213  -1.921  1.00  0.00     0.173 C 
ENDBRANCH   6   8
ENDBRANCH   3   5
BRANCH   2  14
HETATM   14  C9  UNL     1       2.621  -0.668  -0.268  1.00  0.00     0.265 C 
HETATM   15  O2  UNL     1       3.013  -1.598  -1.011  1.00  0.00    -0.266 OA
HETATM   16  N3  UNL     1       3.547   0.029   0.571  1.00  0.00    -0.351 N 
ATOM     17  H3  UNL     1       3.194   0.781   1.163  1.00  0.00     0.163 HD
BRANCH  16  18
HETATM   18  C10 UNL     1       4.943  -0.278   0.620  1.00  0.00     0.084 A 
HETATM   19  C11 UNL     1       5.744  -0.140   1.860  1.00  0.00     0.027 A 
HETATM   20  C12 UNL     1       5.934   0.824   0.691  1.00  0.00     0.027 A 
ENDBRANCH  16  18
ENDBRANCH   2  14
TORSDOF 4
