REMARK  6 active torsions:
REMARK  status: ('A' for Active; 'I' for Inactive)
REMARK       I    between atoms: C1_2  and  N2_4 
REMARK       I    between atoms: C2_6  and  N4_8 
REMARK    1  A    between atoms: N4_8  and  N5_10 
REMARK    2  A    between atoms: C3_12  and  C4_13 
REMARK    3  A    between atoms: C3_12  and  C8_30 
REMARK       I    between atoms: C4_13  and  N6_15 
REMARK    4  A    between atoms: N6_15  and  N7_17 
REMARK    5  A    between atoms: C5_24  and  C6_25 
REMARK    6  A    between atoms: C6_25  and  C7_26 
ROOT
HETATM    1  N5  UNL     1       1.616  -0.790   0.601  1.00  0.00    -0.291 N 
ATOM      2  H5  UNL     1       2.277  -1.566   0.641  1.00  0.00     0.187 HD
HETATM    3  C3  UNL     1       0.467  -1.261   0.597  1.00  0.00     0.146 C 
ENDROOT
BRANCH   3   4
HETATM    4  C4  UNL     1      -0.810  -0.521   0.549  1.00  0.00     0.292 C 
HETATM    5  O2  UNL     1      -1.819  -1.236   0.556  1.00  0.00    -0.264 OA
HETATM    6  N6  UNL     1      -0.866   0.856   0.499  1.00  0.00    -0.240 N 
ATOM      7  H6  UNL     1       0.064   1.274   0.501  1.00  0.00     0.192 HD
BRANCH   6   8
HETATM    8  N7  UNL     1      -1.858   1.813   0.447  1.00  0.00    -0.164 N 
HETATM    9  N8  UNL     1      -1.541   3.151   0.425  1.00  0.00    -0.205 N 
HETATM   10  N9  UNL     1      -2.601   3.851   0.374  1.00  0.00    -0.225 N 
ATOM     11  H8  UNL     1      -0.593   3.527   0.446  1.00  0.00     0.212 HD
HETATM   12  N10 UNL     1      -3.635   3.077   0.358  1.00  0.00    -0.270 N 
ATOM     13  H9  UNL     1      -2.631   4.870   0.349  1.00  0.00     0.210 HD
HETATM   14  C5  UNL     1      -3.167   1.780   0.404  1.00  0.00     0.147 A 
ATOM     15  H10 UNL     1      -4.612   3.369   0.319  1.00  0.00     0.190 HD
BRANCH  14  16
HETATM   16  C6  UNL     1      -4.089   0.612   0.395  1.00  0.00     0.198 C 
BRANCH  16  17
HETATM   17  C7  UNL     1      -5.533   1.172   0.349  1.00  0.00     0.394 C 
HETATM   18  F1  UNL     1      -5.684   1.940   1.477  1.00  0.00    -0.171 F 
HETATM   19  F2  UNL     1      -5.607   1.940  -0.793  1.00  0.00    -0.171 F 
HETATM   20  F3  UNL     1      -6.395   0.099   0.308  1.00  0.00    -0.171 F 
ENDBRANCH  16  17
ENDBRANCH  14  16
ENDBRANCH   6   8
ENDBRANCH   3   4
BRANCH   3  21
HETATM   21  C8  UNL     1       0.404  -2.736   0.649  1.00  0.00     0.082 A 
HETATM   22  C9  UNL     1      -0.651  -3.562   0.659  1.00  0.00     0.121 A 
HETATM   23  N11 UNL     1      -0.206  -4.859   0.714  1.00  0.00    -0.360 N 
HETATM   24  C10 UNL     1       1.121  -4.823   0.737  1.00  0.00     0.180 A 
ATOM     25  H11 UNL     1      -0.788  -5.697   0.734  1.00  0.00     0.166 HD
HETATM   26  N12 UNL     1       1.502  -3.543   0.698  1.00  0.00    -0.349 N 
ATOM     27  H12 UNL     1       2.469  -3.218   0.704  1.00  0.00     0.166 HD
ENDBRANCH   3  21
BRANCH   1  28
HETATM   28  N4  UNL     1       2.307   0.340   0.573  1.00  0.00    -0.273 N 
HETATM   29  C2  UNL     1       3.059   0.783  -0.546  1.00  0.00     0.210 C 
HETATM   30  N2  UNL     1       3.973   1.688  -0.461  1.00  0.00    -0.284 N 
HETATM   31  N3  UNL     1       2.815   0.222  -1.828  1.00  0.00    -0.062 NA
HETATM   32  C1  UNL     1       4.731   2.148  -1.540  1.00  0.00     0.335 C 
ATOM     33  H2  UNL     1       4.155   2.096   0.456  1.00  0.00     0.172 HD
HETATM   34  N1  UNL     1       6.045   2.613  -1.327  1.00  0.00    -0.040 NA
HETATM   35  O1  UNL     1       4.242   2.146  -2.691  1.00  0.00    -0.251 OA
ATOM     36  H4  UNL     1       2.298   0.928   1.407  1.00  0.00     0.189 HD
ENDBRANCH   1  28
TORSDOF 6
