REMARK  11 active torsions:
REMARK  status: ('A' for Active; 'I' for Inactive)
REMARK    1  A    between atoms: C2_2  and  O1_3 
REMARK    2  A    between atoms: O1_3  and  C3_4 
REMARK    3  A    between atoms: C6_7  and  C7_8 
REMARK    4  A    between atoms: C7_8  and  C8_9 
REMARK    5  A    between atoms: C8_9  and  C9_10 
REMARK    6  A    between atoms: C13_21  and  C14_23 
REMARK    7  A    between atoms: C14_23  and  O4_25 
REMARK    8  A    between atoms: C17_28  and  O5_29 
REMARK    9  A    between atoms: O5_29  and  C18_30 
REMARK   10  A    between atoms: C18_30  and  C19_31 
REMARK   11  A    between atoms: C19_31  and  C20_32 
ROOT
HETATM    1  C8  UNL     1       2.143   0.298   0.535  1.00  0.00     0.041 C 
ENDROOT
BRANCH   1   2
HETATM    2  C7  UNL     1       1.613   0.202  -0.855  1.00  0.00     0.041 C 
BRANCH   2   3
HETATM    3  C6  UNL     1       0.517  -0.834  -0.885  1.00  0.00    -0.055 A 
HETATM    4  C5  UNL     1       0.786  -2.158  -1.141  1.00  0.00     0.010 A 
HETATM    5  C4  UNL     1      -0.253  -3.092  -1.162  1.00  0.00     0.040 A 
HETATM    6  C3  UNL     1      -1.564  -2.743  -0.933  1.00  0.00     0.102 A 
HETATM    7  C17 UNL     1      -1.825  -1.399  -0.675  1.00  0.00     0.102 A 
HETATM    8  C16 UNL     1      -0.790  -0.500  -0.660  1.00  0.00     0.046 A 
BRANCH   6   9
HETATM    9  O1  UNL     1      -2.598  -3.652  -0.949  1.00  0.00    -0.349 OA
BRANCH   9  10
HETATM   10  C2  UNL     1      -2.550  -5.015  -1.173  1.00  0.00     0.171 C 
HETATM   11  C1  UNL     1      -1.699  -5.670  -0.120  1.00  0.00     0.034 C 
ENDBRANCH   9  10
ENDBRANCH   6   9
BRANCH   7  12
HETATM   12  O5  UNL     1      -3.147  -1.057  -0.446  1.00  0.00    -0.348 OA
BRANCH  12  13
HETATM   13  C18 UNL     1      -3.580   0.248  -0.173  1.00  0.00     0.176 C 
BRANCH  13  14
HETATM   14  C19 UNL     1      -5.069   0.270   0.024  1.00  0.00     0.035 C 
BRANCH  14  15
HETATM   15  C20 UNL     1      -5.608   1.631   0.320  1.00  0.00    -0.050 C 
HETATM   16  C21 UNL     1      -5.336   2.629  -0.771  1.00  0.00     0.014 C 
HETATM   17  C22 UNL     1      -7.121   1.490   0.493  1.00  0.00     0.014 C 
HETATM   18  C23 UNL     1      -4.996   2.129   1.600  1.00  0.00     0.014 C 
ENDBRANCH  14  15
ENDBRANCH  13  14
ENDBRANCH  12  13
ENDBRANCH   7  12
ENDBRANCH   2   3
ENDBRANCH   1   2
BRANCH   1  19
HETATM   19  C9  UNL     1       3.220   1.302   0.711  1.00  0.00     0.185 C 
HETATM   20  O2  UNL     1       2.714   2.585   0.360  1.00  0.00    -0.313 OA
HETATM   21  C10 UNL     1       3.536   3.657   0.092  1.00  0.00     0.214 C 
HETATM   22  N1  UNL     1       3.035   4.831  -0.013  1.00  0.00    -0.365 N 
HETATM   23  N2  UNL     1       4.929   3.410  -0.058  1.00  0.00    -0.334 N 
ATOM     24  H12 UNL     1       2.036   5.008   0.095  1.00  0.00     0.159 HD
ATOM     25  H11 UNL     1       3.644   5.625  -0.211  1.00  0.00     0.159 HD
HETATM   26  C11 UNL     1       5.484   2.171   0.426  1.00  0.00     0.139 A 
ATOM     27  H2  UNL     1       5.530   4.103  -0.504  1.00  0.00     0.164 HD
HETATM   28  C12 UNL     1       5.913   2.081   1.889  1.00  0.00     0.123 A 
HETATM   29  S1  UNL     1       7.157   1.944   0.596  1.00  0.00    -0.130 SA
HETATM   30  C13 UNL     1       4.505   1.050   0.009  1.00  0.00     0.251 C 
HETATM   31  F1  UNL     1       4.336   1.229  -1.347  1.00  0.00    -0.225 F 
BRANCH  30  32
HETATM   32  C14 UNL     1       5.185  -0.202   0.345  1.00  0.00     0.305 C 
HETATM   33  O3  UNL     1       4.834  -1.059   1.169  1.00  0.00    -0.261 OA
BRANCH  32  34
HETATM   34  O4  UNL     1       6.381  -0.448  -0.361  1.00  0.00    -0.324 OA
HETATM   35  C15 UNL     1       7.145  -1.598  -0.152  1.00  0.00     0.213 C 
ENDBRANCH  32  34
ENDBRANCH  30  32
ENDBRANCH   1  19
TORSDOF 11
