REMARK  10 active torsions:
REMARK  status: ('A' for Active; 'I' for Inactive)
REMARK    1  A    between atoms: C2_2  and  C3_3 
REMARK    2  A    between atoms: C5_5  and  C6_6 
REMARK    3  A    between atoms: C8_8  and  C9_9 
REMARK    4  A    between atoms: C9_9  and  O1_10 
REMARK    5  A    between atoms: C12_14  and  C14_16 
REMARK    6  A    between atoms: C14_16  and  O2_17 
REMARK    7  A    between atoms: O2_17  and  C15_18 
REMARK    8  A    between atoms: C19_26  and  C20_27 
REMARK    9  A    between atoms: C21_29  and  O4_31 
REMARK   10  A    between atoms: C31_43  and  O6_44 
ROOT
HETATM    1  C15 UNL     1       3.134  -0.768  -1.000  1.00  0.00     0.318 C 
HETATM    2  C16 UNL     1       3.913  -2.089  -1.205  1.00  0.00     0.268 C 
HETATM    3  O3  UNL     1       3.500  -2.708  -2.189  1.00  0.00    -0.269 OA
HETATM    4  N1  UNL     1       4.970  -2.639  -0.457  1.00  0.00    -0.340 N 
ATOM      5  H1  UNL     1       5.410  -3.434  -0.921  1.00  0.00     0.164 HD
HETATM    6  C17 UNL     1       5.575  -2.331   0.824  1.00  0.00     0.200 C 
HETATM    7  C18 UNL     1       6.341  -3.500   1.292  1.00  0.00     0.085 C 
HETATM    8  N2  UNL     1       6.935  -4.442   1.677  1.00  0.00    -0.195 NA
HETATM    9  C19 UNL     1       6.492  -1.161   0.817  1.00  0.00     0.076 C 
HETATM   10  C21 UNL     1       5.851   0.172   1.089  1.00  0.00     0.142 C 
HETATM   11  C22 UNL     1       5.053   0.223   2.359  1.00  0.00     0.057 C 
HETATM   12  C23 UNL     1       5.123   0.738  -0.073  1.00  0.00     0.256 C 
HETATM   13  O5  UNL     1       5.370   1.972  -0.309  1.00  0.00    -0.270 OA
HETATM   14  N3  UNL     1       4.181   0.286  -1.052  1.00  0.00    -0.319 N 
HETATM   15  C24 UNL     1       4.262   0.947  -2.336  1.00  0.00     0.155 C 
ENDROOT
BRANCH   9  16
HETATM   16  C20 UNL     1       7.255  -1.076  -0.472  1.00  0.00     0.096 C 
HETATM   17 BR1  UNL     1       8.333  -2.651  -0.773  1.00  0.00    -0.096 Br
ENDBRANCH   9  16
BRANCH  10  18
HETATM   18  O4  UNL     1       6.942   1.056   1.309  1.00  0.00    -0.380 OA
ATOM     19  H4  UNL     1       6.537   1.898   1.481  1.00  0.00     0.211 HD
ENDBRANCH  10  18
BRANCH   1  20
HETATM   20  O2  UNL     1       2.468  -0.806   0.137  1.00  0.00    -0.357 OA
BRANCH  20  21
HETATM   21  C14 UNL     1       1.199  -0.761   0.440  1.00  0.00     0.181 C 
BRANCH  21  22
HETATM   22  C12 UNL     1       0.337   0.443   0.172  1.00  0.00    -0.012 C 
HETATM   23  C11 UNL     1      -1.047   0.194   0.682  1.00  0.00     0.053 C 
HETATM   24  C10 UNL     1      -1.481  -1.181   0.230  1.00  0.00    -0.013 C 
HETATM   25  C31 UNL     1      -2.135   1.092   0.162  1.00  0.00     0.073 C 
HETATM   26  C8  UNL     1      -2.472  -1.854   0.875  1.00  0.00    -0.059 C 
HETATM   27  C7  UNL     1      -3.234  -1.351   2.062  1.00  0.00     0.044 C 
HETATM   28  C6  UNL     1      -3.895   0.010   1.687  1.00  0.00     0.015 C 
HETATM   29  C33 UNL     1      -3.520   0.450   0.354  1.00  0.00     0.048 C 
HETATM   30  C27 UNL     1      -1.929   0.972  -1.345  1.00  0.00     0.034 A 
HETATM   31  C26 UNL     1      -0.660   1.846  -1.500  1.00  0.00     0.002 A 
HETATM   32  C28 UNL     1      -1.774   1.927  -2.359  1.00  0.00    -0.037 A 
HETATM   33  C25 UNL     1       0.409   0.831  -1.265  1.00  0.00     0.018 C 
HETATM   34  C29 UNL     1      -2.659   3.165  -2.328  1.00  0.00     0.015 C 
HETATM   35  C30 UNL     1      -1.600   1.425  -3.794  1.00  0.00     0.015 C 
HETATM   36  C13 UNL     1       1.019   1.568   0.986  1.00  0.00     0.018 C 
BRANCH  26  37
HETATM   37  C9  UNL     1      -2.870  -3.188   0.411  1.00  0.00     0.198 C 
BRANCH  37  38
HETATM   38  O1  UNL     1      -4.210  -3.261   0.028  1.00  0.00    -0.397 OA
ATOM     39  H1  UNL     1      -4.468  -4.125  -0.272  1.00  0.00     0.209 HD
ENDBRANCH  37  38
ENDBRANCH  26  37
BRANCH  28  40
HETATM   40  C5  UNL     1      -5.350  -0.189   1.829  1.00  0.00    -0.015 C 
HETATM   41  C3  UNL     1      -6.372  -0.161   1.073  1.00  0.00    -0.066 C 
HETATM   42  C4  UNL     1      -7.707  -0.446   1.798  1.00  0.00     0.048 C 
BRANCH  41  43
HETATM   43  C2  UNL     1      -6.522   0.090  -0.334  1.00  0.00    -0.004 C 
HETATM   44  C1  UNL     1      -7.758   0.070  -0.888  1.00  0.00     0.012 C 
ENDBRANCH  41  43
ENDBRANCH  28  40
BRANCH  25  45
HETATM   45  O6  UNL     1      -2.102   2.393   0.440  1.00  0.00    -0.384 OA
HETATM   46  C32 UNL     1      -2.181   2.944   1.642  1.00  0.00     0.202 C 
ENDBRANCH  25  45
ENDBRANCH  21  22
ENDBRANCH  20  21
ENDBRANCH   1  20
TORSDOF 10
