REMARK  7 active torsions:
REMARK  status: ('A' for Active; 'I' for Inactive)
REMARK    1  A    between atoms: C2_2  and  N1_5 
REMARK       I    between atoms: N1_5  and  C5_7 
REMARK    2  A    between atoms: C5_7  and  C6_9 
REMARK    3  A    between atoms: C6_9  and  C16_27 
REMARK       I    between atoms: N2_10  and  C7_12 
REMARK    4  A    between atoms: C7_12  and  C8_14 
REMARK    5  A    between atoms: C10_16  and  C11_17 
REMARK    6  A    between atoms: C11_17  and  N3_18 
REMARK       I    between atoms: N3_18  and  C12_20 
REMARK    7  A    between atoms: C12_20  and  C13_22 
ROOT
HETATM    1  C6  UNL     1      -1.954   1.563   0.544  1.00  0.00     0.169 C 
HETATM    2  N2  UNL     1      -0.990   0.792   0.895  1.00  0.00    -0.318 N 
ATOM      3  H2  UNL     1      -1.200  -0.203   0.979  1.00  0.00     0.169 HD
HETATM    4  C7  UNL     1       0.338   1.194   1.176  1.00  0.00     0.226 C 
HETATM    5  O2  UNL     1       0.569   1.610   2.355  1.00  0.00    -0.273 OA
ENDROOT
BRANCH   4   6
HETATM    6  C8  UNL     1       1.439   1.153   0.187  1.00  0.00     0.080 C 
HETATM    7  C9  UNL     1       1.725  -0.244  -0.354  1.00  0.00     0.032 C 
HETATM    8  C10 UNL     1       3.102  -0.185   0.158  1.00  0.00     0.076 C 
HETATM    9  C15 UNL     1       2.770   1.071   0.858  1.00  0.00     0.032 C 
BRANCH   8  10
HETATM   10  C11 UNL     1       4.130  -0.963   0.003  1.00  0.00    -0.063 C 
BRANCH  10  11
HETATM   11  N3  UNL     1       5.172  -1.614  -0.390  1.00  0.00    -0.294 N 
HETATM   12  C12 UNL     1       5.975  -1.026  -1.401  1.00  0.00     0.258 C 
HETATM   13  O3  UNL     1       5.569  -0.203  -2.244  1.00  0.00    -0.270 OA
ATOM     14  H3  UNL     1       5.410  -2.520   0.012  1.00  0.00     0.178 HD
BRANCH  12  15
HETATM   15  C13 UNL     1       7.409  -1.442  -1.437  1.00  0.00     0.153 C 
HETATM   16  C14 UNL     1       7.995  -1.051  -0.085  1.00  0.00     0.051 C 
HETATM   17 BR1  UNL     1       7.404  -3.385  -1.618  1.00  0.00    -0.063 Br
HETATM   18 BR2  UNL     1       8.322  -0.595  -2.883  1.00  0.00    -0.063 Br
ENDBRANCH  12  15
ENDBRANCH  10  11
ENDBRANCH   8  10
ENDBRANCH   4   6
BRANCH   1  19
HETATM   19  C5  UNL     1      -3.251   0.973   0.296  1.00  0.00     0.274 C 
HETATM   20  N1  UNL     1      -3.482  -0.409   0.428  1.00  0.00    -0.347 N 
ATOM     21  H1  UNL     1      -2.695  -0.993   0.709  1.00  0.00     0.163 HD
HETATM   22  O1  UNL     1      -4.204   1.711  -0.047  1.00  0.00    -0.266 OA
BRANCH  20  23
HETATM   23  C2  UNL     1      -4.734  -1.056   0.199  1.00  0.00     0.022 C 
HETATM   24  C1  UNL     1      -5.171  -0.815  -1.246  1.00  0.00     0.037 C 
HETATM   25  C3  UNL     1      -4.600  -2.538   0.461  1.00  0.00     0.037 C 
HETATM   26  C4  UNL     1      -5.848  -0.544   1.072  1.00  0.00     0.037 C 
ENDBRANCH  20  23
ENDBRANCH   1  19
BRANCH   1  27
HETATM   27  C16 UNL     1      -1.777   2.996   0.391  1.00  0.00     0.287 C 
HETATM   28  N4  UNL     1      -2.835   3.862   0.003  1.00  0.00    -0.056 NA
HETATM   29  O4  UNL     1      -0.661   3.531   0.601  1.00  0.00    -0.269 OA
ENDBRANCH   1  27
TORSDOF 7
