REMARK  4 active torsions:
REMARK  status: ('A' for Active; 'I' for Inactive)
REMARK    1  A    between atoms: C9_9  and  C10_10 
REMARK    2  A    between atoms: C9_9  and  C13_18 
REMARK    3  A    between atoms: C10_10  and  C11_11 
REMARK    4  A    between atoms: C11_11  and  N1_12 
REMARK       I    between atoms: C13_18  and  N3_20 
ROOT
HETATM    1  C11 UNL     1       0.267   3.075   0.734  1.00  0.00     0.290 C 
HETATM    2  C12 UNL     1      -0.344   3.920  -0.319  1.00  0.00     0.092 C 
HETATM    3  N2  UNL     1      -0.817   4.606  -1.148  1.00  0.00    -0.195 NA
ENDROOT
BRANCH   1   4
HETATM    4  C10 UNL     1      -0.204   1.703   0.764  1.00  0.00     0.068 C 
BRANCH   4   5
HETATM    5  C9  UNL     1       0.103   0.693  -0.274  1.00  0.00     0.052 C 
HETATM    6  C5  UNL     1       1.586   0.403  -0.455  1.00  0.00    -0.014 C 
HETATM    7  C4  UNL     1       1.904  -0.873  -1.142  1.00  0.00     0.051 C 
HETATM    8  C6  UNL     1       1.989   1.495  -1.449  1.00  0.00     0.011 C 
HETATM    9  C20 UNL     1       2.367   0.437   0.791  1.00  0.00     0.095 C 
HETATM   10  C3  UNL     1       2.934  -1.549  -0.330  1.00  0.00    -0.013 C 
HETATM   11  C2  UNL     1       3.317  -2.835  -0.411  1.00  0.00    -0.022 C 
HETATM   12  C21 UNL     1       3.504  -0.584   0.607  1.00  0.00     0.268 C 
HETATM   13  C1  UNL     1       4.364  -3.382   0.463  1.00  0.00     0.036 C 
HETATM   14  F1  UNL     1       3.772  -1.213   1.805  1.00  0.00    -0.201 F 
HETATM   15  F2  UNL     1       4.643   0.038   0.135  1.00  0.00    -0.201 F 
HETATM   16  C7  UNL     1       0.883   1.488  -2.452  1.00  0.00     0.002 C 
HETATM   17  C8  UNL     1      -0.320   0.978  -1.657  1.00  0.00     0.020 C 
BRANCH   5  18
HETATM   18  C13 UNL     1      -0.585  -0.542   0.208  1.00  0.00     0.230 C 
HETATM   19  O1  UNL     1       0.098  -1.514   0.667  1.00  0.00    -0.272 OA
HETATM   20  N3  UNL     1      -1.977  -0.710   0.195  1.00  0.00    -0.342 N 
HETATM   21  C14 UNL     1      -2.699  -1.941   0.647  1.00  0.00     0.087 C 
HETATM   22  C17 UNL     1      -3.124   0.068  -0.172  1.00  0.00     0.087 C 
HETATM   23  C15 UNL     1      -3.464  -2.269  -0.591  1.00  0.00     0.027 C 
HETATM   24  C19 UNL     1      -3.625  -1.346   1.653  1.00  0.00     0.027 C 
HETATM   25  C16 UNL     1      -3.828  -0.894  -1.117  1.00  0.00     0.027 C 
HETATM   26  C18 UNL     1      -3.948   0.031   1.110  1.00  0.00     0.027 C 
ENDBRANCH   5  18
ENDBRANCH   4   5
ENDBRANCH   1   4
BRANCH   1  27
HETATM   27  N1  UNL     1      -0.292   3.714   1.976  1.00  0.00    -0.063 N 
ATOM     28  H13 UNL     1      -1.305   3.629   2.062  1.00  0.00     0.275 HD
ATOM     29  H12 UNL     1      -0.057   3.217   2.835  1.00  0.00     0.275 HD
ATOM     30  H11 UNL     1       0.039   4.679   1.955  1.00  0.00     0.275 HD
ENDBRANCH   1  27
TORSDOF 4
