REMARK  3 active torsions:
REMARK  status: ('A' for Active; 'I' for Inactive)
REMARK    1  A    between atoms: C2_3  and  C3_4 
REMARK    2  A    between atoms: C4_5  and  C5_6 
REMARK    3  A    between atoms: C9_11  and  C10_12 
ROOT
HETATM    1  N1  UNL     1      -0.561   3.027   0.209  1.00  0.00    -0.191 NA
HETATM    2  C1  UNL     1      -0.213   1.908   0.143  1.00  0.00     0.108 C 
HETATM    3  C2  UNL     1       0.218   0.549   0.030  1.00  0.00     0.099 C 
HETATM    4  C9  UNL     1      -0.668  -0.416   0.042  1.00  0.00     0.043 C 
ENDROOT
BRANCH   3   5
HETATM    5  C3  UNL     1       1.628   0.219  -0.091  1.00  0.00    -0.048 C 
HETATM    6  C4  UNL     1       2.808  -0.035  -0.193  1.00  0.00    -0.035 C 
BRANCH   6   7
HETATM    7  C5  UNL     1       4.205  -0.315  -0.314  1.00  0.00     0.128 A 
HETATM    8  C6  UNL     1       5.031  -0.848   0.646  1.00  0.00     0.048 A 
HETATM    9  C7  UNL     1       6.298  -0.937   0.079  1.00  0.00     0.028 A 
HETATM   10  C8  UNL     1       6.166  -0.446  -1.211  1.00  0.00     0.143 A 
HETATM   11  O1  UNL     1       4.936  -0.092  -1.407  1.00  0.00    -0.314 OA
ENDBRANCH   6   7
ENDBRANCH   3   5
BRANCH   4  12
HETATM   12  C10 UNL     1      -2.096  -0.182   0.169  1.00  0.00    -0.034 A 
HETATM   13  C11 UNL     1      -3.013  -0.730  -0.706  1.00  0.00     0.013 A 
HETATM   14  C12 UNL     1      -4.361  -0.492  -0.520  1.00  0.00     0.023 A 
HETATM   15  C13 UNL     1      -4.846   0.283   0.523  1.00  0.00     0.044 A 
HETATM   16  C14 UNL     1      -6.278   0.505   0.673  1.00  0.00     0.099 C 
HETATM   17  C15 UNL     1      -3.940   0.827   1.395  1.00  0.00     0.023 A 
HETATM   18  N2  UNL     1      -7.408   0.671   0.775  1.00  0.00    -0.191 NA
HETATM   19  C16 UNL     1      -2.587   0.590   1.210  1.00  0.00     0.013 A 
ENDBRANCH   4  12
TORSDOF 3
