REMARK  5 active torsions:
REMARK  status: ('A' for Active; 'I' for Inactive)
REMARK    1  A    between atoms: C2_2  and  C14_18 
REMARK    2  A    between atoms: C3_3  and  C4_4 
REMARK    3  A    between atoms: C4_4  and  C7_7 
REMARK    4  A    between atoms: C7_7  and  C9_9 
REMARK    5  A    between atoms: C7_7  and  N1_12 
ROOT
HETATM    1  C7  UNL     1       1.426  -0.979  -0.529  1.00  0.00     0.130 C 
HETATM    2  C8  UNL     1       1.087  -1.772   0.818  1.00  0.00     0.052 C 
ENDROOT
BRANCH   1   3
HETATM    3  C4  UNL     1       0.075  -0.733  -1.116  1.00  0.00     0.006 C 
HETATM    4  C5  UNL     1       0.263   0.207  -2.380  1.00  0.00     0.022 C 
HETATM    5  C6  UNL     1      -0.484  -1.976  -1.734  1.00  0.00     0.022 C 
BRANCH   3   6
HETATM    6  C3  UNL     1      -0.876   0.019  -0.306  1.00  0.00    -0.012 C 
HETATM    7  C2  UNL     1      -1.954  -0.313   0.355  1.00  0.00    -0.079 C 
HETATM    8  C1  UNL     1      -2.584  -1.650   0.493  1.00  0.00     0.044 C 
BRANCH   7   9
HETATM    9  C14 UNL     1      -2.756   0.751   1.112  1.00  0.00    -0.029 C 
HETATM   10  C15 UNL     1      -2.188   2.113   0.975  1.00  0.00     0.019 C 
HETATM   11  C16 UNL     1      -2.796   0.409   2.589  1.00  0.00     0.019 C 
HETATM   12  C17 UNL     1      -4.173   0.613   0.594  1.00  0.00     0.019 C 
ENDBRANCH   7   9
ENDBRANCH   3   6
ENDBRANCH   1   3
BRANCH   1  13
HETATM   13  C9  UNL     1       2.235  -2.040  -1.177  1.00  0.00     0.203 C 
HETATM   14  O1  UNL     1       1.930  -2.856  -2.034  1.00  0.00    -0.646 OA
HETATM   15  O2  UNL     1       3.579  -2.148  -0.737  1.00  0.00    -0.646 OA
ENDBRANCH   1  13
BRANCH   1  16
HETATM   16  N1  UNL     1       2.220   0.135  -0.140  1.00  0.00    -0.352 N 
HETATM   17  C10 UNL     1       1.894   0.905   0.943  1.00  0.00     0.074 C 
HETATM   18  C11 UNL     1       1.868   2.405   0.859  1.00  0.00     0.118 C 
HETATM   19  S1  UNL     1       3.307   3.056  -0.023  1.00  0.00    -0.159 SA
HETATM   20  C12 UNL     1       3.736   1.808  -1.246  1.00  0.00     0.118 C 
HETATM   21  C13 UNL     1       3.392   0.399  -0.835  1.00  0.00     0.074 C 
ENDBRANCH   1  16
TORSDOF 5
