REMARK  13 active torsions:
REMARK  status: ('A' for Active; 'I' for Inactive)
REMARK    1  A    between atoms: C1_2  and  C2_4 
REMARK    2  A    between atoms: C2_4  and  C3_5 
REMARK    3  A    between atoms: C3_5  and  C4_6 
REMARK    4  A    between atoms: C3_5  and  C21_40 
REMARK    5  A    between atoms: C4_6  and  C5_7 
REMARK    6  A    between atoms: C5_7  and  C6_8 
REMARK       I    between atoms: C6_8  and  N1_10 
REMARK    7  A    between atoms: C8_17  and  C9_18 
REMARK    8  A    between atoms: C9_18  and  C10_19 
REMARK    9  A    between atoms: C10_19  and  C11_20 
REMARK   10  A    between atoms: C11_20  and  C12_21 
REMARK   11  A    between atoms: C12_21  and  C13_22 
REMARK       I    between atoms: N6_28  and  C15_30 
REMARK   12  A    between atoms: C15_30  and  C16_32 
REMARK   13  A    between atoms: C16_32  and  C17_33 
ROOT
HETATM    1  C6  UNL     1      -5.200  -3.139  -1.072  1.00  0.00     0.223 C 
HETATM    2  O3  UNL     1      -6.086  -3.916  -1.606  1.00  0.00    -0.273 OA
HETATM    3  N1  UNL     1      -3.864  -3.327  -1.278  1.00  0.00    -0.306 N 
ATOM      4  H1  UNL     1      -3.678  -4.127  -1.883  1.00  0.00     0.171 HD
HETATM    5  C7  UNL     1      -2.789  -2.749  -0.900  1.00  0.00     0.167 A 
HETATM    6  N2  UNL     1      -2.526  -1.696  -0.128  1.00  0.00    -0.279 N 
ATOM      7  H2  UNL     1      -3.289  -1.182   0.312  1.00  0.00     0.189 HD
HETATM    8  N3  UNL     1      -1.327  -1.335   0.058  1.00  0.00    -0.296 N 
ATOM      9  H3  UNL     1      -1.129  -0.529   0.651  1.00  0.00     0.187 HD
HETATM   10  C8  UNL     1      -0.328  -1.991  -0.507  1.00  0.00     0.069 A 
HETATM   11  S3  UNL     1      -1.159  -3.205  -1.358  1.00  0.00    -0.038 SA
ENDROOT
BRANCH  10  12
HETATM   12  C9  UNL     1       1.154  -1.678  -0.395  1.00  0.00     0.066 C 
BRANCH  12  13
HETATM   13  C10 UNL     1       1.286  -0.473   0.475  1.00  0.00     0.007 C 
BRANCH  13  14
HETATM   14  C11 UNL     1       2.693  -0.023   0.663  1.00  0.00     0.007 C 
BRANCH  14  15
HETATM   15  C12 UNL     1       3.354   0.337  -0.674  1.00  0.00     0.066 C 
BRANCH  15  16
HETATM   16  C13 UNL     1       4.743   0.805  -0.311  1.00  0.00     0.069 A 
HETATM   17  N4  UNL     1       5.881   0.159  -0.184  1.00  0.00    -0.296 N 
HETATM   18  N5  UNL     1       6.945   0.772   0.135  1.00  0.00    -0.279 N 
ATOM     19  H4  UNL     1       5.909  -0.848  -0.344  1.00  0.00     0.187 HD
HETATM   20  C14 UNL     1       6.894   2.089   0.343  1.00  0.00     0.167 A 
ATOM     21  H5  UNL     1       7.825   0.266   0.231  1.00  0.00     0.189 HD
HETATM   22  N6  UNL     1       7.865   2.906   0.677  1.00  0.00    -0.306 N 
HETATM   23  S2  UNL     1       5.241   2.424   0.059  1.00  0.00    -0.038 SA
HETATM   24  C15 UNL     1       9.190   2.463   0.875  1.00  0.00     0.228 C 
ATOM     25  H6  UNL     1       7.654   3.897   0.798  1.00  0.00     0.171 HD
HETATM   26  O4  UNL     1       9.616   2.221   2.043  1.00  0.00    -0.273 OA
BRANCH  24  27
HETATM   27  C16 UNL     1      10.050   2.297  -0.335  1.00  0.00     0.149 C 
BRANCH  27  28
HETATM   28  C17 UNL     1      11.435   1.846   0.068  1.00  0.00    -0.009 A 
HETATM   29  C18 UNL     1      12.512   2.650   0.340  1.00  0.00     0.015 A 
HETATM   30  C19 UNL     1      13.658   2.044   0.683  1.00  0.00     0.008 A 
HETATM   31  C20 UNL     1      13.657   0.677   0.735  1.00  0.00     0.050 A 
HETATM   32  S1  UNL     1      12.055   0.280   0.301  1.00  0.00    -0.106 SA
ENDBRANCH  27  28
ENDBRANCH  24  27
ENDBRANCH  15  16
ENDBRANCH  14  15
ENDBRANCH  13  14
ENDBRANCH  12  13
ENDBRANCH  10  12
BRANCH   1  33
HETATM   33  C5  UNL     1      -5.740  -2.044  -0.234  1.00  0.00     0.104 C 
BRANCH  33  34
HETATM   34  C4  UNL     1      -7.273  -2.112  -0.222  1.00  0.00     0.019 C 
BRANCH  34  35
HETATM   35  C3  UNL     1      -7.802  -1.001   0.633  1.00  0.00     0.029 C 
BRANCH  35  36
HETATM   36  C2  UNL     1      -9.282  -0.971   0.698  1.00  0.00     0.122 C 
BRANCH  36  37
HETATM   37  C1  UNL     1      -9.917  -2.164   1.258  1.00  0.00     0.173 C 
HETATM   38  O1  UNL     1      -9.318  -3.148   1.720  1.00  0.00    -0.648 OA
HETATM   39  O2  UNL     1     -11.330  -2.229   1.289  1.00  0.00    -0.648 OA
ENDBRANCH  36  37
ENDBRANCH  35  36
BRANCH  35  40
HETATM   40  C21 UNL     1      -7.251   0.283   0.108  1.00  0.00    -0.053 A 
HETATM   41  C22 UNL     1      -7.601   0.823  -1.106  1.00  0.00     0.007 A 
HETATM   42  C23 UNL     1      -7.063   2.011  -1.567  1.00  0.00     0.001 A 
HETATM   43  C24 UNL     1      -6.148   2.699  -0.817  1.00  0.00     0.000 A 
HETATM   44  C25 UNL     1      -5.768   2.186   0.415  1.00  0.00     0.001 A 
HETATM   45  C26 UNL     1      -6.315   1.009   0.850  1.00  0.00     0.007 A 
ENDBRANCH  35  40
ENDBRANCH  34  35
ENDBRANCH  33  34
ENDBRANCH   1  33
TORSDOF 13
