REMARK  17 active torsions:
REMARK  status: ('A' for Active; 'I' for Inactive)
REMARK    1  A    between atoms: C2_2  and  C3_4 
REMARK    2  A    between atoms: C3_4  and  N1_5 
REMARK    3  A    between atoms: C3_4  and  C32_48 
REMARK       I    between atoms: N1_5  and  C4_7 
REMARK    4  A    between atoms: C4_7  and  C5_9 
REMARK    5  A    between atoms: C5_9  and  C6_10 
REMARK    6  A    between atoms: C5_9  and  N2_17 
REMARK    7  A    between atoms: C6_10  and  C7_11 
REMARK       I    between atoms: N2_17  and  C13_19 
REMARK       I    between atoms: C13_19  and  N3_21 
REMARK       I    between atoms: N3_21  and  C14_23 
REMARK    8  A    between atoms: C14_23  and  C15_25 
REMARK       I    between atoms: C15_25  and  N4_27 
REMARK    9  A    between atoms: N4_27  and  C16_29 
REMARK   10  A    between atoms: C16_29  and  C17_30 
REMARK   11  A    between atoms: C17_30  and  N5_33 
REMARK   12  A    between atoms: N5_33  and  C21_35 
REMARK   13  A    between atoms: C21_35  and  O6_36 
REMARK   14  A    between atoms: C21_35  and  C22_38 
REMARK   15  A    between atoms: C22_38  and  C24_40 
REMARK   16  A    between atoms: C24_40  and  C25_41 
REMARK   17  A    between atoms: C25_41  and  C26_42 
ROOT
HETATM    1  N2  UNL     1      -4.007   0.925   0.068  1.00  0.00    -0.330 N 
ATOM      2  H2  UNL     1      -3.866   1.286  -0.876  1.00  0.00     0.165 HD
HETATM    3  C13 UNL     1      -2.880   0.600   0.879  1.00  0.00     0.323 C 
HETATM    4  O3  UNL     1      -3.156  -0.013   1.944  1.00  0.00    -0.247 OA
HETATM    5  N3  UNL     1      -1.569   0.943   0.556  1.00  0.00    -0.271 N 
ATOM      6  H3  UNL     1      -1.164   1.794   0.166  1.00  0.00     0.174 HD
HETATM    7  C14 UNL     1      -0.837  -0.606   1.053  1.00  0.00     0.317 C 
HETATM    8  O4  UNL     1      -1.655  -1.368   1.191  1.00  0.00    -0.262 OA
ENDROOT
BRANCH   7   9
HETATM    9  C15 UNL     1       0.549  -0.384   1.097  1.00  0.00     0.309 C 
HETATM   10  O5  UNL     1       1.048   0.746   1.394  1.00  0.00    -0.262 OA
HETATM   11  N4  UNL     1       1.496  -1.400   0.802  1.00  0.00    -0.351 N 
ATOM     12  H4  UNL     1       1.197  -2.323   0.488  1.00  0.00     0.162 HD
BRANCH  11  13
HETATM   13  C16 UNL     1       2.914  -1.080   0.963  1.00  0.00     0.153 C 
BRANCH  13  14
HETATM   14  C17 UNL     1       3.782  -2.089   0.302  1.00  0.00     0.042 C 
HETATM   15  C18 UNL     1       3.457  -2.039  -1.193  1.00  0.00     0.040 C 
HETATM   16  C19 UNL     1       3.489  -3.504   0.807  1.00  0.00     0.040 C 
BRANCH  14  17
HETATM   17  N5  UNL     1       5.187  -1.750   0.472  1.00  0.00    -0.359 N 
HETATM   18  C20 UNL     1       5.492  -0.636   1.337  1.00  0.00     0.152 C 
BRANCH  17  19
HETATM   19  C21 UNL     1       6.206  -2.519  -0.145  1.00  0.00     0.117 C 
BRANCH  19  20
HETATM   20  O6  UNL     1       5.555  -3.541  -0.832  1.00  0.00    -0.349 OA
ATOM     21  H6  UNL     1       6.238  -4.056  -1.245  1.00  0.00     0.219 HD
ENDBRANCH  19  20
BRANCH  19  22
HETATM   22  C22 UNL     1       7.583  -2.629  -0.306  1.00  0.00     0.056 C 
HETATM   23  C23 UNL     1       7.837  -3.527  -1.596  1.00  0.00     0.018 C 
BRANCH  22  24
HETATM   24  C24 UNL     1       8.620  -1.631  -0.363  1.00  0.00     0.013 C 
BRANCH  24  25
HETATM   25  C25 UNL     1       8.979  -0.685   0.706  1.00  0.00     0.005 C 
BRANCH  25  26
HETATM   26  C26 UNL     1      10.246   0.043   0.213  1.00  0.00    -0.014 C 
HETATM   27  C27 UNL     1      10.754   0.995   1.292  1.00  0.00     0.004 C 
HETATM   28  C28 UNL     1      12.140   1.445   0.798  1.00  0.00     0.000 C 
HETATM   29  C29 UNL     1      11.995   2.152  -0.532  1.00  0.00     0.000 C 
HETATM   30  C30 UNL     1      10.566   2.201  -1.021  1.00  0.00     0.000 C 
HETATM   31  C31 UNL     1       9.879   0.847  -0.990  1.00  0.00     0.004 C 
ENDBRANCH  25  26
ENDBRANCH  24  25
ENDBRANCH  22  24
ENDBRANCH  19  22
ENDBRANCH  17  19
ENDBRANCH  14  17
ENDBRANCH  13  14
ENDBRANCH  11  13
ENDBRANCH   7   9
BRANCH   1  32
HETATM   32  C5  UNL     1      -5.355   0.745   0.579  1.00  0.00     0.178 C 
BRANCH  32  33
HETATM   33  C4  UNL     1      -6.232  -0.186  -0.076  1.00  0.00     0.241 C 
HETATM   34  N1  UNL     1      -7.458  -0.552   0.581  1.00  0.00    -0.348 N 
ATOM     35  H1  UNL     1      -7.647  -0.124   1.487  1.00  0.00     0.163 HD
HETATM   36  O2  UNL     1      -5.923  -0.672  -1.193  1.00  0.00    -0.271 OA
BRANCH  34  37
HETATM   37  C3  UNL     1      -8.460  -1.489   0.058  1.00  0.00     0.157 C 
BRANCH  37  38
HETATM   38  C2  UNL     1      -8.099  -2.772   0.780  1.00  0.00     0.145 C 
HETATM   39  C1  UNL     1      -8.715  -4.031   0.337  1.00  0.00     0.093 C 
HETATM   40  O1  UNL     1      -7.319  -2.748   1.687  1.00  0.00    -0.296 OA
ENDBRANCH  37  38
BRANCH  37  41
HETATM   41  C32 UNL     1      -9.814  -1.005   0.440  1.00  0.00     0.007 C 
HETATM   42  C33 UNL     1     -10.328   0.200  -0.264  1.00  0.00     0.012 C 
HETATM   43  C34 UNL     1     -10.877  -1.952   0.806  1.00  0.00     0.012 C 
ENDBRANCH  37  41
ENDBRANCH  34  37
ENDBRANCH  32  33
BRANCH  32  44
HETATM   44  C6  UNL     1      -5.899   2.171   0.771  1.00  0.00     0.039 C 
BRANCH  44  45
HETATM   45  C7  UNL     1      -6.222   2.949  -0.430  1.00  0.00    -0.012 C 
HETATM   46  C8  UNL     1      -7.308   2.635  -1.365  1.00  0.00     0.005 C 
HETATM   47  C9  UNL     1      -8.493   3.580  -1.217  1.00  0.00     0.000 C 
HETATM   48  C10 UNL     1      -8.389   4.522  -0.046  1.00  0.00     0.000 C 
HETATM   49  C11 UNL     1      -7.102   5.284  -0.034  1.00  0.00     0.000 C 
HETATM   50  C12 UNL     1      -5.931   4.429  -0.358  1.00  0.00     0.005 C 
ENDBRANCH  44  45
ENDBRANCH  32  44
ENDBRANCH   1  32
TORSDOF 17
