REMARK  15 active torsions:
REMARK  status: ('A' for Active; 'I' for Inactive)
REMARK    1  A    between atoms: C2_2  and  C4_4 
REMARK    2  A    between atoms: C4_4  and  N1_5 
REMARK       I    between atoms: N1_5  and  C5_7 
REMARK    3  A    between atoms: C5_7  and  C6_9 
REMARK    4  A    between atoms: C6_9  and  N2_10 
REMARK    5  A    between atoms: C6_9  and  C30_44 
REMARK    6  A    between atoms: N2_10  and  C7_12 
REMARK    7  A    between atoms: C7_12  and  O2_13 
REMARK    8  A    between atoms: C8_15  and  C9_16 
REMARK    9  A    between atoms: C8_15  and  N3_20 
REMARK       I    between atoms: N3_20  and  C13_22 
REMARK   10  A    between atoms: C13_22  and  C14_24 
REMARK   11  A    between atoms: C14_24  and  C15_25 
REMARK   12  A    between atoms: C14_24  and  N4_28 
REMARK   13  A    between atoms: C15_25  and  C16_26 
REMARK       I    between atoms: N4_28  and  C18_29 
REMARK   14  A    between atoms: C18_29  and  C19_31 
REMARK       I    between atoms: N5_36  and  C24_37 
REMARK   15  A    between atoms: C24_37  and  C25_39 
ROOT
HETATM    1  C7  UNL     1      -2.264  -0.194  -0.546  1.00  0.00     0.168 C 
HETATM    2  C8  UNL     1      -1.188  -1.002  -0.687  1.00  0.00     0.086 C 
ENDROOT
BRANCH   2   3
HETATM    3  C9  UNL     1      -1.154  -2.350  -1.427  1.00  0.00     0.036 C 
HETATM    4  C10 UNL     1      -1.693  -3.546  -0.935  1.00  0.00    -0.085 C 
HETATM    5  C11 UNL     1      -3.051  -3.878  -0.581  1.00  0.00     0.043 C 
HETATM    6  C12 UNL     1      -1.100  -4.691  -1.844  1.00  0.00     0.043 C 
ENDBRANCH   2   3
BRANCH   2   7
HETATM    7  N3  UNL     1      -0.019  -1.087   0.117  1.00  0.00    -0.317 N 
HETATM    8  C13 UNL     1       0.600  -0.835   1.347  1.00  0.00     0.282 C 
HETATM    9  O3  UNL     1       0.057  -0.270   2.290  1.00  0.00    -0.265 OA
ATOM     10  H3  UNL     1       0.689  -1.534  -0.466  1.00  0.00     0.169 HD
BRANCH   8  11
HETATM   11  C14 UNL     1       2.038  -1.279   1.472  1.00  0.00     0.156 C 
BRANCH  11  12
HETATM   12  C15 UNL     1       2.326  -2.569   2.131  1.00  0.00     0.078 C 
BRANCH  12  13
HETATM   13  C16 UNL     1       1.890  -3.737   1.246  1.00  0.00     0.003 C 
HETATM   14  C17 UNL     1       2.086  -5.088   1.820  1.00  0.00     0.005 C 
ENDBRANCH  12  13
ENDBRANCH  11  12
BRANCH  11  15
HETATM   15  N4  UNL     1       2.898  -0.240   1.381  1.00  0.00    -0.364 NA
HETATM   16  C18 UNL     1       3.766   0.824   1.304  1.00  0.00     0.339 C 
HETATM   17  O4  UNL     1       3.763   1.838   1.967  1.00  0.00    -0.250 OA
BRANCH  16  18
HETATM   18  C19 UNL     1       4.765   0.577   0.209  1.00  0.00     0.097 C 
HETATM   19  C20 UNL     1       5.204  -0.843   0.156  1.00  0.00     0.064 C 
HETATM   20  C21 UNL     1       5.832  -1.251  -1.139  1.00  0.00     0.008 C 
HETATM   21  C22 UNL     1       5.934  -0.148  -2.159  1.00  0.00     0.021 C 
HETATM   22  C23 UNL     1       5.956   1.233  -1.719  1.00  0.00     0.132 C 
HETATM   23  N5  UNL     1       5.804   1.358  -0.215  1.00  0.00    -0.315 N 
HETATM   24  C24 UNL     1       6.650   2.322   0.365  1.00  0.00     0.228 C 
HETATM   25  O5  UNL     1       6.352   2.891   1.421  1.00  0.00    -0.273 OA
BRANCH  24  26
HETATM   26  C25 UNL     1       7.948   2.639  -0.296  1.00  0.00     0.078 C 
HETATM   27  C26 UNL     1       8.589   3.935   0.026  1.00  0.00     0.014 C 
HETATM   28  C27 UNL     1       9.103   3.818   1.405  1.00  0.00     0.001 C 
HETATM   29  C28 UNL     1       9.149   2.311   1.720  1.00  0.00     0.001 C 
HETATM   30  C29 UNL     1       9.011   1.684   0.378  1.00  0.00     0.014 C 
ENDBRANCH  24  26
ENDBRANCH  16  18
ENDBRANCH  11  15
ENDBRANCH   8  11
ENDBRANCH   2   7
BRANCH   1  31
HETATM   31  N2  UNL     1      -3.649  -0.123  -0.344  1.00  0.00    -0.331 N 
ATOM     32  H2  UNL     1      -4.061  -1.013  -0.064  1.00  0.00     0.168 HD
BRANCH  31  33
HETATM   33  C6  UNL     1      -4.578   0.902  -0.444  1.00  0.00     0.105 C 
BRANCH  33  34
HETATM   34  C5  UNL     1      -4.825   2.182   0.234  1.00  0.00     0.272 C 
HETATM   35  N1  UNL     1      -5.712   3.113  -0.454  1.00  0.00    -0.331 N 
ATOM     36  H1  UNL     1      -6.060   2.759  -1.345  1.00  0.00     0.168 HD
HETATM   37  O1  UNL     1      -4.353   2.511   1.293  1.00  0.00    -0.266 OA
BRANCH  35  38
HETATM   38  C4  UNL     1      -6.179   4.381  -0.145  1.00  0.00     0.097 C 
BRANCH  38  39
HETATM   39  C2  UNL     1      -6.903   4.787   1.020  1.00  0.00    -0.056 C 
HETATM   40  C1  UNL     1      -6.503   5.791   1.789  1.00  0.00     0.020 C 
HETATM   41  C3  UNL     1      -8.182   4.128   1.502  1.00  0.00     0.049 C 
ENDBRANCH  38  39
ENDBRANCH  35  38
ENDBRANCH  33  34
BRANCH  33  42
HETATM   42  C30 UNL     1      -5.888   0.340  -1.075  1.00  0.00    -0.048 C 
HETATM   43  C31 UNL     1      -5.701  -1.016  -1.680  1.00  0.00     0.037 C 
HETATM   44  C32 UNL     1      -6.372  -2.128  -0.933  1.00  0.00     0.004 C 
HETATM   45  C33 UNL     1      -7.733  -1.764  -0.359  1.00  0.00     0.001 C 
HETATM   46  C34 UNL     1      -7.630  -0.578   0.537  1.00  0.00     0.004 C 
HETATM   47  C35 UNL     1      -7.145   0.543  -0.377  1.00  0.00     0.037 C 
ENDBRANCH  33  42
ENDBRANCH  31  33
ENDBRANCH   1  31
BRANCH   1  48
HETATM   48  O2  UNL     1      -1.933   1.195  -0.689  1.00  0.00    -0.344 OA
ATOM     49  H2  UNL     1      -0.994   1.147  -0.826  1.00  0.00     0.219 HD
ENDBRANCH   1  48
TORSDOF 15
