REMARK  7 active torsions:
REMARK  status: ('A' for Active; 'I' for Inactive)
REMARK    1  A    between atoms: C2_2  and  N1_3 
REMARK    2  A    between atoms: N1_3  and  C3_4 
REMARK    3  A    between atoms: N1_3  and  C5_6 
REMARK    4  A    between atoms: C5_6  and  C6_7 
REMARK    5  A    between atoms: C6_7  and  C7_8 
REMARK    6  A    between atoms: C7_8  and  N2_9 
REMARK    7  A    between atoms: C8_10  and  O1_11 
ROOT
HETATM    1  N2  UNL     1      -0.226  -1.177   0.704  1.00  0.00    -0.326 N 
HETATM    2  C8  UNL     1      -0.688  -2.468   0.969  1.00  0.00     0.152 A 
HETATM    3  C9  UNL     1      -1.985  -2.829   0.906  1.00  0.00     0.040 A 
HETATM    4  C10 UNL     1      -2.345  -4.242   1.211  1.00  0.00     0.057 C 
HETATM    5  C11 UNL     1      -2.940  -1.867   0.558  1.00  0.00     0.195 A 
HETATM    6  O2  UNL     1      -4.071  -2.328   0.537  1.00  0.00    -0.287 OA
HETATM    7  C12 UNL     1      -2.526  -0.607   0.298  1.00  0.00     0.060 A 
HETATM    8  C13 UNL     1      -3.465   0.345  -0.021  1.00  0.00     0.076 A 
HETATM    9  C14 UNL     1      -4.782   0.024  -0.108  1.00  0.00     0.260 A 
HETATM   10  O3  UNL     1      -5.301  -1.066   0.071  1.00  0.00    -0.267 OA
HETATM   11  N3  UNL     1      -5.668   1.033  -0.440  1.00  0.00    -0.312 N 
ATOM     12  H3  UNL     1      -6.660   0.806  -0.509  1.00  0.00     0.170 HD
HETATM   13  C15 UNL     1      -5.292   2.270  -0.670  1.00  0.00     0.080 A 
HETATM   14  C16 UNL     1      -6.283   3.346  -1.028  1.00  0.00     0.089 C 
HETATM   15  N4  UNL     1      -3.968   2.579  -0.580  1.00  0.00    -0.345 N 
ATOM     16  H4  UNL     1      -3.672   3.539  -0.759  1.00  0.00     0.167 HD
HETATM   17  C17 UNL     1      -3.041   1.663  -0.264  1.00  0.00     0.057 A 
HETATM   18  C18 UNL     1      -1.713   1.982  -0.179  1.00  0.00    -0.026 A 
HETATM   19  C19 UNL     1      -1.230   3.360  -0.417  1.00  0.00     0.051 C 
HETATM   20  C20 UNL     1      -0.716   1.041   0.143  1.00  0.00    -0.026 A 
HETATM   21  C21 UNL     1       0.668   1.444   0.295  1.00  0.00     0.051 C 
HETATM   22  C22 UNL     1      -1.131  -0.248   0.375  1.00  0.00     0.058 A 
ENDROOT
BRANCH   1  23
HETATM   23  C7  UNL     1       1.173  -0.976   0.775  1.00  0.00     0.136 C 
BRANCH  23  24
HETATM   24  C6  UNL     1       1.945  -1.515  -0.422  1.00  0.00     0.065 C 
BRANCH  24  25
HETATM   25  C5  UNL     1       3.433  -1.413  -0.319  1.00  0.00     0.069 C 
BRANCH  25  26
HETATM   26  N1  UNL     1       4.062  -0.185  -0.281  1.00  0.00    -0.355 N 
BRANCH  26  27
HETATM   27  C2  UNL     1       4.239   0.643  -1.381  1.00  0.00     0.064 C 
HETATM   28  C1  UNL     1       3.422   0.436  -2.605  1.00  0.00     0.055 C 
ENDBRANCH  26  27
BRANCH  26  29
HETATM   29  C3  UNL     1       4.976   0.037   0.769  1.00  0.00     0.064 C 
HETATM   30  C4  UNL     1       4.836  -0.815   1.986  1.00  0.00     0.055 C 
ENDBRANCH  26  29
ENDBRANCH  25  26
ENDBRANCH  24  25
ENDBRANCH  23  24
ENDBRANCH   1  23
BRANCH   2  31
HETATM   31  O1  UNL     1       0.261  -3.448   1.321  1.00  0.00    -0.345 OA
ATOM     32  H1  UNL     1      -0.053  -4.326   1.501  1.00  0.00     0.219 HD
ENDBRANCH   2  31
TORSDOF 7
