REMARK  1 active torsions:
REMARK  status: ('A' for Active; 'I' for Inactive)
REMARK    1  A    between atoms: N1_1  and  C1_4 
ROOT
HETATM    1  C1  UNL     1      -1.560  -0.478  -0.171  1.00  0.00     0.695 A 
HETATM    2  N2  UNL     1      -1.436   0.758   0.345  1.00  0.00    -0.152 N 
ATOM      3  H2  UNL     1      -2.276   1.286   0.582  1.00  0.00     0.188 HD
HETATM    4  C2  UNL     1      -0.230   1.314   0.555  1.00  0.00     0.307 A 
HETATM    5  O1  UNL     1      -0.129   2.452   1.029  1.00  0.00    -0.263 OA
HETATM    6  C3  UNL     1       0.929   0.605   0.235  1.00  0.00     0.216 A 
HETATM    7  N3  UNL     1       2.239   0.894   0.332  1.00  0.00    -0.330 N 
ATOM      8  H3  UNL     1       2.636   1.763   0.689  1.00  0.00     0.168 HD
HETATM    9  C4  UNL     1       2.933  -0.164  -0.124  1.00  0.00     0.201 A 
HETATM   10  N4  UNL     1       2.018  -1.079  -0.490  1.00  0.00    -0.273 N 
ATOM     11  H4  UNL     1       2.240  -1.996  -0.878  1.00  0.00     0.190 HD
HETATM   12  N5  UNL     1       0.785  -0.629  -0.279  1.00  0.00    -0.159 N 
HETATM   13  N6  UNL     1      -0.429  -1.143  -0.470  1.00  0.00    -0.109 N 
ATOM     14  H6  UNL     1      -0.505  -2.082  -0.860  1.00  0.00     0.208 HD
ENDROOT
BRANCH   1  15
HETATM   15  N1  UNL     1      -2.735  -1.019  -0.375  1.00  0.00    -0.233 N 
ATOM     16  H12 UNL     1      -3.592  -0.515  -0.148  1.00  0.00     0.174 HD
ATOM     17  H11 UNL     1      -2.829  -1.956  -0.766  1.00  0.00     0.174 HD
ENDBRANCH   1  15
TORSDOF 1
