REMARK  15 active torsions:
REMARK  status: ('A' for Active; 'I' for Inactive)
REMARK    1  A    between atoms: N1_1  and  C1_4 
REMARK    2  A    between atoms: C3_8  and  C4_9 
REMARK    3  A    between atoms: C4_9  and  N3_10 
REMARK    4  A    between atoms: C4_9  and  C7_16 
REMARK    5  A    between atoms: N3_10  and  C5_12 
REMARK    6  A    between atoms: C5_12  and  C6_13 
REMARK    7  A    between atoms: C7_16  and  O3_17 
REMARK    8  A    between atoms: C7_16  and  C8_19 
REMARK    9  A    between atoms: C8_19  and  C9_21 
REMARK       I    between atoms: C9_21  and  N4_23 
REMARK   10  A    between atoms: N4_23  and  C10_25 
REMARK   11  A    between atoms: C11_28  and  C12_29 
REMARK   12  A    between atoms: C12_29  and  N6_30 
REMARK   13  A    between atoms: C12_29  and  S1_45 
REMARK   14  A    between atoms: C14_32  and  N7_33 
REMARK   15  A    between atoms: C18_38  and  O7_39 
ROOT
HETATM    1  C10 UNL     1      -0.221  -1.364  -0.761  1.00  0.00     0.129 A 
HETATM    2  N5  UNL     1       1.032  -0.981  -1.121  1.00  0.00    -0.342 N 
ATOM      3  H5  UNL     1       1.189  -0.102  -1.614  1.00  0.00     0.167 HD
HETATM    4  C11 UNL     1       2.058  -1.791  -0.811  1.00  0.00     0.055 A 
HETATM    5  C19 UNL     1       1.870  -2.979  -0.146  1.00  0.00     0.061 A 
HETATM    6  C20 UNL     1       0.589  -3.405   0.241  1.00  0.00     0.072 A 
HETATM    7  N10 UNL     1       0.280  -4.505   0.873  1.00  0.00    -0.293 N 
ATOM      8  H10 UNL     1       1.013  -5.163   1.139  1.00  0.00     0.187 HD
HETATM    9  N11 UNL     1      -0.956  -4.762   1.162  1.00  0.00    -0.269 N 
ATOM     10  H11 UNL     1      -1.337  -5.575   1.646  1.00  0.00     0.195 HD
HETATM   11  S2  UNL     1      -1.782  -3.429   0.544  1.00  0.00     0.007 SA
HETATM   12  C21 UNL     1      -0.445  -2.569  -0.084  1.00  0.00     0.095 A 
ENDROOT
BRANCH   1  13
HETATM   13  N4  UNL     1      -1.238  -0.655  -1.021  1.00  0.00    -0.305 N 
HETATM   14  C9  UNL     1      -2.571  -0.910  -0.721  1.00  0.00     0.295 C 
HETATM   15  O5  UNL     1      -3.235  -1.607  -1.546  1.00  0.00    -0.264 OA
ATOM     16  H4  UNL     1      -1.055   0.218  -1.516  1.00  0.00     0.170 HD
BRANCH  14  17
HETATM   17  C8  UNL     1      -3.267  -0.436   0.469  1.00  0.00     0.247 C 
HETATM   18  O4  UNL     1      -2.573   0.257   1.287  1.00  0.00    -0.284 OA
BRANCH  17  19
HETATM   19  C7  UNL     1      -4.701  -0.741   0.722  1.00  0.00     0.225 C 
BRANCH  19  20
HETATM   20  C4  UNL     1      -5.584  -0.040  -0.276  1.00  0.00     0.155 C 
BRANCH  20  21
HETATM   21  C3  UNL     1      -5.291   1.441  -0.271  1.00  0.00     0.027 A 
HETATM   22  C2  UNL     1      -5.754   2.383   0.616  1.00  0.00     0.107 A 
HETATM   23  N2  UNL     1      -5.372   3.616   0.437  1.00  0.00    -0.346 N 
HETATM   24  C1  UNL     1      -4.565   3.898  -0.581  1.00  0.00     0.142 A 
ATOM     25  H2  UNL     1      -5.687   4.353   1.068  1.00  0.00     0.167 HD
HETATM   26  S3  UNL     1      -4.328   2.379  -1.320  1.00  0.00    -0.055 SA
BRANCH  24  27
HETATM   27  N1  UNL     1      -4.080   5.077  -0.915  1.00  0.00    -0.380 N 
ATOM     28  H12 UNL     1      -4.222   5.985  -0.473  1.00  0.00     0.158 HD
ATOM     29  H11 UNL     1      -3.461   5.293  -1.696  1.00  0.00     0.158 HD
ENDBRANCH  24  27
ENDBRANCH  20  21
BRANCH  20  30
HETATM   30  N3  UNL     1      -6.974  -0.200  -0.040  1.00  0.00    -0.401 N 
ATOM     31  H3  UNL     1      -7.588   0.586   0.173  1.00  0.00     0.154 HD
BRANCH  30  32
HETATM   32  C5  UNL     1      -7.451  -1.550  -0.123  1.00  0.00     0.228 C 
BRANCH  32  33
HETATM   33  C6  UNL     1      -8.914  -1.542   0.147  1.00  0.00     0.190 C 
HETATM   34  O1  UNL     1      -9.534  -0.477   0.399  1.00  0.00    -0.647 OA
HETATM   35  O2  UNL     1      -9.673  -2.714   0.136  1.00  0.00    -0.647 OA
ENDBRANCH  32  33
ENDBRANCH  30  32
ENDBRANCH  20  30
ENDBRANCH  19  20
BRANCH  19  36
HETATM   36  O3  UNL     1      -5.033  -0.166   1.975  1.00  0.00    -0.385 OA
ATOM     37  H3  UNL     1      -4.476  -0.608   2.605  1.00  0.00     0.210 HD
ENDBRANCH  19  36
ENDBRANCH  17  19
ENDBRANCH  14  17
ENDBRANCH   1  13
BRANCH   4  38
HETATM   38  C12 UNL     1       3.470  -1.410  -1.208  1.00  0.00     0.302 C 
BRANCH  38  39
HETATM   39  N6  UNL     1       3.971  -0.294  -0.485  1.00  0.00    -0.257 N 
HETATM   40  C13 UNL     1       5.228  -0.126  -0.044  1.00  0.00     0.163 A 
HETATM   41  C14 UNL     1       5.297   1.092   0.610  1.00  0.00     0.139 A 
HETATM   42  N8  UNL     1       4.079   1.629   0.547  1.00  0.00    -0.270 N 
HETATM   43  N9  UNL     1       3.312   0.784  -0.109  1.00  0.00    -0.237 N 
ATOM     44  H8  UNL     1       3.794   2.528   0.935  1.00  0.00     0.190 HD
ATOM     45  H9  UNL     1       2.324   0.944  -0.304  1.00  0.00     0.208 HD
BRANCH  41  46
HETATM   46  N7  UNL     1       6.483   1.637   1.225  1.00  0.00    -0.332 N 
HETATM   47  C15 UNL     1       6.500   2.900   1.928  1.00  0.00     0.135 C 
HETATM   48  C16 UNL     1       7.910   3.088   2.382  1.00  0.00     0.103 C 
HETATM   49  C17 UNL     1       8.719   2.078   1.652  1.00  0.00     0.176 C 
HETATM   50  O6  UNL     1       9.929   2.121   1.449  1.00  0.00    -0.293 OA
HETATM   51  C18 UNL     1       7.781   1.016   1.224  1.00  0.00     0.292 C 
BRANCH  51  52
HETATM   52  O7  UNL     1       8.121   0.649  -0.080  1.00  0.00    -0.369 OA
ATOM     53  H7  UNL     1       8.978   0.239  -0.081  1.00  0.00     0.212 HD
ENDBRANCH  51  52
ENDBRANCH  41  46
ENDBRANCH  38  39
BRANCH  38  54
HETATM   54  S1  UNL     1       3.496  -1.214  -2.967  1.00  0.00     0.133 S 
HETATM   55  O8  UNL     1       2.837  -2.369  -3.621  1.00  0.00    -0.593 OA
HETATM   56  O9  UNL     1       2.751   0.039  -3.344  1.00  0.00    -0.593 OA
HETATM   57  O10 UNL     1       5.100  -1.088  -3.518  1.00  0.00    -0.593 OA
ENDBRANCH  38  54
ENDBRANCH   4  38
TORSDOF 15
