REMARK  14 active torsions:
REMARK  status: ('A' for Active; 'I' for Inactive)
REMARK    1  A    between atoms: C2_2  and  O1_3 
REMARK    2  A    between atoms: O1_3  and  C3_4 
REMARK    3  A    between atoms: C3_4  and  C5_6 
REMARK    4  A    between atoms: C3_4  and  N6_43 
REMARK    5  A    between atoms: C5_6  and  N1_7 
REMARK    6  A    between atoms: C5_6  and  C27_40 
REMARK    7  A    between atoms: N1_7  and  S1_9 
REMARK    8  A    between atoms: S1_9  and  C6_12 
REMARK    9  A    between atoms: C13_21  and  N3_22 
REMARK   10  A    between atoms: N3_22  and  C14_24 
REMARK   11  A    between atoms: C14_24  and  C15_25 
REMARK   12  A    between atoms: C15_25  and  C16_26 
REMARK   13  A    between atoms: C16_26  and  N4_27 
REMARK   14  A    between atoms: C19_30  and  N5_31 
ROOT
HETATM    1  C6  UNL     1      -2.517  -1.863   1.074  1.00  0.00     0.105 A 
HETATM    2  C7  UNL     1      -2.691  -3.232   0.965  1.00  0.00    -0.037 A 
HETATM    3  C8  UNL     1      -3.995  -3.884   1.113  1.00  0.00     0.050 C 
HETATM    4  C9  UNL     1      -1.528  -3.964   0.701  1.00  0.00     0.017 A 
HETATM    5  C10 UNL     1      -0.289  -3.409   0.554  1.00  0.00    -0.033 A 
HETATM    6  C11 UNL     1       0.835  -4.327   0.275  1.00  0.00     0.050 C 
HETATM    7  C12 UNL     1      -0.124  -2.012   0.668  1.00  0.00     0.059 A 
HETATM    8  N2  UNL     1       0.996  -1.344   0.563  1.00  0.00    -0.335 N 
ATOM      9  H2  UNL     1       1.873  -1.828   0.370  1.00  0.00     0.168 HD
HETATM   10  C13 UNL     1       0.972  -0.020   0.712  1.00  0.00     0.145 A 
HETATM   11  S2  UNL     1      -0.680   0.300   1.009  1.00  0.00    -0.051 SA
HETATM   12  C26 UNL     1      -1.264  -1.301   0.926  1.00  0.00     0.059 A 
ENDROOT
BRANCH   1  13
HETATM   13  S1  UNL     1      -3.938  -0.863   1.448  1.00  0.00     0.265 S 
HETATM   14  O2  UNL     1      -3.368   0.411   2.056  1.00  0.00    -0.200 OA
HETATM   15  O3  UNL     1      -4.739  -1.535   2.508  1.00  0.00    -0.200 OA
BRANCH  13  16
HETATM   16  N1  UNL     1      -4.774  -0.611   0.003  1.00  0.00    -0.279 N 
ATOM     17  H1  UNL     1      -5.181  -1.394  -0.508  1.00  0.00     0.179 HD
BRANCH  16  18
HETATM   18  C5  UNL     1      -4.900   0.743  -0.493  1.00  0.00     0.076 C 
BRANCH  18  19
HETATM   19  C3  UNL     1      -6.265   1.260  -0.544  1.00  0.00     0.172 C 
HETATM   20  C4  UNL     1      -6.557   2.536  -1.263  1.00  0.00     0.078 C 
BRANCH  19  21
HETATM   21  O1  UNL     1      -6.765   1.340   0.759  1.00  0.00    -0.356 OA
BRANCH  21  22
HETATM   22  C2  UNL     1      -6.492   2.206   1.675  1.00  0.00     0.167 C 
HETATM   23  C1  UNL     1      -6.804   3.678   1.478  1.00  0.00     0.033 C 
ENDBRANCH  21  22
ENDBRANCH  19  21
BRANCH  19  24
HETATM   24  N6  UNL     1      -7.205   0.305  -1.074  1.00  0.00    -0.378 N 
HETATM   25  C30 UNL     1      -7.383  -0.039  -2.377  1.00  0.00     0.120 C 
HETATM   26  C31 UNL     1      -7.202  -1.559  -2.551  1.00  0.00     0.020 C 
HETATM   27  C32 UNL     1      -8.050  -2.287  -1.531  1.00  0.00     0.003 C 
HETATM   28  C33 UNL     1      -8.906  -1.368  -0.726  1.00  0.00     0.020 C 
HETATM   29  C34 UNL     1      -8.262  -0.122  -0.236  1.00  0.00     0.120 C 
ENDBRANCH  19  24
ENDBRANCH  18  19
BRANCH  18  30
HETATM   30  C27 UNL     1      -3.857   0.988  -1.488  1.00  0.00    -0.059 C 
HETATM   31  C28 UNL     1      -3.980   0.587  -2.894  1.00  0.00     0.045 C 
HETATM   32  C29 UNL     1      -3.253   2.390  -1.447  1.00  0.00     0.045 C 
ENDBRANCH  18  30
ENDBRANCH  16  18
ENDBRANCH  13  16
ENDBRANCH   1  13
BRANCH  10  33
HETATM   33  N3  UNL     1       1.976   0.824   0.650  1.00  0.00    -0.370 N 
ATOM     34  H3  UNL     1       1.780   1.815   0.787  1.00  0.00     0.161 HD
BRANCH  33  35
HETATM   35  C14 UNL     1       3.341   0.430   0.399  1.00  0.00     0.127 C 
BRANCH  35  36
HETATM   36  C15 UNL     1       4.104   0.132   1.639  1.00  0.00     0.064 C 
BRANCH  36  37
HETATM   37  C16 UNL     1       5.514  -0.282   1.483  1.00  0.00     0.064 C 
BRANCH  37  38
HETATM   38  N4  UNL     1       6.436   0.567   0.879  1.00  0.00    -0.374 N 
HETATM   39  C17 UNL     1       6.366   0.858  -0.497  1.00  0.00     0.129 C 
HETATM   40  C18 UNL     1       7.783   0.641  -1.061  1.00  0.00     0.056 C 
HETATM   41  C19 UNL     1       8.790   1.506  -0.339  1.00  0.00     0.229 C 
HETATM   42  C24 UNL     1       8.096   2.265   0.770  1.00  0.00     0.080 C 
HETATM   43  C25 UNL     1       7.386   1.263   1.654  1.00  0.00     0.065 C 
BRANCH  41  44
HETATM   44  N5  UNL     1       9.837   0.629   0.174  1.00  0.00     0.093 N 
HETATM   45  C20 UNL     1      10.832   1.372   0.925  1.00  0.00     0.273 C 
HETATM   46  C21 UNL     1      12.049   0.446   0.882  1.00  0.00     0.032 C 
HETATM   47  C22 UNL     1      11.934  -0.264  -0.435  1.00  0.00     0.032 C 
HETATM   48  C23 UNL     1      10.616   0.223  -1.002  1.00  0.00     0.273 C 
ENDBRANCH  41  44
ENDBRANCH  37  38
ENDBRANCH  36  37
ENDBRANCH  35  36
ENDBRANCH  33  35
ENDBRANCH  10  33
TORSDOF 14
