REMARK  7 active torsions:
REMARK  status: ('A' for Active; 'I' for Inactive)
REMARK    1  A    between atoms: N1_1  and  C1_4 
REMARK    2  A    between atoms: C3_8  and  C4_9 
REMARK    3  A    between atoms: N3_11  and  C6_12 
REMARK    4  A    between atoms: C7_15  and  C8_16 
REMARK    5  A    between atoms: C8_16  and  C9_17 
REMARK    6  A    between atoms: C9_17  and  C10_20 
REMARK    7  A    between atoms: C12_27  and  N6_28 
ROOT
HETATM    1  C6  UNL     1       1.106   0.386   0.804  1.00  0.00     0.148 A 
HETATM    2  N4  UNL     1       2.072  -0.282   0.113  1.00  0.00    -0.342 N 
ATOM      3  H4  UNL     1       1.882  -0.635  -0.825  1.00  0.00     0.167 HD
HETATM    4  C7  UNL     1       3.277  -0.472   0.676  1.00  0.00     0.029 A 
HETATM    5  C11 UNL     1       3.555  -0.007   1.930  1.00  0.00     0.115 A 
HETATM    6  N5  UNL     1       2.597   0.651   2.605  1.00  0.00    -0.348 N 
ATOM      7  H5  UNL     1       2.791   1.002   3.543  1.00  0.00     0.167 HD
HETATM    8  C12 UNL     1       1.392   0.850   2.061  1.00  0.00     0.143 A 
ENDROOT
BRANCH   1   9
HETATM    9  N3  UNL     1      -0.161   0.558   0.155  1.00  0.00    -0.359 N 
HETATM   10  C5  UNL     1      -1.404   0.029   0.671  1.00  0.00     0.161 C 
HETATM   11  C4  UNL     1      -2.502   0.512  -0.245  1.00  0.00     0.175 C 
HETATM   12  O1  UNL     1      -2.190   0.019  -1.528  1.00  0.00    -0.378 OA
HETATM   13  C14 UNL     1      -1.208   0.813  -2.059  1.00  0.00     0.188 C 
HETATM   14  C13 UNL     1      -0.194   1.292  -1.071  1.00  0.00     0.151 C 
BRANCH  11  15
HETATM   15  C3  UNL     1      -3.839  -0.004   0.115  1.00  0.00     0.004 A 
HETATM   16  C2  UNL     1      -4.171  -0.540   1.328  1.00  0.00     0.117 A 
HETATM   17  N2  UNL     1      -5.432  -0.980   1.540  1.00  0.00    -0.202 N 
HETATM   18  C1  UNL     1      -6.396  -0.919   0.605  1.00  0.00     0.675 A 
ATOM     19  H2  UNL     1      -5.662  -1.376   2.451  1.00  0.00     0.183 HD
HETATM   20  N7  UNL     1      -6.069  -0.393  -0.586  1.00  0.00    -0.202 N 
HETATM   21  C15 UNL     1      -4.831   0.058  -0.844  1.00  0.00     0.117 A 
ATOM     22  H7  UNL     1      -6.780  -0.334  -1.315  1.00  0.00     0.183 HD
BRANCH  18  23
HETATM   23  N1  UNL     1      -7.606  -1.358   0.853  1.00  0.00    -0.234 N 
ATOM     24  H12 UNL     1      -7.854  -1.758   1.758  1.00  0.00     0.174 HD
ATOM     25  H11 UNL     1      -8.337  -1.312   0.144  1.00  0.00     0.174 HD
ENDBRANCH  18  23
ENDBRANCH  11  15
ENDBRANCH   1   9
BRANCH   8  26
HETATM   26  N6  UNL     1       0.447   1.485   2.692  1.00  0.00    -0.382 N 
ATOM     27  H62 UNL     1      -0.472   1.637   2.277  1.00  0.00     0.157 HD
ATOM     28  H61 UNL     1       0.660   1.830   3.628  1.00  0.00     0.157 HD
ENDBRANCH   8  26
BRANCH   4  29
HETATM   29  C8  UNL     1       4.332  -1.200  -0.075  1.00  0.00     0.110 C 
BRANCH  29  30
HETATM   30  C9  UNL     1       5.182  -0.258  -0.911  1.00  0.00     0.215 C 
HETATM   31 CL1  UNL     1       4.137   0.583  -2.078  1.00  0.00    -0.091 Cl
HETATM   32 CL2  UNL     1       5.984   0.874   0.196  1.00  0.00    -0.091 Cl
BRANCH  30  33
HETATM   33  C10 UNL     1       6.205  -1.132  -1.630  1.00  0.00     0.422 C 
HETATM   34  F1  UNL     1       7.038  -0.371  -2.426  1.00  0.00    -0.168 F 
HETATM   35  F2  UNL     1       6.969  -1.736  -0.639  1.00  0.00    -0.168 F 
HETATM   36  F3  UNL     1       5.512  -2.083  -2.349  1.00  0.00    -0.168 F 
ENDBRANCH  30  33
ENDBRANCH  29  30
ENDBRANCH   4  29
TORSDOF 7
