REMARK  9 active torsions:
REMARK  status: ('A' for Active; 'I' for Inactive)
REMARK    1  A    between atoms: C3_3  and  C11_11 
REMARK    2  A    between atoms: C4_4  and  C5_5 
REMARK    3  A    between atoms: C5_5  and  C6_6 
REMARK    4  A    between atoms: C6_6  and  C7_7 
REMARK    5  A    between atoms: C16_17  and  O1_18 
REMARK    6  A    between atoms: O1_18  and  C17_19 
REMARK    7  A    between atoms: C18_20  and  O2_21 
REMARK    8  A    between atoms: C20_25  and  O4_26 
REMARK    9  A    between atoms: C23_30  and  O5_31 
ROOT
HETATM    1  C1  UNL     1       3.490  -1.941   2.179  1.00  0.00     0.017 C 
HETATM    2  C2  UNL     1       2.789  -1.382   1.380  1.00  0.00    -0.082 C 
HETATM    3  C3  UNL     1       1.908  -0.702   0.416  1.00  0.00    -0.003 C 
HETATM    4  C4  UNL     1       2.490  -0.246  -0.655  1.00  0.00    -0.010 C 
ENDROOT
BRANCH   3   5
HETATM    5  C11 UNL     1       0.466  -0.597   0.710  1.00  0.00     0.056 C 
HETATM    6  C12 UNL     1      -0.090  -1.924   1.059  1.00  0.00     0.017 C 
HETATM    7  C13 UNL     1      -1.555  -1.970   0.689  1.00  0.00    -0.006 C 
HETATM    8  C14 UNL     1      -2.165  -3.108   1.467  1.00  0.00     0.015 C 
HETATM    9  C21 UNL     1      -2.159  -0.642   0.983  1.00  0.00     0.031 C 
HETATM   10  C15 UNL     1      -2.602  -2.713   2.855  1.00  0.00     0.077 C 
HETATM   11  S1  UNL     1      -4.033  -1.583   2.624  1.00  0.00    -0.137 SA
HETATM   12  C16 UNL     1      -3.634  -0.634   1.127  1.00  0.00     0.188 C 
HETATM   13  C22 UNL     1      -1.693   0.363  -0.044  1.00  0.00     0.041 C 
HETATM   14  C23 UNL     1      -0.240   0.077  -0.435  1.00  0.00     0.127 C 
BRANCH  12  15
HETATM   15  O1  UNL     1      -4.133   0.628   1.136  1.00  0.00    -0.362 OA
BRANCH  15  16
HETATM   16  C17 UNL     1      -5.070   0.919   0.175  1.00  0.00     0.208 C 
HETATM   17  C18 UNL     1      -4.694   2.211  -0.508  1.00  0.00     0.175 C 
HETATM   18  C19 UNL     1      -6.050   2.743  -0.913  1.00  0.00     0.205 C 
HETATM   19  O3  UNL     1      -6.979   2.242  -0.051  1.00  0.00    -0.356 OA
HETATM   20  C20 UNL     1      -6.406   1.339   0.797  1.00  0.00     0.288 C 
BRANCH  17  21
HETATM   21  O2  UNL     1      -4.129   3.106   0.400  1.00  0.00    -0.391 OA
ATOM     22  H2  UNL     1      -3.892   3.919  -0.030  1.00  0.00     0.210 HD
ENDBRANCH  17  21
BRANCH  20  23
HETATM   23  O4  UNL     1      -7.208   0.200   0.903  1.00  0.00    -0.369 OA
ATOM     24  H4  UNL     1      -8.036   0.460   1.289  1.00  0.00     0.212 HD
ENDBRANCH  20  23
ENDBRANCH  15  16
ENDBRANCH  12  15
BRANCH  14  25
HETATM   25  O5  UNL     1      -0.205  -0.679  -1.601  1.00  0.00    -0.395 OA
ATOM     26  H5  UNL     1      -0.651  -0.253  -2.324  1.00  0.00     0.210 HD
ENDBRANCH  14  25
ENDBRANCH   3   5
BRANCH   4  27
HETATM   27  C5  UNL     1       3.940  -0.412  -0.870  1.00  0.00     0.032 C 
BRANCH  27  28
HETATM   28  C6  UNL     1       4.527   0.991  -0.987  1.00  0.00     0.037 C 
BRANCH  28  29
HETATM   29  C7  UNL     1       5.988   0.913  -1.206  1.00  0.00    -0.088 C 
HETATM   30  C8  UNL     1       6.807   0.240  -0.157  1.00  0.00     0.043 C 
HETATM   31  C9  UNL     1       6.510   1.428  -2.296  1.00  0.00    -0.029 C 
HETATM   32  C10 UNL     1       7.972   1.352  -2.518  1.00  0.00     0.036 C 
ENDBRANCH  28  29
ENDBRANCH  27  28
ENDBRANCH   4  27
TORSDOF 9
