REMARK  10 active torsions:
REMARK  status: ('A' for Active; 'I' for Inactive)
REMARK       I    between atoms: C1_2  and  N1_3 
REMARK    1  A    between atoms: C1_2  and  C8_13 
REMARK    2  A    between atoms: N1_3  and  C2_5 
REMARK    3  A    between atoms: C7_10  and  O2_11 
REMARK    4  A    between atoms: C11_16  and  N2_17 
REMARK    5  A    between atoms: C14_22  and  N4_23 
REMARK    6  A    between atoms: N4_23  and  C15_25 
REMARK    7  A    between atoms: C15_25  and  C16_26 
REMARK    8  A    between atoms: C16_26  and  S1_27 
REMARK    9  A    between atoms: S1_27  and  C17_28 
REMARK   10  A    between atoms: C17_28  and  C18_29 
ROOT
HETATM    1  N2  UNL     1      -0.827   1.175   0.551  1.00  0.00    -0.300 N 
HETATM    2  C12 UNL     1      -0.591   2.448   0.890  1.00  0.00     0.188 A 
HETATM    3  N3  UNL     1       0.724   2.722   0.815  1.00  0.00    -0.346 N 
ATOM      4  H3  UNL     1       1.170   3.616   1.020  1.00  0.00     0.167 HD
HETATM    5  C13 UNL     1       1.340   1.592   0.418  1.00  0.00     0.122 A 
HETATM    6  C14 UNL     1       2.693   1.333   0.185  1.00  0.00     0.133 A 
HETATM    7  N5  UNL     1       2.982   0.084  -0.209  1.00  0.00    -0.337 N 
ATOM      8  H5  UNL     1       3.958  -0.150  -0.392  1.00  0.00     0.168 HD
HETATM    9  C24 UNL     1       2.064  -0.870  -0.375  1.00  0.00     0.183 A 
HETATM   10  N6  UNL     1       0.769  -0.587  -0.143  1.00  0.00    -0.336 N 
ATOM     11  H6  UNL     1       0.070  -1.319  -0.273  1.00  0.00     0.168 HD
HETATM   12  C25 UNL     1       0.369   0.638   0.257  1.00  0.00     0.142 A 
ENDROOT
BRANCH   1  13
HETATM   13  C11 UNL     1      -2.079   0.447   0.490  1.00  0.00     0.231 C 
HETATM   14  C10 UNL     1      -2.174  -0.574   1.602  1.00  0.00     0.057 C 
HETATM   15  C9  UNL     1      -3.692  -0.811   1.606  1.00  0.00     0.046 C 
HETATM   16  C8  UNL     1      -4.169   0.597   1.317  1.00  0.00     0.216 C 
HETATM   17  O3  UNL     1      -3.138   1.286   0.743  1.00  0.00    -0.352 OA
BRANCH  16  18
HETATM   18  C1  UNL     1      -5.361   0.662   0.467  1.00  0.00     0.247 C 
HETATM   19  O1  UNL     1      -5.317   1.298  -0.641  1.00  0.00    -0.271 OA
HETATM   20  N1  UNL     1      -6.601   0.055   0.792  1.00  0.00    -0.352 N 
ATOM     21  H1  UNL     1      -6.675  -0.462   1.668  1.00  0.00     0.163 HD
BRANCH  20  22
HETATM   22  C2  UNL     1      -7.765   0.136  -0.063  1.00  0.00     0.113 C 
HETATM   23  C3  UNL     1      -8.803   0.923   0.702  1.00  0.00     0.028 C 
HETATM   24  C4  UNL     1     -10.036   0.105   1.009  1.00  0.00     0.002 C 
HETATM   25  C5  UNL     1     -10.569  -0.401  -0.310  1.00  0.00     0.003 C 
HETATM   26  C6  UNL     1      -9.599  -1.348  -0.940  1.00  0.00     0.034 C 
HETATM   27  C7  UNL     1      -8.198  -1.239  -0.429  1.00  0.00     0.140 C 
BRANCH  27  28
HETATM   28  O2  UNL     1      -7.347  -1.703  -1.448  1.00  0.00    -0.394 OA
ATOM     29  H2  UNL     1      -7.624  -2.581  -1.682  1.00  0.00     0.210 HD
ENDBRANCH  27  28
ENDBRANCH  20  22
ENDBRANCH  16  18
ENDBRANCH   1  13
BRANCH   6  30
HETATM   30  N4  UNL     1       3.576   2.253   0.347  1.00  0.00    -0.374 N 
ATOM     31  H4  UNL     1       3.328   3.195   0.648  1.00  0.00     0.161 HD
BRANCH  30  32
HETATM   32  C15 UNL     1       4.981   1.858   0.069  1.00  0.00     0.131 C 
BRANCH  32  33
HETATM   33  C16 UNL     1       5.146   2.033  -1.404  1.00  0.00     0.093 C 
BRANCH  33  34
HETATM   34  S1  UNL     1       6.645   1.742  -2.200  1.00  0.00    -0.167 SA
BRANCH  34  35
HETATM   35  C17 UNL     1       7.421   0.231  -2.465  1.00  0.00     0.078 C 
BRANCH  35  36
HETATM   36  C18 UNL     1       8.102  -0.500  -1.395  1.00  0.00    -0.005 C 
HETATM   37  C19 UNL     1       7.316  -0.938  -0.226  1.00  0.00     0.005 C 
HETATM   38  C20 UNL     1       8.058  -2.107   0.467  1.00  0.00     0.000 C 
HETATM   39  C21 UNL     1       9.546  -1.875   0.319  1.00  0.00     0.000 C 
HETATM   40  C22 UNL     1       9.872  -0.409   0.336  1.00  0.00     0.000 C 
HETATM   41  C23 UNL     1       9.353   0.266  -0.926  1.00  0.00     0.005 C 
ENDBRANCH  35  36
ENDBRANCH  34  35
ENDBRANCH  33  34
ENDBRANCH  32  33
ENDBRANCH  30  32
ENDBRANCH   6  30
TORSDOF 10
