REMARK  12 active torsions:
REMARK  status: ('A' for Active; 'I' for Inactive)
REMARK    1  A    between atoms: C2_2  and  C3_3 
REMARK    2  A    between atoms: C3_3  and  O1_4 
REMARK    3  A    between atoms: O1_4  and  C4_5 
REMARK    4  A    between atoms: C4_5  and  O2_6 
REMARK    5  A    between atoms: O2_6  and  C5_7 
REMARK    6  A    between atoms: C5_7  and  C6_8 
REMARK    7  A    between atoms: C6_8  and  O3_9 
REMARK    8  A    between atoms: C14_18  and  C15_19 
REMARK    9  A    between atoms: C15_19  and  O4_20 
REMARK   10  A    between atoms: C15_19  and  O5_22 
REMARK   11  A    between atoms: O5_22  and  S1_23 
REMARK   12  A    between atoms: C23_34  and  O9_35 
ROOT
HETATM    1  C1  UNL     1      -2.376   1.177   1.460  1.00  0.00     0.025 C 
HETATM    2  C2  UNL     1      -2.191   0.022   0.485  1.00  0.00     0.027 C 
HETATM    3  C7  UNL     1      -0.847  -0.554   0.764  1.00  0.00    -0.062 C 
HETATM    4  C8  UNL     1      -0.403  -1.094   1.872  1.00  0.00    -0.022 C 
HETATM    5  C9  UNL     1       0.990  -1.525   1.675  1.00  0.00     0.033 C 
HETATM    6  C10 UNL     1       1.149  -1.614   0.177  1.00  0.00     0.006 C 
HETATM    7  C11 UNL     1       2.529  -1.575  -0.316  1.00  0.00    -0.001 C 
HETATM    8  C12 UNL     1       3.496  -2.125   0.700  1.00  0.00     0.006 C 
HETATM    9  C13 UNL     1       4.394  -0.932   1.058  1.00  0.00     0.011 C 
HETATM   10  C14 UNL     1       4.457  -0.246  -0.266  1.00  0.00     0.050 C 
HETATM   11  C16 UNL     1       3.049  -0.227  -0.751  1.00  0.00    -0.032 C 
HETATM   12  C17 UNL     1       3.118  -0.123  -2.283  1.00  0.00     0.016 C 
HETATM   13  C18 UNL     1       2.262   0.899  -0.183  1.00  0.00     0.011 C 
HETATM   14  C19 UNL     1       0.781   0.796  -0.411  1.00  0.00     0.015 C 
HETATM   15  C20 UNL     1       0.218  -0.566  -0.309  1.00  0.00    -0.012 C 
HETATM   16  C21 UNL     1      -0.513  -1.050  -1.538  1.00  0.00     0.017 C 
HETATM   17  C22 UNL     1      -1.585  -0.114  -1.969  1.00  0.00     0.034 C 
HETATM   18  C23 UNL     1      -2.365   0.545  -0.893  1.00  0.00     0.132 C 
ENDROOT
BRANCH   2  19
HETATM   19  C3  UNL     1      -3.294  -0.971   0.816  1.00  0.00     0.186 C 
BRANCH  19  20
HETATM   20  O1  UNL     1      -4.530  -0.356   0.649  1.00  0.00    -0.366 OA
BRANCH  20  21
HETATM   21  C4  UNL     1      -5.587  -1.183   0.927  1.00  0.00     0.337 C 
BRANCH  21  22
HETATM   22  O2  UNL     1      -6.764  -0.465   0.727  1.00  0.00    -0.365 OA
BRANCH  22  23
HETATM   23  C5  UNL     1      -6.881  -0.010  -0.579  1.00  0.00     0.196 C 
BRANCH  23  24
HETATM   24  C6  UNL     1      -8.185   0.751  -0.684  1.00  0.00     0.190 C 
BRANCH  24  25
HETATM   25  O3  UNL     1      -8.182   1.826   0.197  1.00  0.00    -0.399 OA
ATOM     26  H3  UNL     1      -9.001   2.304   0.131  1.00  0.00     0.209 HD
ENDBRANCH  24  25
ENDBRANCH  23  24
ENDBRANCH  22  23
ENDBRANCH  21  22
ENDBRANCH  20  21
ENDBRANCH  19  20
ENDBRANCH   2  19
BRANCH  18  27
HETATM   27  O9  UNL     1      -2.215   1.950  -0.974  1.00  0.00    -0.394 OA
ATOM     28  H9  UNL     1      -2.326   2.285  -1.856  1.00  0.00     0.210 HD
ENDBRANCH  18  27
BRANCH  10  29
HETATM   29  C15 UNL     1       5.187   1.048  -0.281  1.00  0.00     0.283 C 
BRANCH  29  30
HETATM   30  O4  UNL     1       5.153   1.551  -1.579  1.00  0.00    -0.370 OA
ATOM     31  H4  UNL     1       5.620   2.378  -1.589  1.00  0.00     0.212 HD
ENDBRANCH  29  30
BRANCH  29  32
HETATM   32  O5  UNL     1       4.724   2.009   0.561  1.00  0.00    -0.224 OA
BRANCH  32  33
HETATM   33  S1  UNL     1       5.970   2.469   1.585  1.00  0.00     0.254 S 
HETATM   34  O6  UNL     1       5.956   1.715   2.871  1.00  0.00    -0.572 OA
HETATM   35  O7  UNL     1       5.901   3.943   1.908  1.00  0.00    -0.572 OA
HETATM   36  O8  UNL     1       7.454   2.204   0.827  1.00  0.00    -0.572 OA
ENDBRANCH  32  33
ENDBRANCH  29  32
ENDBRANCH  10  29
TORSDOF 12
