REMARK  10 active torsions:
REMARK  status: ('A' for Active; 'I' for Inactive)
REMARK    1  A    between atoms: C2_2  and  C5_5 
REMARK    2  A    between atoms: C5_5  and  C6_6 
REMARK    3  A    between atoms: C6_6  and  N1_7 
REMARK    4  A    between atoms: C7_12  and  C8_13 
REMARK    5  A    between atoms: C8_13  and  C9_14 
REMARK    6  A    between atoms: C9_14  and  C10_15 
REMARK    7  A    between atoms: C18_28  and  C19_29 
REMARK    8  A    between atoms: C19_29  and  O2_30 
REMARK    9  A    between atoms: C23_35  and  C24_36 
REMARK   10  A    between atoms: C24_36  and  C25_37 
ROOT
HETATM    1  C10 UNL     1      -1.413  -0.578  -0.418  1.00  0.00     0.047 C 
HETATM    2  N4  UNL     1      -1.620  -1.351  -1.626  1.00  0.00    -0.333 N 
ATOM      3  H4  UNL     1      -1.325  -0.947  -2.515  1.00  0.00     0.165 HD
HETATM    4  C11 UNL     1      -2.220  -2.658  -1.638  1.00  0.00     0.317 C 
HETATM    5  O1  UNL     1      -1.838  -3.618  -2.310  1.00  0.00    -0.247 OA
HETATM    6  N5  UNL     1      -3.367  -2.705  -0.731  1.00  0.00    -0.335 N 
ATOM      7  H5  UNL     1      -3.902  -3.544  -0.507  1.00  0.00     0.165 HD
HETATM    8  C12 UNL     1      -3.631  -1.388  -0.200  1.00  0.00     0.115 C 
HETATM    9  C13 UNL     1      -4.920  -1.124   0.359  1.00  0.00    -0.005 C 
HETATM   10  C14 UNL     1      -5.524   0.061   0.127  1.00  0.00    -0.023 C 
HETATM   11  C15 UNL     1      -4.905   1.086  -0.684  1.00  0.00     0.021 A 
HETATM   12  C16 UNL     1      -3.718   1.669  -0.078  1.00  0.00     0.003 A 
HETATM   13  C17 UNL     1      -2.520   1.665  -1.006  1.00  0.00     0.015 C 
HETATM   14  C18 UNL     1      -1.363   0.875  -0.566  1.00  0.00     0.038 C 
HETATM   15  C20 UNL     1      -4.903   2.525  -0.429  1.00  0.00    -0.036 A 
HETATM   16  C21 UNL     1      -5.855   3.004   0.639  1.00  0.00     0.016 C 
HETATM   17  C22 UNL     1      -4.687   3.498  -1.545  1.00  0.00     0.016 C 
HETATM   18  C23 UNL     1      -2.394  -1.065   0.656  1.00  0.00     0.051 C 
ENDROOT
BRANCH   1  19
HETATM   19  C9  UNL     1      -0.029  -1.057   0.051  1.00  0.00     0.040 C 
BRANCH  19  20
HETATM   20  C8  UNL     1       1.043  -0.796  -0.992  1.00  0.00     0.082 C 
BRANCH  20  21
HETATM   21  C7  UNL     1       2.301  -1.347  -0.404  1.00  0.00     0.113 A 
HETATM   22  N3  UNL     1       2.787  -2.593  -0.500  1.00  0.00    -0.272 N 
HETATM   23  N2  UNL     1       3.913  -2.681   0.150  1.00  0.00    -0.225 N 
ATOM     24  H3  UNL     1       2.342  -3.358  -1.006  1.00  0.00     0.190 HD
HETATM   25  N1  UNL     1       4.183  -1.495   0.682  1.00  0.00    -0.218 N 
ATOM     26  H2  UNL     1       4.489  -3.519   0.235  1.00  0.00     0.210 HD
HETATM   27  N6  UNL     1       3.192  -0.691   0.337  1.00  0.00    -0.270 N 
ATOM     28  H6  UNL     1       3.120   0.292   0.601  1.00  0.00     0.190 HD
BRANCH  25  29
HETATM   29  C6  UNL     1       5.328  -1.205   1.521  1.00  0.00     0.171 C 
BRANCH  29  30
HETATM   30  C5  UNL     1       6.568  -0.831   0.833  1.00  0.00     0.032 C 
BRANCH  30  31
HETATM   31  C2  UNL     1       6.627   0.366  -0.032  1.00  0.00    -0.050 C 
HETATM   32  C1  UNL     1       8.097   0.444  -0.527  1.00  0.00     0.014 C 
HETATM   33  C3  UNL     1       6.264   1.623   0.686  1.00  0.00     0.014 C 
HETATM   34  C4  UNL     1       5.805   0.269  -1.303  1.00  0.00     0.014 C 
ENDBRANCH  30  31
ENDBRANCH  29  30
ENDBRANCH  25  29
ENDBRANCH  20  21
ENDBRANCH  19  20
ENDBRANCH   1  19
BRANCH  14  35
HETATM   35  C19 UNL     1      -0.801   1.546   0.674  1.00  0.00     0.171 C 
BRANCH  35  36
HETATM   36  O2  UNL     1      -0.821   2.935   0.383  1.00  0.00    -0.400 OA
ATOM     37  H2  UNL     1      -0.469   3.355   1.159  1.00  0.00     0.209 HD
ENDBRANCH  35  36
ENDBRANCH  14  35
BRANCH  18  38
HETATM   38  C24 UNL     1      -1.863  -2.232   1.404  1.00  0.00     0.122 C 
BRANCH  38  39
HETATM   39  C25 UNL     1      -2.756  -2.647   2.500  1.00  0.00     0.173 C 
HETATM   40  O3  UNL     1      -3.673  -1.956   2.971  1.00  0.00    -0.648 OA
HETATM   41  O4  UNL     1      -2.608  -3.920   3.106  1.00  0.00    -0.648 OA
ENDBRANCH  38  39
ENDBRANCH  18  38
TORSDOF 10
