REMARK  6 active torsions:
REMARK  status: ('A' for Active; 'I' for Inactive)
REMARK    1  A    between atoms: C5_5  and  C6_6 
REMARK    2  A    between atoms: C6_6  and  C7_7 
REMARK    3  A    between atoms: C7_7  and  C8_8 
REMARK    4  A    between atoms: C8_8  and  C9_9 
REMARK    5  A    between atoms: C9_9  and  N1_10 
REMARK    6  A    between atoms: N1_10  and  C10_12 
ROOT
HETATM    1  C9  UNL     1       1.233  -0.237   0.407  1.00  0.00     0.119 C 
ENDROOT
BRANCH   1   2
HETATM    2  C8  UNL     1      -0.200  -0.533   0.046  1.00  0.00     0.020 C 
BRANCH   2   3
HETATM    3  C7  UNL     1      -1.057  -0.339   1.290  1.00  0.00     0.002 C 
BRANCH   3   4
HETATM    4  C6  UNL     1      -2.507  -0.615   1.016  1.00  0.00     0.009 C 
BRANCH   4   5
HETATM    5  C5  UNL     1      -3.103   0.268  -0.036  1.00  0.00     0.014 C 
HETATM    6  C2  UNL     1      -4.536  -0.066  -0.248  1.00  0.00    -0.085 C 
HETATM    7  C1  UNL     1      -5.231  -0.963  -0.931  1.00  0.00     0.014 C 
HETATM    8  C3  UNL     1      -4.901   1.059   0.655  1.00  0.00     0.034 C 
HETATM    9  C4  UNL     1      -3.528   1.640   0.390  1.00  0.00     0.013 C 
ENDBRANCH   4   5
ENDBRANCH   3   4
ENDBRANCH   2   3
ENDBRANCH   1   2
BRANCH   1  10
HETATM   10  N1  UNL     1       2.104  -0.403  -0.731  1.00  0.00    -0.390 N 
ATOM     11  H1  UNL     1       1.704  -0.688  -1.625  1.00  0.00     0.159 HD
BRANCH  10  12
HETATM   12  C10 UNL     1       3.494  -0.182  -0.640  1.00  0.00     0.027 A 
HETATM   13  C11 UNL     1       4.086   0.202   0.540  1.00  0.00     0.029 A 
HETATM   14  C12 UNL     1       5.466   0.417   0.612  1.00  0.00     0.002 A 
HETATM   15  C13 UNL     1       6.243   0.242  -0.512  1.00  0.00     0.000 A 
HETATM   16  C14 UNL     1       5.663  -0.141  -1.693  1.00  0.00     0.002 A 
HETATM   17  C15 UNL     1       4.295  -0.349  -1.745  1.00  0.00     0.029 A 
ENDBRANCH  10  12
ENDBRANCH   1  10
TORSDOF 6
