REMARK  2 active torsions:
REMARK  status: ('A' for Active; 'I' for Inactive)
REMARK       I    between atoms: C1_2  and  N1_3 
REMARK       I    between atoms: C1_2  and  N2_15 
REMARK    1  A    between atoms: N1_3  and  C2_5 
REMARK    2  A    between atoms: N2_15  and  N3_17 
ROOT
HETATM    1  O1  UNL     1       0.918   0.668  -1.578  1.00  0.00    -0.246 OA
HETATM    2  C1  UNL     1       0.713   0.741  -0.342  1.00  0.00     0.331 C 
HETATM    3  N1  UNL     1      -0.594   0.487   0.208  1.00  0.00    -0.337 N 
ATOM      4  H1  UNL     1      -0.720   0.557   1.218  1.00  0.00     0.164 HD
HETATM    5  N2  UNL     1       1.796   1.079   0.500  1.00  0.00    -0.270 N 
ATOM      6  H2  UNL     1       1.653   1.145   1.508  1.00  0.00     0.185 HD
ENDROOT
BRANCH   3   7
HETATM    7  C2  UNL     1      -1.726   0.140  -0.600  1.00  0.00     0.094 C 
HETATM    8  C3  UNL     1      -2.241  -1.222  -0.225  1.00  0.00     0.009 C 
HETATM    9  C4  UNL     1      -3.291  -1.707  -1.205  1.00  0.00     0.011 C 
HETATM   10  C8  UNL     1      -2.836  -1.172   1.140  1.00  0.00     0.011 C 
HETATM   11  C5  UNL     1      -4.385  -0.666  -1.242  1.00  0.00    -0.013 C 
HETATM   12  C6  UNL     1      -5.065  -0.695   0.119  1.00  0.00     0.009 C 
HETATM   13  C11 UNL     1      -3.871   0.696  -1.591  1.00  0.00     0.011 C 
HETATM   14  C7  UNL     1      -4.042  -0.263   1.142  1.00  0.00    -0.013 C 
HETATM   15  C9  UNL     1      -3.574   1.118   0.792  1.00  0.00     0.011 C 
HETATM   16  C10 UNL     1      -2.862   1.132  -0.521  1.00  0.00     0.009 C 
ENDBRANCH   3   7
BRANCH   5  17
HETATM   17  N3  UNL     1       3.043   1.320  -0.030  1.00  0.00    -0.211 NA
HETATM   18  C12 UNL     1       3.631   2.548   0.541  1.00  0.00     0.188 C 
HETATM   19  S1  UNL     1       5.355   2.399  -0.103  1.00  0.00    -0.145 SA
HETATM   20  C13 UNL     1       5.190   0.682  -0.655  1.00  0.00     0.083 C 
HETATM   21  C14 UNL     1       6.236  -0.240  -0.122  1.00  0.00     0.157 C 
HETATM   22  C16 UNL     1       3.997   0.315   0.250  1.00  0.00     0.109 C 
HETATM   23  S2  UNL     1       5.306  -1.787  -0.235  1.00  0.00     0.147 S 
HETATM   24  O2  UNL     1       5.588  -2.408  -1.549  1.00  0.00    -0.228 OA
HETATM   25  O3  UNL     1       5.555  -2.650   0.934  1.00  0.00    -0.228 OA
HETATM   26  C15 UNL     1       3.647  -1.069  -0.187  1.00  0.00     0.163 C 
ENDBRANCH   5  17
TORSDOF 2
