REMARK  4 active torsions:
REMARK  status: ('A' for Active; 'I' for Inactive)
REMARK    1  A    between atoms: S1_2  and  C2_3 
REMARK    2  A    between atoms: C7_8  and  C8_9 
REMARK    3  A    between atoms: C8_9  and  N1_10 
REMARK       I    between atoms: N1_10  and  C9_12 
REMARK       I    between atoms: C9_12  and  N2_14 
REMARK       I    between atoms: N2_14  and  C10_16 
REMARK       I    between atoms: C10_16  and  N3_17 
REMARK       I    between atoms: C10_16  and  N4_20 
REMARK    4  A    between atoms: N4_20  and  C11_22 
ROOT
HETATM    1  N1  UNL     1       1.788   0.718  -0.785  1.00  0.00    -0.338 N 
ATOM      2  H1  UNL     1       1.329   1.621  -0.902  1.00  0.00     0.164 HD
HETATM    3  C9  UNL     1       1.057  -0.394  -1.186  1.00  0.00     0.334 C 
HETATM    4  O1  UNL     1       1.454  -1.567  -1.139  1.00  0.00    -0.246 OA
HETATM    5  N2  UNL     1      -0.320  -0.228  -1.715  1.00  0.00    -0.142 N 
ATOM      6  H2  UNL     1      -0.723   0.705  -1.807  1.00  0.00     0.189 HD
HETATM    7  C10 UNL     1      -1.056  -1.338  -2.083  1.00  0.00     0.676 C 
HETATM    8  N3  UNL     1      -1.665  -2.217  -2.385  1.00  0.00    -0.235 N 
ATOM      9  H31 UNL     1      -2.208  -3.036  -2.657  1.00  0.00     0.174 HD
ATOM     10  H32 UNL     1      -0.868  -2.815  -2.167  1.00  0.00     0.174 HD
HETATM   11  N4  UNL     1      -2.434  -0.303  -2.460  1.00  0.00    -0.218 N 
ATOM     12  H4  UNL     1      -2.625   0.106  -3.375  1.00  0.00     0.178 HD
ENDROOT
BRANCH   1  13
HETATM   13  C8  UNL     1       3.135   0.752  -0.216  1.00  0.00     0.164 C 
BRANCH  13  14
HETATM   14  C7  UNL     1       3.202  -0.143   0.971  1.00  0.00    -0.024 A 
HETATM   15  C2  UNL     1       2.333   0.188   2.025  1.00  0.00     0.008 A 
HETATM   16  C3  UNL     1       2.330  -0.521   3.198  1.00  0.00     0.019 A 
HETATM   17  C4  UNL     1       3.186  -1.577   3.372  1.00  0.00     0.001 A 
HETATM   18  C5  UNL     1       4.051  -1.901   2.317  1.00  0.00     0.001 A 
HETATM   19  C6  UNL     1       4.057  -1.194   1.137  1.00  0.00     0.010 A 
BRANCH  15  20
HETATM   20  S1  UNL     1       1.154   1.490   1.757  1.00  0.00    -0.134 SA
HETATM   21  C1  UNL     1       1.748   3.065   2.371  1.00  0.00     0.095 C 
ENDBRANCH  15  20
ENDBRANCH  13  14
ENDBRANCH   1  13
BRANCH  11  22
HETATM   22  C11 UNL     1      -3.205  -0.130  -1.350  1.00  0.00     0.036 C 
HETATM   23  C12 UNL     1      -3.846   1.279  -1.440  1.00  0.00     0.038 C 
HETATM   24  C13 UNL     1      -2.550  -0.219   0.012  1.00  0.00     0.038 C 
HETATM   25  C14 UNL     1      -4.410  -1.097  -1.257  1.00  0.00     0.038 C 
ENDBRANCH  11  22
TORSDOF 4
