REMARK  4 active torsions:
REMARK  status: ('A' for Active; 'I' for Inactive)
REMARK    1  A    between atoms: C2_2  and  C3_3 
REMARK    2  A    between atoms: C3_3  and  C4_5 
REMARK    3  A    between atoms: N1_7  and  C6_8 
REMARK    4  A    between atoms: C13_17  and  N3_18 
ROOT
HETATM    1  C4  UNL     1       2.053  -0.221  -0.092  1.00  0.00     0.042 A 
HETATM    2  C5  UNL     1       0.795  -0.851  -0.061  1.00  0.00     0.109 A 
HETATM    3  N1  UNL     1      -0.197   0.057  -0.080  1.00  0.00    -0.336 N 
HETATM    4  C12 UNL     1       0.333   1.290  -0.123  1.00  0.00     0.138 A 
HETATM    5  N2  UNL     1      -0.252   2.494  -0.160  1.00  0.00    -0.176 N 
ATOM      6  H2  UNL     1      -1.268   2.587  -0.153  1.00  0.00     0.186 HD
HETATM    7  C13 UNL     1       0.559   3.596  -0.207  1.00  0.00     0.678 A 
HETATM    8  N4  UNL     1       1.890   3.475  -0.217  1.00  0.00    -0.181 N 
ATOM      9  H4  UNL     1       2.462   4.319  -0.253  1.00  0.00     0.185 HD
HETATM   10  C14 UNL     1       2.509   2.256  -0.181  1.00  0.00     0.131 A 
HETATM   11  S1  UNL     1       4.138   2.230  -0.214  1.00  0.00    -0.059 SA
HETATM   12  C15 UNL     1       1.722   1.124  -0.132  1.00  0.00     0.062 A 
ENDROOT
BRANCH   3  13
HETATM   13  C6  UNL     1      -1.600  -0.246  -0.057  1.00  0.00     0.091 C 
HETATM   14  C7  UNL     1      -2.335   0.169   1.176  1.00  0.00     0.026 C 
HETATM   15  C8  UNL     1      -3.581  -0.698   1.246  1.00  0.00     0.002 C 
HETATM   16  C9  UNL     1      -3.883  -1.436  -0.010  1.00  0.00     0.000 C 
HETATM   17  C10 UNL     1      -3.632  -0.718  -1.283  1.00  0.00     0.002 C 
HETATM   18  C11 UNL     1      -2.380   0.165  -1.261  1.00  0.00     0.026 C 
ENDBRANCH   3  13
BRANCH   1  19
HETATM   19  C3  UNL     1       3.321  -0.903  -0.054  1.00  0.00     0.161 C 
HETATM   20  O1  UNL     1       4.434  -0.439   0.118  1.00  0.00    -0.292 OA
BRANCH  19  21
HETATM   21  C2  UNL     1       3.286  -2.404  -0.254  1.00  0.00     0.079 C 
HETATM   22  C1  UNL     1       4.646  -3.018  -0.203  1.00  0.00     0.013 C 
ENDBRANCH  19  21
ENDBRANCH   1  19
BRANCH   7  23
HETATM   23  N3  UNL     1       0.009   4.758  -0.242  1.00  0.00    -0.234 N 
ATOM     24  H32 UNL     1      -1.007   4.850  -0.234  1.00  0.00     0.174 HD
ATOM     25  H31 UNL     1       0.613   5.579  -0.277  1.00  0.00     0.174 HD
ENDBRANCH   7  23
TORSDOF 4
