REMARK  9 active torsions:
REMARK  status: ('A' for Active; 'I' for Inactive)
REMARK    1  A    between atoms: S1_2  and  C2_4 
REMARK    2  A    between atoms: C2_4  and  C3_5 
REMARK    3  A    between atoms: C3_5  and  C4_6 
REMARK    4  A    between atoms: C4_6  and  N1_7 
REMARK    5  A    between atoms: C4_6  and  C14_32 
REMARK       I    between atoms: N1_7  and  C5_9 
REMARK    6  A    between atoms: C5_9  and  C6_11 
REMARK       I    between atoms: N4_16  and  C8_18 
REMARK    7  A    between atoms: C9_25  and  C10_26 
REMARK    8  A    between atoms: C10_26  and  C11_27 
REMARK    9  A    between atoms: C11_27  and  C12_28 
ROOT
HETATM    1  C6  UNL     1      -0.373  -0.039   1.495  1.00  0.00     0.125 C 
HETATM    2  N2  UNL     1      -0.433  -0.831   2.507  1.00  0.00    -0.280 N 
ATOM      3  H2  UNL     1       0.066  -1.681   2.769  1.00  0.00     0.187 HD
HETATM    4  N3  UNL     1      -1.422  -0.096   3.096  1.00  0.00    -0.107 N 
HETATM    5  C7  UNL     1      -2.473   0.458   3.868  1.00  0.00     0.702 C 
HETATM    6  N4  UNL     1      -2.830   0.134   5.045  1.00  0.00    -0.162 N 
ATOM      7  H4  UNL     1      -3.618   0.652   5.433  1.00  0.00     0.187 HD
HETATM    8  C8  UNL     1      -2.270  -0.851   5.874  1.00  0.00     0.200 C 
HETATM    9  N5  UNL     1      -1.367  -1.653   5.438  1.00  0.00    -0.373 N 
ATOM     10  H51 UNL     1      -0.960  -2.369   6.040  1.00  0.00     0.158 HD
ATOM     11  H52 UNL     1      -1.032  -1.596   4.476  1.00  0.00     0.158 HD
HETATM   12  N6  UNL     1      -2.735  -0.930   7.209  1.00  0.00    -0.063 NA
HETATM   13  N7  UNL     1      -3.114   1.496   3.077  1.00  0.00    -0.195 N 
ATOM     14  H7  UNL     1      -3.920   2.058   3.349  1.00  0.00     0.184 HD
HETATM   15  C9  UNL     1      -2.441   1.570   1.925  1.00  0.00     0.036 C 
HETATM   16  C13 UNL     1      -1.198   0.894   2.069  1.00  0.00     0.229 C 
ENDROOT
BRANCH   1  17
HETATM   17  C5  UNL     1       0.516  -0.152   0.295  1.00  0.00     0.272 C 
HETATM   18  N1  UNL     1       1.447  -1.194   0.146  1.00  0.00    -0.321 N 
ATOM     19  H1  UNL     1       1.436  -1.858   0.920  1.00  0.00     0.169 HD
HETATM   20  O2  UNL     1       0.402   0.720  -0.578  1.00  0.00    -0.266 OA
BRANCH  18  21
HETATM   21  C4  UNL     1       2.384  -1.511  -0.839  1.00  0.00     0.042 C 
BRANCH  21  22
HETATM   22  C3  UNL     1       3.457  -0.596  -1.251  1.00  0.00     0.016 C 
BRANCH  22  23
HETATM   23  C2  UNL     1       3.213   0.731  -1.807  1.00  0.00     0.137 C 
BRANCH  23  24
HETATM   24  S1  UNL     1       4.826   1.450  -2.269  1.00  0.00     0.014 S 
HETATM   25  C1  UNL     1       4.570   3.051  -2.948  1.00  0.00     0.127 C 
HETATM   26  O1  UNL     1       5.603   0.395  -3.305  1.00  0.00    -0.258 OA
ENDBRANCH  23  24
ENDBRANCH  22  23
ENDBRANCH  21  22
BRANCH  21  27
HETATM   27  C14 UNL     1       1.826  -2.376  -1.901  1.00  0.00    -0.010 A 
HETATM   28  C15 UNL     1       2.655  -3.250  -2.562  1.00  0.00     0.013 A 
HETATM   29  C16 UNL     1       2.198  -4.095  -3.547  1.00  0.00     0.001 A 
HETATM   30  C17 UNL     1       0.853  -4.078  -3.898  1.00  0.00     0.000 A 
HETATM   31  C18 UNL     1       0.008  -3.208  -3.243  1.00  0.00     0.001 A 
HETATM   32  C19 UNL     1       0.499  -2.364  -2.251  1.00  0.00     0.013 A 
ENDBRANCH  21  27
ENDBRANCH  18  21
ENDBRANCH   1  17
BRANCH  15  33
HETATM   33  C10 UNL     1      -2.856   2.502   0.855  1.00  0.00     0.064 C 
BRANCH  33  34
HETATM   34  C11 UNL     1      -3.173   1.844  -0.454  1.00  0.00     0.105 C 
BRANCH  34  35
HETATM   35  C12 UNL     1      -3.635   3.018  -1.351  1.00  0.00     0.231 C 
HETATM   36  N8  UNL     1      -4.793   2.668  -2.119  1.00  0.00    -0.062 NA
HETATM   37  O3  UNL     1      -3.104   4.075  -1.400  1.00  0.00    -0.277 OA
ENDBRANCH  34  35
ENDBRANCH  33  34
ENDBRANCH  15  33
TORSDOF 9
