REMARK  11 active torsions:
REMARK  status: ('A' for Active; 'I' for Inactive)
REMARK    1  A    between atoms: C2_2  and  C3_3 
REMARK    2  A    between atoms: C3_3  and  C4_4 
REMARK    3  A    between atoms: C4_4  and  C5_5 
REMARK    4  A    between atoms: C6_6  and  C7_7 
REMARK    5  A    between atoms: C7_7  and  C8_8 
REMARK    6  A    between atoms: C7_7  and  C16_17 
REMARK    7  A    between atoms: C8_8  and  N1_9 
REMARK    8  A    between atoms: N1_9  and  C10_11 
REMARK    9  A    between atoms: N1_9  and  C12_13 
REMARK   10  A    between atoms: C12_13  and  C13_14 
REMARK   11  A    between atoms: C13_14  and  C14_15 
ROOT
HETATM    1  C7  UNL     1      -0.051  -0.684  -0.844  1.00  0.00     0.039 C 
ENDROOT
BRANCH   1   2
HETATM    2  C6  UNL     1       1.283  -1.324  -1.158  1.00  0.00    -0.011 C 
HETATM    3  C5  UNL     1       1.694  -1.234  -2.426  1.00  0.00     0.061 C 
BRANCH   3   4
HETATM    4  C4  UNL     1       2.855  -1.760  -2.915  1.00  0.00    -0.074 C 
BRANCH   4   5
HETATM    5  C3  UNL     1       3.907  -2.230  -3.378  1.00  0.00    -0.075 C 
BRANCH   5   6
HETATM    6  C2  UNL     1       5.077  -2.757  -3.876  1.00  0.00     0.054 C 
HETATM    7  C1  UNL     1       5.415  -2.616  -5.197  1.00  0.00     0.020 C 
ENDBRANCH   5   6
ENDBRANCH   4   5
ENDBRANCH   3   4
ENDBRANCH   1   2
BRANCH   1   8
HETATM    8  C8  UNL     1       0.141   0.419   0.073  1.00  0.00     0.245 C 
BRANCH   8   9
HETATM    9  N1  UNL     1      -0.984   1.219   0.462  1.00  0.00    -0.071 N 
HETATM   10  C9  UNL     1      -0.717   2.478  -0.370  1.00  0.00     0.272 C 
BRANCH   9  11
HETATM   11  C10 UNL     1      -2.284   0.860   0.069  1.00  0.00     0.232 C 
HETATM   12  C11 UNL     1      -3.213   0.175   0.993  1.00  0.00     0.035 C 
ENDBRANCH   9  11
BRANCH   9  13
HETATM   13  C12 UNL     1      -0.776   1.728   1.793  1.00  0.00     0.237 C 
BRANCH  13  14
HETATM   14  C13 UNL     1      -1.713   2.803   2.211  1.00  0.00     0.027 C 
BRANCH  14  15
HETATM   15  C14 UNL     1      -1.472   3.391   3.581  1.00  0.00    -0.003 C 
HETATM   16  C15 UNL     1      -1.556   2.416   4.716  1.00  0.00     0.005 C 
ENDBRANCH  14  15
ENDBRANCH  13  14
ENDBRANCH   9  13
ENDBRANCH   8   9
ENDBRANCH   1   8
BRANCH   1  17
HETATM   17  C16 UNL     1      -0.921  -1.837  -0.369  1.00  0.00    -0.005 A 
HETATM   18  C17 UNL     1      -0.579  -2.634   0.846  1.00  0.00     0.005 A 
HETATM   19  C18 UNL     1      -0.257  -3.254  -0.423  1.00  0.00     0.005 A 
ENDBRANCH   1  17
TORSDOF 11
