REMARK  7 active torsions:
REMARK  status: ('A' for Active; 'I' for Inactive)
REMARK    1  A    between atoms: C5_5  and  O1_6 
REMARK    2  A    between atoms: C13_15  and  C15_17 
REMARK    3  A    between atoms: C15_17  and  C16_18 
REMARK    4  A    between atoms: C16_18  and  C17_19 
REMARK    5  A    between atoms: C17_19  and  C18_20 
REMARK    6  A    between atoms: C18_20  and  C19_21 
REMARK    7  A    between atoms: C19_21  and  C20_22 
ROOT
HETATM    1  C1  UNL     1      -3.516   2.530  -2.065  1.00  0.00     0.044 C 
HETATM    2  C2  UNL     1      -3.431   1.447  -1.032  1.00  0.00    -0.074 C 
HETATM    3  C3  UNL     1      -4.589   0.945  -0.660  1.00  0.00    -0.017 C 
HETATM    4  C4  UNL     1      -4.510  -0.146   0.381  1.00  0.00     0.092 C 
HETATM    5  C5  UNL     1      -3.419   0.284   1.299  1.00  0.00     0.051 C 
HETATM    6  C6  UNL     1      -2.038   0.292   0.729  1.00  0.00    -0.026 C 
HETATM    7  C7  UNL     1      -2.081   1.047  -0.548  1.00  0.00     0.006 C 
HETATM    8  C8  UNL     1      -1.358   2.410  -0.421  1.00  0.00     0.025 C 
HETATM    9  C9  UNL     1      -1.472   0.395  -1.756  1.00  0.00     0.019 C 
HETATM   10  C10 UNL     1      -0.395  -0.590  -1.493  1.00  0.00     0.007 C 
HETATM   11  C11 UNL     1      -0.939  -1.574  -0.474  1.00  0.00    -0.002 C 
HETATM   12  C12 UNL     1      -0.139  -2.789  -0.570  1.00  0.00     0.011 C 
HETATM   13  C13 UNL     1      -1.233  -0.957   0.832  1.00  0.00     0.004 C 
HETATM   14  C14 UNL     1      -2.023  -2.040   1.628  1.00  0.00     0.025 C 
ENDROOT
BRANCH  13  15
HETATM   15  C15 UNL     1      -0.002  -0.871   1.701  1.00  0.00    -0.013 C 
BRANCH  15  16
HETATM   16  C16 UNL     1       1.045   0.050   1.443  1.00  0.00    -0.007 C 
BRANCH  16  17
HETATM   17  C17 UNL     1       2.310  -0.212   1.235  1.00  0.00    -0.026 C 
BRANCH  17  18
HETATM   18  C18 UNL     1       2.989  -1.517   1.212  1.00  0.00     0.035 C 
BRANCH  18  19
HETATM   19  C19 UNL     1       3.656  -1.780  -0.141  1.00  0.00     0.088 C 
BRANCH  19  20
HETATM   20  C20 UNL     1       4.664  -0.680  -0.351  1.00  0.00     0.124 A 
HETATM   21  N1  UNL     1       5.950  -0.724   0.039  1.00  0.00    -0.348 N 
HETATM   22  C21 UNL     1       6.530   0.420  -0.314  1.00  0.00     0.122 A 
ATOM     23  H1  UNL     1       6.403  -1.500   0.522  1.00  0.00     0.167 HD
HETATM   24  C22 UNL     1       5.562   1.196  -0.945  1.00  0.00     0.066 A 
HETATM   25  C23 UNL     1       5.748   2.558  -1.511  1.00  0.00     0.078 C 
HETATM   26  O2  UNL     1       4.473   0.471  -0.930  1.00  0.00    -0.301 OA
ENDBRANCH  19  20
ENDBRANCH  18  19
ENDBRANCH  17  18
ENDBRANCH  16  17
ENDBRANCH  15  16
ENDBRANCH  13  15
BRANCH   5  27
HETATM   27  O1  UNL     1      -3.546  -0.172   2.597  1.00  0.00    -0.364 OA
ATOM     28  H1  UNL     1      -2.850   0.102   3.183  1.00  0.00     0.217 HD
ENDBRANCH   5  27
TORSDOF 7
