REMARK  6 active torsions:
REMARK  status: ('A' for Active; 'I' for Inactive)
REMARK    1  A    between atoms: N1_1  and  N2_4 
REMARK    2  A    between atoms: C2_6  and  O1_7 
REMARK    3  A    between atoms: C3_9  and  O2_10 
REMARK    4  A    between atoms: C4_12  and  C5_13 
REMARK    5  A    between atoms: C5_13  and  O3_14 
REMARK    6  A    between atoms: O3_14  and  C6_15 
ROOT
HETATM    1  C6  UNL     1       0.493  -0.145  -0.838  1.00  0.00     0.255 C 
HETATM    2  C7  UNL     1      -0.715  -0.727  -0.152  1.00  0.00     0.282 C 
HETATM    3  N3  UNL     1      -0.503  -1.995   0.455  1.00  0.00    -0.070 N 
ATOM      4  H31 UNL     1       0.027  -1.938   1.325  1.00  0.00     0.277 HD
ATOM      5  H32 UNL     1       0.154  -2.580  -0.061  1.00  0.00     0.277 HD
HETATM    6  C8  UNL     1      -1.825  -2.623   0.625  1.00  0.00     0.260 C 
HETATM    7  C9  UNL     1      -2.612  -1.993   1.725  1.00  0.00     0.261 C 
HETATM    8  N4  UNL     1      -4.028  -1.812   1.366  1.00  0.00    -0.050 N 
ATOM      9  H41 UNL     1      -4.660  -1.918   2.159  1.00  0.00     0.279 HD
ATOM     10  H42 UNL     1      -4.400  -2.575   0.801  1.00  0.00     0.279 HD
HETATM   11  C10 UNL     1      -4.133  -0.541   0.731  1.00  0.00     0.462 C 
HETATM   12  N5  UNL     1      -5.416   0.070   0.758  1.00  0.00    -0.050 N 
ATOM     13  H51 UNL     1      -5.632   0.515   1.650  1.00  0.00     0.279 HD
ATOM     14  H52 UNL     1      -6.183  -0.603   0.762  1.00  0.00     0.279 HD
HETATM   15  C11 UNL     1      -5.464   1.001  -0.383  1.00  0.00     0.253 C 
HETATM   16  C12 UNL     1      -4.390   2.050  -0.285  1.00  0.00     0.142 C 
HETATM   17  N6  UNL     1      -3.454   2.026  -1.366  1.00  0.00    -0.406 N 
ATOM     18  H6  UNL     1      -3.744   1.941  -2.340  1.00  0.00     0.154 HD
HETATM   19  C13 UNL     1      -2.083   2.130  -0.979  1.00  0.00     0.246 C 
HETATM   20  N7  UNL     1      -1.315   1.139  -1.670  1.00  0.00    -0.127 NA
HETATM   21  N8  UNL     1       0.034   1.147  -1.380  1.00  0.00    -0.113 NA
ENDROOT
BRANCH   1  22
HETATM   22  O3  UNL     1       1.476   0.057   0.109  1.00  0.00    -0.365 OA
BRANCH  22  23
HETATM   23  C5  UNL     1       2.628  -0.655  -0.171  1.00  0.00     0.194 C 
BRANCH  23  24
HETATM   24  C4  UNL     1       3.640  -0.357   0.935  1.00  0.00     0.134 C 
HETATM   25  N2  UNL     1       4.855  -1.101   0.647  1.00  0.00    -0.226 NA
HETATM   26  C1  UNL     1       5.636  -0.319  -0.261  1.00  0.00     0.148 C 
HETATM   27  C2  UNL     1       5.138   1.096  -0.167  1.00  0.00     0.163 C 
HETATM   28  C3  UNL     1       4.029   1.095   0.853  1.00  0.00     0.169 C 
BRANCH  25  29
HETATM   29  N1  UNL     1       5.486  -1.342   1.870  1.00  0.00    -0.363 NA
ATOM     30  H12 UNL     1       6.339  -1.864   1.668  1.00  0.00     0.171 HD
ATOM     31  H11 UNL     1       4.929  -1.900   2.517  1.00  0.00     0.171 HD
ENDBRANCH  25  29
BRANCH  27  32
HETATM   32  O1  UNL     1       4.713   1.570  -1.390  1.00  0.00    -0.392 OA
ATOM     33  H1  UNL     1       4.398   2.464  -1.331  1.00  0.00     0.210 HD
ENDBRANCH  27  32
BRANCH  28  34
HETATM   34  O2  UNL     1       2.964   1.880   0.487  1.00  0.00    -0.391 OA
ATOM     35  H2  UNL     1       2.265   1.879   1.130  1.00  0.00     0.210 HD
ENDBRANCH  28  34
ENDBRANCH  23  24
ENDBRANCH  22  23
ENDBRANCH   1  22
TORSDOF 6
