REMARK  7 active torsions:
REMARK  status: ('A' for Active; 'I' for Inactive)
REMARK    1  A    between atoms: C2_2  and  C4_4 
REMARK    2  A    between atoms: C21_21  and  C22_22 
REMARK    3  A    between atoms: C22_22  and  C23_23 
REMARK       I    between atoms: C23_23  and  N1_25 
REMARK    4  A    between atoms: N1_25  and  C24_27 
REMARK    5  A    between atoms: C24_27  and  C25_28 
REMARK    6  A    between atoms: C25_28  and  C26_29 
REMARK    7  A    between atoms: C26_29  and  N2_30 
ROOT
HETATM    1  C4  UNL     1      -5.833   1.006   0.563  1.00  0.00    -0.066 C 
HETATM    2  C5  UNL     1      -5.175   1.990   1.460  1.00  0.00     0.036 C 
HETATM    3  C6  UNL     1      -3.677   1.744   1.458  1.00  0.00     0.015 C 
HETATM    4  C7  UNL     1      -3.654   0.289   1.020  1.00  0.00    -0.029 C 
HETATM    5  C8  UNL     1      -4.097  -0.396   2.324  1.00  0.00     0.016 C 
HETATM    6  C9  UNL     1      -2.303  -0.301   0.857  1.00  0.00    -0.001 C 
HETATM    7  C10 UNL     1      -2.214  -1.790   1.160  1.00  0.00     0.006 C 
HETATM    8  C11 UNL     1      -2.751  -2.658   0.075  1.00  0.00     0.006 C 
HETATM    9  C12 UNL     1      -2.649  -2.023  -1.296  1.00  0.00    -0.006 C 
HETATM   10  C13 UNL     1      -3.900  -1.435  -1.776  1.00  0.00     0.006 C 
HETATM   11  C14 UNL     1      -4.907  -0.904  -0.822  1.00  0.00     0.015 C 
HETATM   12  C15 UNL     1      -4.631   0.316  -0.051  1.00  0.00    -0.012 C 
HETATM   13  C16 UNL     1      -4.358   1.357  -1.159  1.00  0.00     0.021 C 
HETATM   14  C17 UNL     1      -1.397  -1.176  -1.298  1.00  0.00    -0.036 C 
HETATM   15  C18 UNL     1      -0.267  -2.153  -1.133  1.00  0.00     0.016 C 
HETATM   16  C19 UNL     1      -1.094  -0.494  -2.614  1.00  0.00     0.010 C 
HETATM   17  C20 UNL     1       0.332   0.057  -2.437  1.00  0.00     0.006 C 
HETATM   18  C21 UNL     1       0.439   0.999  -1.296  1.00  0.00    -0.005 C 
HETATM   19  C31 UNL     1      -0.043   0.449   0.018  1.00  0.00     0.011 C 
HETATM   20  C32 UNL     1      -1.468  -0.048  -0.312  1.00  0.00    -0.001 C 
ENDROOT
BRANCH  18  21
HETATM   21  C22 UNL     1       1.722   1.723  -1.286  1.00  0.00     0.107 C 
BRANCH  21  22
HETATM   22  C23 UNL     1       2.962   0.942  -1.175  1.00  0.00     0.217 C 
HETATM   23  O1  UNL     1       2.978  -0.291  -1.110  1.00  0.00    -0.274 OA
HETATM   24  N1  UNL     1       4.179   1.644  -1.143  1.00  0.00    -0.361 N 
ATOM     25  H1  UNL     1       4.173   2.662  -1.198  1.00  0.00     0.162 HD
BRANCH  24  26
HETATM   26  C24 UNL     1       5.424   0.953  -1.034  1.00  0.00     0.124 C 
BRANCH  26  27
HETATM   27  C25 UNL     1       5.601   0.128   0.208  1.00  0.00     0.050 C 
BRANCH  27  28
HETATM   28  C26 UNL     1       6.954  -0.548   0.234  1.00  0.00     0.274 C 
BRANCH  28  29
HETATM   29  N2  UNL     1       8.050   0.398   0.215  1.00  0.00     0.092 N 
HETATM   30  C27 UNL     1       9.317  -0.321   0.055  1.00  0.00     0.298 C 
HETATM   31  C28 UNL     1       9.599  -1.244   1.193  1.00  0.00     0.198 C 
HETATM   32  O2  UNL     1       9.498  -0.592   2.422  1.00  0.00    -0.388 OA
HETATM   33  C29 UNL     1       9.372   0.799   2.235  1.00  0.00     0.198 C 
HETATM   34  C30 UNL     1       8.085   1.130   1.475  1.00  0.00     0.298 C 
ENDBRANCH  28  29
ENDBRANCH  27  28
ENDBRANCH  26  27
ENDBRANCH  24  26
ENDBRANCH  21  22
ENDBRANCH  18  21
BRANCH   1  35
HETATM   35  C2  UNL     1      -7.033   0.343   0.908  1.00  0.00    -0.068 C 
HETATM   36  C1  UNL     1      -7.478   0.316   2.132  1.00  0.00     0.018 C 
HETATM   37  C3  UNL     1      -7.946  -0.367  -0.054  1.00  0.00     0.047 C 
ENDBRANCH   1  35
TORSDOF 7
