REMARK  12 active torsions:
REMARK  status: ('A' for Active; 'I' for Inactive)
REMARK    1  A    between atoms: O1_2  and  C2_3 
REMARK    2  A    between atoms: C4_5  and  C5_6 
REMARK    3  A    between atoms: C5_6  and  C6_7 
REMARK    4  A    between atoms: C6_7  and  C7_8 
REMARK    5  A    between atoms: C7_8  and  O2_9 
REMARK    6  A    between atoms: C7_8  and  C8_11 
REMARK    7  A    between atoms: C8_11  and  C9_12 
REMARK    8  A    between atoms: C9_12  and  C11_14 
REMARK    9  A    between atoms: C11_14  and  C12_15 
REMARK   10  A    between atoms: C12_15  and  O3_16 
REMARK   11  A    between atoms: C14_19  and  O4_20 
REMARK   12  A    between atoms: C19_26  and  O5_27 
ROOT
HETATM    1  C9  UNL     1      -0.162   1.182   1.221  1.00  0.00    -0.013 C 
HETATM    2  C10 UNL     1       0.469   1.972   0.125  1.00  0.00     0.010 C 
ENDROOT
BRANCH   1   3
HETATM    3  C8  UNL     1       0.822   0.603   2.156  1.00  0.00     0.036 C 
BRANCH   3   4
HETATM    4  C7  UNL     1       1.833  -0.347   1.732  1.00  0.00     0.118 C 
BRANCH   4   5
HETATM    5  C6  UNL     1       2.841   0.047   0.696  1.00  0.00     0.036 C 
BRANCH   5   6
HETATM    6  C5  UNL     1       3.941  -1.009   0.764  1.00  0.00     0.043 C 
BRANCH   6   7
HETATM    7  C4  UNL     1       5.021  -0.780  -0.198  1.00  0.00    -0.034 A 
HETATM    8  C3  UNL     1       6.224  -0.224   0.228  1.00  0.00     0.047 A 
HETATM    9  C2  UNL     1       7.193  -0.024  -0.729  1.00  0.00     0.090 A 
HETATM   10  C25 UNL     1       6.992  -0.358  -2.059  1.00  0.00     0.069 A 
HETATM   11  C24 UNL     1       5.799  -0.908  -2.474  1.00  0.00     0.051 A 
HETATM   12 CL2  UNL     1       8.274  -0.079  -3.249  1.00  0.00    -0.081 Cl
HETATM   13  C23 UNL     1       4.820  -1.112  -1.518  1.00  0.00     0.042 A 
HETATM   14 CL1  UNL     1       3.318  -1.830  -2.115  1.00  0.00    -0.084 Cl
BRANCH   9  15
HETATM   15  O1  UNL     1       8.411   0.520  -0.394  1.00  0.00    -0.354 OA
HETATM   16  C1  UNL     1       8.835   0.929   0.869  1.00  0.00     0.210 C 
ENDBRANCH   9  15
ENDBRANCH   6   7
ENDBRANCH   5   6
ENDBRANCH   4   5
BRANCH   4  17
HETATM   17  O2  UNL     1       1.365  -1.614   1.379  1.00  0.00    -0.396 OA
ATOM     18  H2  UNL     1       0.726  -1.864   2.036  1.00  0.00     0.210 HD
ENDBRANCH   4  17
ENDBRANCH   3   4
ENDBRANCH   1   3
BRANCH   1  19
HETATM   19  C11 UNL     1      -1.210   0.196   0.763  1.00  0.00     0.043 C 
BRANCH  19  20
HETATM   20  C12 UNL     1      -2.224   0.766  -0.164  1.00  0.00     0.069 C 
HETATM   21  C13 UNL     1      -2.940   1.978   0.443  1.00  0.00     0.071 C 
HETATM   22  C14 UNL     1      -4.405   1.673   0.228  1.00  0.00     0.130 C 
HETATM   23  C15 UNL     1      -4.429   0.204   0.364  1.00  0.00     0.054 C 
HETATM   24  C16 UNL     1      -5.643  -0.464  -0.155  1.00  0.00    -0.078 C 
HETATM   25  C21 UNL     1      -3.296  -0.219  -0.547  1.00  0.00    -0.001 C 
HETATM   26  C17 UNL     1      -6.902   0.220  -0.489  1.00  0.00     0.043 C 
HETATM   27  C18 UNL     1      -5.528  -1.779  -0.311  1.00  0.00     0.007 C 
HETATM   28  C19 UNL     1      -4.273  -2.454   0.022  1.00  0.00     0.142 C 
HETATM   29  C20 UNL     1      -3.019  -1.645  -0.249  1.00  0.00     0.048 C 
HETATM   30  C22 UNL     1      -3.622   0.017  -2.000  1.00  0.00     0.019 C 
BRANCH  20  31
HETATM   31  O3  UNL     1      -1.586   1.243  -1.306  1.00  0.00    -0.389 OA
ATOM     32  H3  UNL     1      -2.234   1.607  -1.898  1.00  0.00     0.210 HD
ENDBRANCH  20  31
BRANCH  22  33
HETATM   33  O4  UNL     1      -5.205   2.271   1.201  1.00  0.00    -0.395 OA
ATOM     34  H4  UNL     1      -6.126   2.079   1.066  1.00  0.00     0.210 HD
ENDBRANCH  22  33
BRANCH  28  35
HETATM   35  O5  UNL     1      -4.217  -3.669  -0.680  1.00  0.00    -0.392 OA
ATOM     36  H5  UNL     1      -3.402  -4.107  -0.464  1.00  0.00     0.210 HD
ENDBRANCH  28  35
ENDBRANCH  19  20
ENDBRANCH   1  19
TORSDOF 12
