REMARK  10 active torsions:
REMARK  status: ('A' for Active; 'I' for Inactive)
REMARK    1  A    between atoms: C2_2  and  N1_3 
REMARK    2  A    between atoms: C5_6  and  N2_7 
REMARK    3  A    between atoms: C13_17  and  N4_18 
REMARK    4  A    between atoms: N4_18  and  C14_20 
REMARK    5  A    between atoms: C17_23  and  N5_24 
REMARK    6  A    between atoms: N5_24  and  N6_26 
REMARK    7  A    between atoms: C20_30  and  N7_31 
REMARK    8  A    between atoms: N7_31  and  C21_32 
REMARK    9  A    between atoms: N7_31  and  C23_34 
REMARK   10  A    between atoms: C23_34  and  C24_35 
ROOT
HETATM    1  N2  UNL     1       2.542  -1.121  -0.046  1.00  0.00    -0.361 N 
HETATM    2  C6  UNL     1       3.015  -2.471   0.048  1.00  0.00     0.134 C 
HETATM    3  C7  UNL     1       2.511  -3.384  -1.019  1.00  0.00    -0.027 C 
HETATM    4  C8  UNL     1       1.674  -4.531  -0.433  1.00  0.00     0.016 C 
HETATM    5  C9  UNL     1       3.721  -4.073  -1.657  1.00  0.00     0.016 C 
HETATM    6  C10 UNL     1       1.754  -2.719  -2.116  1.00  0.00     0.054 C 
HETATM    7  C11 UNL     1       0.855  -1.649  -1.660  1.00  0.00     0.003 A 
HETATM    8  C12 UNL     1      -0.392  -1.402  -2.232  1.00  0.00     0.117 A 
HETATM    9  N3  UNL     1      -1.146  -0.390  -1.740  1.00  0.00    -0.201 N 
ATOM     10  H3  UNL     1      -2.058  -0.206  -2.157  1.00  0.00     0.183 HD
HETATM   11  C13 UNL     1      -0.731   0.379  -0.721  1.00  0.00     0.684 A 
HETATM   12  N8  UNL     1       0.472   0.135  -0.176  1.00  0.00    -0.176 N 
ATOM     13  H8  UNL     1       0.792   0.718   0.598  1.00  0.00     0.186 HD
HETATM   14  C25 UNL     1       1.269  -0.856  -0.620  1.00  0.00     0.127 A 
ENDROOT
BRANCH  11  15
HETATM   15  N4  UNL     1      -1.513   1.315  -0.314  1.00  0.00    -0.189 N 
ATOM     16  H4  UNL     1      -1.182   1.891   0.460  1.00  0.00     0.184 HD
BRANCH  15  17
HETATM   17  C14 UNL     1      -2.772   1.615  -0.834  1.00  0.00     0.075 A 
HETATM   18  C15 UNL     1      -2.870   2.440  -1.940  1.00  0.00     0.034 A 
HETATM   19  C16 UNL     1      -4.102   2.781  -2.507  1.00  0.00     0.033 A 
HETATM   20  C17 UNL     1      -5.268   2.276  -1.944  1.00  0.00     0.052 A 
HETATM   21  C19 UNL     1      -5.157   1.453  -0.840  1.00  0.00     0.062 A 
HETATM   22  C20 UNL     1      -3.940   1.116  -0.279  1.00  0.00     0.060 A 
BRANCH  20  23
HETATM   23  N5  UNL     1      -6.532   2.604  -2.504  1.00  0.00    -0.303 N 
HETATM   24  C18 UNL     1      -7.258   3.769  -2.053  1.00  0.00     0.177 C 
BRANCH  23  25
HETATM   25  N6  UNL     1      -7.088   1.798  -3.500  1.00  0.00    -0.343 N 
ATOM     26  H62 UNL     1      -6.575   0.976  -3.818  1.00  0.00     0.177 HD
ATOM     27  H61 UNL     1      -7.995   2.033  -3.902  1.00  0.00     0.177 HD
ENDBRANCH  23  25
ENDBRANCH  20  23
BRANCH  22  28
HETATM   28  N7  UNL     1      -3.936   0.261   0.855  1.00  0.00    -0.378 N 
BRANCH  28  29
HETATM   29  C21 UNL     1      -3.309   0.723   2.082  1.00  0.00     0.118 C 
HETATM   30  C22 UNL     1      -4.349   0.960   3.153  1.00  0.00     0.026 C 
ENDBRANCH  28  29
BRANCH  28  31
HETATM   31  C23 UNL     1      -4.529  -1.060   0.888  1.00  0.00     0.138 C 
BRANCH  31  32
HETATM   32  C24 UNL     1      -3.469  -2.108   1.021  1.00  0.00     0.134 C 
HETATM   33 CL1  UNL     1      -4.253  -3.726   1.061  1.00  0.00    -0.129 Cl
ENDBRANCH  31  32
ENDBRANCH  28  31
ENDBRANCH  22  28
ENDBRANCH  15  17
ENDBRANCH  11  15
BRANCH   1  34
HETATM   34  C5  UNL     1       3.327   0.017   0.435  1.00  0.00     0.089 C 
HETATM   35  C4  UNL     1       3.596  -0.214   1.899  1.00  0.00     0.055 C 
HETATM   36  C3  UNL     1       5.000   0.213   2.300  1.00  0.00     0.274 C 
HETATM   37  N1  UNL     1       5.339   1.379   1.536  1.00  0.00     0.088 N 
HETATM   38  C27 UNL     1       5.582   1.067   0.142  1.00  0.00     0.274 C 
HETATM   39  C26 UNL     1       4.574   0.087  -0.406  1.00  0.00     0.055 C 
BRANCH  37  40
HETATM   40  C2  UNL     1       6.472   2.056   2.137  1.00  0.00     0.268 C 
HETATM   41  C1  UNL     1       6.850   3.294   1.348  1.00  0.00     0.037 C 
ENDBRANCH  37  40
ENDBRANCH   1  34
TORSDOF 10
