REMARK  10 active torsions:
REMARK  status: ('A' for Active; 'I' for Inactive)
REMARK    1  A    between atoms: C2_2  and  O1_3 
REMARK    2  A    between atoms: O1_3  and  C3_4 
REMARK    3  A    between atoms: C3_4  and  C4_6 
REMARK    4  A    between atoms: C10_13  and  O3_14 
REMARK    5  A    between atoms: N1_16  and  C11_17 
REMARK    6  A    between atoms: C11_17  and  C12_18 
REMARK    7  A    between atoms: C16_23  and  C17_24 
REMARK       I    between atoms: C17_24  and  N2_26 
REMARK    8  A    between atoms: N2_26  and  C18_28 
REMARK    9  A    between atoms: N3_35  and  C25_36 
REMARK   10  A    between atoms: C25_36  and  C26_37 
ROOT
HETATM    1  C4  UNL     1      -2.883  -1.025  -0.165  1.00  0.00     0.096 C 
HETATM    2  C5  UNL     1      -2.278  -0.007  -1.101  1.00  0.00     0.054 C 
HETATM    3  C6  UNL     1      -1.679   1.150  -0.378  1.00  0.00     0.262 C 
HETATM    4  C7  UNL     1      -0.171   0.974  -0.353  1.00  0.00     0.239 C 
HETATM    5  F1  UNL     1       0.236   1.205  -1.680  1.00  0.00    -0.242 F 
HETATM    6  C8  UNL     1       0.255  -0.377   0.002  1.00  0.00     0.021 A 
HETATM    7  C9  UNL     1      -0.510  -1.410   0.534  1.00  0.00     0.010 A 
HETATM    8  C10 UNL     1       0.266  -2.515   0.690  1.00  0.00     0.150 A 
HETATM    9  N1  UNL     1       1.532  -2.199   0.261  1.00  0.00    -0.316 N 
HETATM   10  C16 UNL     1       1.538  -0.894  -0.162  1.00  0.00     0.115 A 
HETATM   11  C22 UNL     1      -1.957  -1.445   0.919  1.00  0.00     0.039 C 
HETATM   12  C23 UNL     1      -2.127  -0.619   2.163  1.00  0.00     0.041 C 
HETATM   13  C24 UNL     1      -1.712   0.808   2.016  1.00  0.00     0.273 C 
HETATM   14  N3  UNL     1      -2.265   1.486   0.869  1.00  0.00     0.096 N 
ENDROOT
BRANCH  10  15
HETATM   15  C17 UNL     1       2.690  -0.165  -0.646  1.00  0.00     0.269 C 
HETATM   16  O5  UNL     1       3.547  -0.841  -1.322  1.00  0.00    -0.266 OA
HETATM   17  N2  UNL     1       3.002   1.178  -0.472  1.00  0.00    -0.351 N 
ATOM     18  H2  UNL     1       2.354   1.755   0.064  1.00  0.00     0.163 HD
BRANCH  17  19
HETATM   19  C18 UNL     1       4.193   1.808  -1.007  1.00  0.00     0.084 C 
HETATM   20  C19 UNL     1       3.949   2.920  -1.995  1.00  0.00     0.025 C 
HETATM   21  C20 UNL     1       5.224   3.564  -1.423  1.00  0.00     0.004 C 
HETATM   22  C21 UNL     1       4.861   2.830  -0.123  1.00  0.00     0.025 C 
ENDBRANCH  17  19
ENDBRANCH  10  15
BRANCH   9  23
HETATM   23  C11 UNL     1       2.632  -3.096   0.281  1.00  0.00     0.196 C 
BRANCH  23  24
HETATM   24  C12 UNL     1       3.394  -3.105   1.564  1.00  0.00     0.070 A 
HETATM   25  C13 UNL     1       4.459  -2.273   1.805  1.00  0.00     0.036 A 
HETATM   26  C14 UNL     1       4.931  -2.538   3.073  1.00  0.00     0.027 A 
HETATM   27  C15 UNL     1       4.101  -3.543   3.536  1.00  0.00     0.142 A 
HETATM   28  O4  UNL     1       3.224  -3.835   2.617  1.00  0.00    -0.325 OA
ENDBRANCH  23  24
ENDBRANCH   9  23
BRANCH   8  29
HETATM   29  O3  UNL     1      -0.125  -3.734   1.184  1.00  0.00    -0.345 OA
ATOM     30  H3  UNL     1       0.417  -4.506   1.293  1.00  0.00     0.219 HD
ENDBRANCH   8  29
BRANCH  14  31
HETATM   31  C25 UNL     1      -2.047   2.919   1.121  1.00  0.00     0.277 C 
BRANCH  31  32
HETATM   32  C26 UNL     1      -2.823   3.788   0.159  1.00  0.00     0.014 A 
HETATM   33  C27 UNL     1      -4.287   3.745   0.061  1.00  0.00     0.007 A 
HETATM   34  C28 UNL     1      -3.649   4.936   0.745  1.00  0.00     0.007 A 
ENDBRANCH  31  32
ENDBRANCH  14  31
BRANCH   1  35
HETATM   35  C3  UNL     1      -3.307  -2.197  -0.960  1.00  0.00     0.263 C 
HETATM   36  O2  UNL     1      -2.841  -3.359  -0.798  1.00  0.00    -0.265 OA
BRANCH  35  37
HETATM   37  O1  UNL     1      -4.277  -2.091  -1.968  1.00  0.00    -0.322 OA
BRANCH  37  38
HETATM   38  C2  UNL     1      -4.714  -3.164  -2.749  1.00  0.00     0.174 C 
HETATM   39  C1  UNL     1      -3.633  -3.809  -3.551  1.00  0.00     0.034 C 
ENDBRANCH  37  38
ENDBRANCH  35  37
ENDBRANCH   1  35
TORSDOF 10
