REMARK  5 active torsions:
REMARK  status: ('A' for Active; 'I' for Inactive)
REMARK    1  A    between atoms: O1_2  and  C2_3 
REMARK    2  A    between atoms: C4_5  and  N1_6 
REMARK    3  A    between atoms: N1_6  and  C5_8 
REMARK    4  A    between atoms: C6_11  and  N3_12 
REMARK    5  A    between atoms: N5_20  and  C10_21 
ROOT
HETATM    1  C5  UNL     1       0.737  -0.236  -0.461  1.00  0.00     0.685 A 
HETATM    2  N2  UNL     1       0.864   1.072  -0.307  1.00  0.00    -0.176 N 
ATOM      3  H2  UNL     1       1.780   1.493  -0.463  1.00  0.00     0.186 HD
HETATM    4  C6  UNL     1      -0.170   1.883   0.050  1.00  0.00     0.134 A 
HETATM    5  C7  UNL     1      -1.390   1.286   0.252  1.00  0.00     0.123 A 
HETATM    6  C8  UNL     1      -2.650   1.718   0.609  1.00  0.00     0.279 A 
HETATM    7  O2  UNL     1      -2.979   2.909   0.854  1.00  0.00    -0.265 OA
HETATM    8  N4  UNL     1      -3.503   0.680   0.663  1.00  0.00    -0.257 N 
HETATM    9  C9  UNL     1      -4.909   0.756   1.003  1.00  0.00     0.181 C 
HETATM   10  N5  UNL     1      -2.829  -0.412   0.351  1.00  0.00    -0.266 N 
HETATM   11  C13 UNL     1      -1.541  -0.082   0.096  1.00  0.00     0.158 A 
HETATM   12  N6  UNL     1      -0.461  -0.792  -0.258  1.00  0.00    -0.174 N 
ATOM     13  H6  UNL     1      -0.558  -1.800  -0.378  1.00  0.00     0.186 HD
ENDROOT
BRANCH   1  14
HETATM   14  N1  UNL     1       1.772  -0.943  -0.803  1.00  0.00    -0.191 N 
ATOM     15  H1  UNL     1       1.679  -1.952  -0.923  1.00  0.00     0.184 HD
BRANCH  14  16
HETATM   16  C4  UNL     1       3.031  -0.321  -1.011  1.00  0.00     0.053 A 
HETATM   17  C3  UNL     1       3.932  -0.163   0.041  1.00  0.00     0.068 A 
HETATM   18  C2  UNL     1       5.156   0.436  -0.138  1.00  0.00     0.093 A 
HETATM   19  C16 UNL     1       5.483   0.888  -1.412  1.00  0.00     0.089 A 
HETATM   20  C15 UNL     1       4.579   0.724  -2.448  1.00  0.00     0.060 A 
HETATM   21 CL2  UNL     1       7.029   1.650  -1.665  1.00  0.00    -0.080 Cl
HETATM   22  C14 UNL     1       3.348   0.124  -2.277  1.00  0.00     0.056 A 
HETATM   23 CL1  UNL     1       4.973   1.288  -4.063  1.00  0.00    -0.082 Cl
BRANCH  18  24
HETATM   24  O1  UNL     1       6.064   0.603   0.892  1.00  0.00    -0.354 OA
HETATM   25  C1  UNL     1       5.718   0.139   2.181  1.00  0.00     0.210 C 
ENDBRANCH  18  24
ENDBRANCH  14  16
ENDBRANCH   1  14
BRANCH   4  26
HETATM   26  N3  UNL     1      -0.018   3.141   0.191  1.00  0.00    -0.384 N 
ATOM     27  H32 UNL     1       0.888   3.584   0.041  1.00  0.00     0.157 HD
ATOM     28  H31 UNL     1      -0.793   3.748   0.458  1.00  0.00     0.157 HD
ENDBRANCH   4  26
BRANCH  10  29
HETATM   29  C10 UNL     1      -3.321  -1.760   0.276  1.00  0.00     0.102 C 
HETATM   30  C11 UNL     1      -3.992  -2.071  -1.037  1.00  0.00     0.034 C 
HETATM   31  C12 UNL     1      -4.289  -2.113   1.382  1.00  0.00     0.034 C 
ENDBRANCH  10  29
TORSDOF 5
