REMARK  6 active torsions:
REMARK  status: ('A' for Active; 'I' for Inactive)
REMARK    1  A    between atoms: O1_2  and  C2_3 
REMARK    2  A    between atoms: C4_5  and  O2_6 
REMARK    3  A    between atoms: O2_6  and  C5_7 
REMARK    4  A    between atoms: C5_7  and  C6_8 
REMARK    5  A    between atoms: C8_10  and  O3_11 
REMARK    6  A    between atoms: C9_13  and  O4_14 
ROOT
HETATM    1  C2  UNL     1       3.663   0.589   0.418  1.00  0.00     0.092 A 
HETATM    2  C3  UNL     1       2.314   0.331   0.309  1.00  0.00     0.076 A 
HETATM    3  C4  UNL     1       1.781  -0.513  -0.624  1.00  0.00     0.093 A 
HETATM    4  C14 UNL     1       2.644  -1.137  -1.498  1.00  0.00     0.074 A 
HETATM    5 CL2  UNL     1       1.964  -2.218  -2.691  1.00  0.00    -0.081 Cl
HETATM    6  C15 UNL     1       4.025  -0.912  -1.432  1.00  0.00    -0.014 A 
HETATM    7  C16 UNL     1       4.916  -1.608  -2.396  1.00  0.00     0.052 C 
HETATM    8  C17 UNL     1       4.504  -0.047  -0.467  1.00  0.00     0.085 A 
HETATM    9  C18 UNL     1       5.897   0.211  -0.365  1.00  0.00     0.103 C 
HETATM   10  N1  UNL     1       7.020   0.399  -0.279  1.00  0.00    -0.191 NA
ENDROOT
BRANCH   1  11
HETATM   11  O1  UNL     1       4.142   1.457   1.386  1.00  0.00    -0.354 OA
HETATM   12  C1  UNL     1       3.221   2.073   2.259  1.00  0.00     0.210 C 
ENDBRANCH   1  11
BRANCH   3  13
HETATM   13  O2  UNL     1       0.417  -0.743  -0.697  1.00  0.00    -0.348 OA
BRANCH  13  14
HETATM   14  C5  UNL     1      -0.488  -0.113   0.191  1.00  0.00     0.188 C 
BRANCH  14  15
HETATM   15  C6  UNL     1      -1.895  -0.549  -0.124  1.00  0.00     0.015 C 
HETATM   16  C7  UNL     1      -1.934  -2.064   0.050  1.00  0.00     0.021 C 
HETATM   17  C8  UNL     1      -2.197  -0.213  -1.544  1.00  0.00     0.159 C 
HETATM   18  C9  UNL     1      -3.059   1.003  -1.492  1.00  0.00     0.167 C 
HETATM   19  C10 UNL     1      -3.795   0.881  -0.171  1.00  0.00     0.122 C 
HETATM   20 CL1  UNL     1      -5.372   0.102  -0.353  1.00  0.00    -0.121 Cl
HETATM   21  C11 UNL     1      -2.877   0.145   0.759  1.00  0.00    -0.017 C 
HETATM   22  C12 UNL     1      -2.192   1.206   1.629  1.00  0.00     0.017 C 
HETATM   23  C13 UNL     1      -3.603  -0.776   1.701  1.00  0.00     0.017 C 
BRANCH  17  24
HETATM   24  O3  UNL     1      -2.885  -1.226  -2.221  1.00  0.00    -0.392 OA
ATOM     25  H3  UNL     1      -3.078  -1.012  -3.126  1.00  0.00     0.210 HD
ENDBRANCH  17  24
BRANCH  18  26
HETATM   26  O4  UNL     1      -2.350   2.182  -1.592  1.00  0.00    -0.391 OA
ATOM     27  H4  UNL     1      -2.899   2.957  -1.559  1.00  0.00     0.210 HD
ENDBRANCH  18  26
ENDBRANCH  14  15
ENDBRANCH  13  14
ENDBRANCH   3  13
TORSDOF 6
