REMARK  4 active torsions:
REMARK  status: ('A' for Active; 'I' for Inactive)
REMARK    1  A    between atoms: O1_2  and  C2_3 
REMARK    2  A    between atoms: C4_12  and  S1_13 
REMARK    3  A    between atoms: S1_13  and  C5_16 
REMARK    4  A    between atoms: C9_21  and  C10_22 
ROOT
HETATM    1  S1  UNL     1       1.462  -1.474  -0.606  1.00  0.00     0.215 S 
HETATM    2  O2  UNL     1       1.332  -1.705   0.866  1.00  0.00    -0.217 OA
HETATM    3  O3  UNL     1       1.215  -2.785  -1.336  1.00  0.00    -0.217 OA
ENDROOT
BRANCH   1   4
HETATM    4  C4  UNL     1       3.142  -1.002  -0.901  1.00  0.00     0.176 A 
HETATM    5  N3  UNL     1       3.722  -1.393  -2.028  1.00  0.00    -0.179 N 
HETATM    6  C3  UNL     1       5.018  -1.051  -2.298  1.00  0.00     0.678 A 
ATOM      7  H3  UNL     1       3.197  -1.954  -2.699  1.00  0.00     0.185 HD
HETATM    8  N1  UNL     1       5.694  -0.323  -1.420  1.00  0.00    -0.169 N 
HETATM    9  N2  UNL     1       5.553  -1.435  -3.382  1.00  0.00    -0.234 N 
HETATM   10  C2  UNL     1       5.144   0.099  -0.255  1.00  0.00     0.184 A 
ATOM     11  H1  UNL     1       6.660  -0.072  -1.628  1.00  0.00     0.186 HD
HETATM   12  C17 UNL     1       3.822  -0.255   0.009  1.00  0.00     0.136 A 
HETATM   13  N4  UNL     1       3.200   0.159   1.207  1.00  0.00    -0.095 NA
ATOM     14  H22 UNL     1       6.520  -1.180  -3.583  1.00  0.00     0.174 HD
ATOM     15  H21 UNL     1       5.033  -1.995  -4.057  1.00  0.00     0.174 HD
BRANCH  10  16
HETATM   16  O1  UNL     1       5.859   0.856   0.647  1.00  0.00    -0.339 OA
HETATM   17  C1  UNL     1       6.717   0.285   1.614  1.00  0.00     0.211 C 
ENDBRANCH  10  16
ENDBRANCH   1   4
BRANCH   1  18
HETATM   18  C5  UNL     1       0.412  -0.278  -1.236  1.00  0.00     0.122 C 
HETATM   19  C6  UNL     1      -0.839  -0.063  -1.064  1.00  0.00    -0.027 C 
HETATM   20  C7  UNL     1      -1.491   1.147  -1.811  1.00  0.00     0.201 C 
HETATM   21  C14 UNL     1      -2.017  -0.561  -0.371  1.00  0.00    -0.016 C 
HETATM   22  F1  UNL     1      -0.551   2.038  -2.200  1.00  0.00    -0.245 F 
HETATM   23  C8  UNL     1      -2.438   1.696  -0.766  1.00  0.00     0.048 C 
HETATM   24  C9  UNL     1      -2.416   0.687   0.368  1.00  0.00     0.008 C 
HETATM   25  C15 UNL     1      -3.028  -0.914  -1.459  1.00  0.00     0.020 C 
HETATM   26  C16 UNL     1      -1.803  -1.741   0.472  1.00  0.00     0.020 C 
BRANCH  24  27
HETATM   27  C10 UNL     1      -3.617   0.706   1.182  1.00  0.00    -0.047 C 
HETATM   28  C11 UNL     1      -3.707   2.144   1.760  1.00  0.00     0.015 C 
HETATM   29  C12 UNL     1      -4.945   0.548   0.454  1.00  0.00     0.015 C 
HETATM   30  C13 UNL     1      -3.677  -0.187   2.368  1.00  0.00     0.015 C 
ENDBRANCH  24  27
ENDBRANCH   1  18
TORSDOF 4
