REMARK  5 active torsions:
REMARK  status: ('A' for Active; 'I' for Inactive)
REMARK    1  A    between atoms: C3_5  and  N2_6 
REMARK    2  A    between atoms: C4_7  and  N3_8 
REMARK    3  A    between atoms: N3_8  and  N4_10 
REMARK    4  A    between atoms: C7_17  and  N6_18 
REMARK    5  A    between atoms: C8_21  and  N7_22 
ROOT
HETATM    1  N2  UNL     1       0.082  -0.084  -0.102  1.00  0.00     0.043 N 
HETATM    2  C4  UNL     1      -0.684  -1.192  -0.112  1.00  0.00     0.719 A 
HETATM    3  N5  UNL     1      -2.029  -1.095  -0.020  1.00  0.00    -0.191 N 
ATOM      4  H5  UNL     1      -2.624  -1.923  -0.026  1.00  0.00     0.184 HD
HETATM    5  C5  UNL     1      -2.547   0.140   0.080  1.00  0.00     0.059 A 
HETATM    6  C6  UNL     1      -4.021   0.284   0.181  1.00  0.00     0.071 C 
HETATM    7  C7  UNL     1      -1.810   1.303   0.095  1.00  0.00     0.170 A 
HETATM    8  C8  UNL     1      -0.440   1.164  -0.002  1.00  0.00     0.176 A 
ENDROOT
BRANCH   1   9
HETATM    9  C3  UNL     1       1.493  -0.246  -0.203  1.00  0.00     0.721 A 
HETATM   10  N1  UNL     1       2.393   0.564   0.360  1.00  0.00    -0.177 N 
HETATM   11  C2  UNL     1       3.627   0.119   0.063  1.00  0.00     0.108 A 
ATOM     12  H1  UNL     1       2.179   1.387   0.924  1.00  0.00     0.185 HD
HETATM   13  C1  UNL     1       4.895   0.736   0.497  1.00  0.00     0.091 C 
HETATM   14  N9  UNL     1       3.498  -0.978  -0.692  1.00  0.00    -0.275 N 
HETATM   15  N8  UNL     1       2.201  -1.187  -0.844  1.00  0.00    -0.130 N 
ATOM     16  H9  UNL     1       4.254  -1.544  -1.076  1.00  0.00     0.189 HD
ATOM     17  H8  UNL     1       1.795  -1.957  -1.375  1.00  0.00     0.205 HD
ENDBRANCH   1   9
BRANCH   2  18
HETATM   18  N3  UNL     1      -0.140  -2.375  -0.210  1.00  0.00    -0.137 N 
ATOM     19  H3  UNL     1       0.875  -2.443  -0.279  1.00  0.00     0.205 HD
BRANCH  18  20
HETATM   20  N4  UNL     1      -0.883  -3.534  -0.224  1.00  0.00    -0.331 N 
ATOM     21  H42 UNL     1      -1.897  -3.448  -0.154  1.00  0.00     0.177 HD
ATOM     22  H41 UNL     1      -0.458  -4.458  -0.301  1.00  0.00     0.177 HD
ENDBRANCH  18  20
ENDBRANCH   2  18
BRANCH   8  23
HETATM   23  N7  UNL     1       0.341   2.201   0.003  1.00  0.00    -0.382 N 
ATOM     24  H72 UNL     1       1.353   2.098  -0.069  1.00  0.00     0.157 HD
ATOM     25  H71 UNL     1      -0.052   3.139   0.078  1.00  0.00     0.157 HD
ENDBRANCH   8  23
BRANCH   7  26
HETATM   26  N6  UNL     1      -2.380   2.599   0.205  1.00  0.00    -0.110 N 
HETATM   27  O1  UNL     1      -2.965   3.056  -0.792  1.00  0.00    -0.532 OA
HETATM   28  O2  UNL     1      -2.318   3.360   1.342  1.00  0.00    -0.532 OA
ENDBRANCH   7  26
TORSDOF 5
