REMARK  11 active torsions:
REMARK  status: ('A' for Active; 'I' for Inactive)
REMARK    1  A    between atoms: N2_4  and  N3_6 
REMARK    2  A    between atoms: N3_6  and  C1_8 
REMARK    3  A    between atoms: N4_9  and  C2_11 
REMARK    4  A    between atoms: C2_11  and  C3_12 
REMARK    5  A    between atoms: C3_12  and  C4_13 
REMARK    6  A    between atoms: C4_13  and  C5_14 
REMARK    7  A    between atoms: C5_14  and  C6_15 
REMARK    8  A    between atoms: C6_15  and  C7_16 
REMARK    9  A    between atoms: C7_16  and  O1_17 
REMARK   10  A    between atoms: C7_16  and  N5_19 
REMARK   11  A    between atoms: N5_19  and  N6_21 
ROOT
HETATM    1  C5  UNL     1       0.684  -0.716  -0.260  1.00  0.00     0.004 C 
ENDROOT
BRANCH   1   2
HETATM    2  C4  UNL     1       2.165  -0.508   0.070  1.00  0.00     0.002 C 
BRANCH   2   3
HETATM    3  C3  UNL     1       3.010  -1.614  -0.502  1.00  0.00     0.020 C 
BRANCH   3   4
HETATM    4  C2  UNL     1       4.467  -1.305  -0.123  1.00  0.00     0.120 C 
BRANCH   4   5
HETATM    5  N4  UNL     1       4.788  -0.030  -0.704  1.00  0.00    -0.385 N 
HETATM    6  C1  UNL     1       5.602   0.814  -0.218  1.00  0.00     0.194 C 
ATOM      7  H4  UNL     1       4.324   0.217  -1.578  1.00  0.00     0.160 HD
BRANCH   6   8
HETATM    8  N3  UNL     1       5.819   2.037  -0.907  1.00  0.00    -0.283 N 
ATOM      9  H3  UNL     1       5.872   2.029  -1.926  1.00  0.00     0.189 HD
BRANCH   8  10
HETATM   10  N2  UNL     1       5.961   3.246  -0.233  1.00  0.00    -0.248 N 
HETATM   11  N1  UNL     1       6.727   4.123  -0.716  1.00  0.00    -0.331 N 
ATOM     12  H12 UNL     1       7.226   3.934  -1.585  1.00  0.00     0.178 HD
ATOM     13  H11 UNL     1       6.831   5.009  -0.222  1.00  0.00     0.178 HD
ATOM     14  H2  UNL     1       5.455   3.419   0.635  1.00  0.00     0.207 HD
ENDBRANCH   8  10
ENDBRANCH   6   8
ENDBRANCH   4   5
ENDBRANCH   3   4
ENDBRANCH   2   3
ENDBRANCH   1   2
BRANCH   1  15
HETATM   15  C6  UNL     1       0.178  -1.997   0.303  1.00  0.00     0.055 C 
BRANCH  15  16
HETATM   16  C7  UNL     1      -1.251  -2.270  -0.021  1.00  0.00     0.233 C 
BRANCH  16  17
HETATM   17  O1  UNL     1      -1.346  -2.304  -1.435  1.00  0.00    -0.376 OA
ATOM     18  H1  UNL     1      -2.257  -2.478  -1.642  1.00  0.00     0.212 HD
ENDBRANCH  16  17
BRANCH  16  19
HETATM   19  N5  UNL     1      -2.183  -1.401   0.591  1.00  0.00    -0.308 N 
ATOM     20  H5  UNL     1      -2.792  -1.768   1.322  1.00  0.00     0.183 HD
BRANCH  19  21
HETATM   21  N6  UNL     1      -2.299  -0.064   0.231  1.00  0.00    -0.311 N 
HETATM   22  C8  UNL     1      -3.405   0.556   0.373  1.00  0.00     0.007 C 
HETATM   23  C9  UNL     1      -4.578  -0.149   0.925  1.00  0.00     0.080 C 
HETATM   24  C12 UNL     1      -3.551   1.976  -0.002  1.00  0.00     0.080 C 
HETATM   25  C10 UNL     1      -5.807   0.523   0.409  1.00  0.00     0.173 C 
HETATM   26  O2  UNL     1      -5.876   1.876   0.604  1.00  0.00    -0.390 OA
HETATM   27  C11 UNL     1      -4.695   2.519   0.864  1.00  0.00     0.173 C 
ATOM     28  H6  UNL     1      -1.491   0.427  -0.151  1.00  0.00     0.186 HD
ENDBRANCH  19  21
ENDBRANCH  16  19
ENDBRANCH  15  16
ENDBRANCH   1  15
TORSDOF 11
