REMARK  2 active torsions:
REMARK  status: ('A' for Active; 'I' for Inactive)
REMARK       I    between atoms: N2_3  and  C2_5 
REMARK    1  A    between atoms: C2_5  and  C3_7 
REMARK       I    between atoms: C3_7  and  N3_9 
REMARK    2  A    between atoms: N3_9  and  N4_11 
ROOT
HETATM    1  C3  UNL     1       1.098   0.367  -0.198  1.00  0.00     0.327 C 
HETATM    2  O2  UNL     1       1.069   1.510  -0.698  1.00  0.00    -0.261 OA
HETATM    3  N3  UNL     1       2.336  -0.218   0.149  1.00  0.00    -0.268 N 
ATOM      4  H3  UNL     1       2.360  -1.153   0.557  1.00  0.00     0.190 HD
ENDROOT
BRANCH   1   5
HETATM    5  C2  UNL     1      -0.124  -0.346   0.021  1.00  0.00     0.315 C 
HETATM    6  N2  UNL     1      -1.359   0.235  -0.325  1.00  0.00    -0.317 N 
HETATM    7  C1  UNL     1      -2.502  -0.286  -0.015  1.00  0.00     0.192 C 
ATOM      8  H2  UNL     1      -1.352   1.111  -0.847  1.00  0.00     0.169 HD
HETATM    9  N1  UNL     1      -3.731   0.321  -0.376  1.00  0.00    -0.097 NA
HETATM   10  O1  UNL     1      -0.101  -1.487   0.519  1.00  0.00    -0.262 OA
ENDBRANCH   1   5
BRANCH   3  11
HETATM   11  N4  UNL     1       3.516   0.471  -0.062  1.00  0.00    -0.342 N 
ATOM     12  H42 UNL     1       3.475   1.405  -0.471  1.00  0.00     0.176 HD
ATOM     13  H41 UNL     1       4.410   0.049   0.189  1.00  0.00     0.176 HD
ENDBRANCH   3  11
TORSDOF 2
