REMARK  18 active torsions:
REMARK  status: ('A' for Active; 'I' for Inactive)
REMARK    1  A    between atoms: C2_2  and  C4_4 
REMARK    2  A    between atoms: C4_4  and  C5_5 
REMARK    3  A    between atoms: C5_5  and  N1_6 
REMARK    4  A    between atoms: C5_5  and  C9_16 
REMARK       I    between atoms: N1_6  and  C6_8 
REMARK    5  A    between atoms: C6_8  and  C7_10 
REMARK    6  A    between atoms: C7_10  and  N2_12 
REMARK       I    between atoms: C9_16  and  N3_18 
REMARK    7  A    between atoms: N3_18  and  C10_20 
REMARK    8  A    between atoms: C10_20  and  C11_21 
REMARK    9  A    between atoms: C10_20  and  C26_47 
REMARK       I    between atoms: C11_21  and  N4_23 
REMARK   10  A    between atoms: N4_23  and  C12_25 
REMARK   11  A    between atoms: C12_25  and  C14_27 
REMARK       I    between atoms: C14_27  and  N5_29 
REMARK   12  A    between atoms: N5_29  and  C15_31 
REMARK   13  A    between atoms: C15_31  and  C16_32 
REMARK   14  A    between atoms: C15_31  and  C20_36 
REMARK   15  A    between atoms: C16_32  and  C17_33 
REMARK       I    between atoms: C20_36  and  N6_38 
REMARK   16  A    between atoms: N6_38  and  C21_40 
REMARK   17  A    between atoms: C21_40  and  C22_41 
REMARK   18  A    between atoms: C21_40  and  C23_44 
ROOT
HETATM    1  C11 UNL     1      -1.498  -1.300  -0.342  1.00  0.00     0.241 C 
HETATM    2  O3  UNL     1      -1.695  -0.156   0.237  1.00  0.00    -0.271 OA
HETATM    3  N4  UNL     1      -0.418  -1.447  -1.186  1.00  0.00    -0.346 N 
ATOM      4  H4  UNL     1      -0.240  -2.324  -1.675  1.00  0.00     0.163 HD
ENDROOT
BRANCH   1   5
HETATM    5  C10 UNL     1      -2.516  -2.311   0.013  1.00  0.00     0.180 C 
BRANCH   5   6
HETATM    6  N3  UNL     1      -3.845  -1.688  -0.040  1.00  0.00    -0.346 N 
HETATM    7  C9  UNL     1      -4.427  -1.113   1.108  1.00  0.00     0.241 C 
HETATM    8  O2  UNL     1      -3.866  -1.094   2.216  1.00  0.00    -0.271 OA
ATOM      9  H3  UNL     1      -4.356  -1.671  -0.923  1.00  0.00     0.163 HD
BRANCH   7  10
HETATM   10  C5  UNL     1      -5.805  -0.467   1.036  1.00  0.00     0.177 C 
BRANCH  10  11
HETATM   11  C4  UNL     1      -6.241  -0.315  -0.348  1.00  0.00     0.038 C 
BRANCH  11  12
HETATM   12  C2  UNL     1      -7.591   0.293  -0.590  1.00  0.00    -0.020 C 
HETATM   13  C1  UNL     1      -7.856   0.304  -2.112  1.00  0.00     0.009 C 
HETATM   14  C3  UNL     1      -7.621   1.764  -0.181  1.00  0.00     0.009 C 
ENDBRANCH  11  12
ENDBRANCH  10  11
BRANCH  10  15
HETATM   15  N1  UNL     1      -5.712   0.734   1.826  1.00  0.00    -0.346 N 
HETATM   16  C6  UNL     1      -6.287   0.813   3.144  1.00  0.00     0.248 C 
HETATM   17  O1  UNL     1      -6.883  -0.200   3.576  1.00  0.00    -0.271 OA
ATOM     18  H1  UNL     1      -5.228   1.546   1.443  1.00  0.00     0.163 HD
BRANCH  16  19
HETATM   19  C7  UNL     1      -6.164   2.037   3.933  1.00  0.00     0.270 C 
HETATM   20  C8  UNL     1      -6.868   3.224   3.325  1.00  0.00     0.050 C 
BRANCH  19  21
HETATM   21  N2  UNL     1      -6.784   1.820   5.238  1.00  0.00    -0.067 N 
ATOM     22  H23 UNL     1      -7.750   1.501   5.162  1.00  0.00     0.275 HD
ATOM     23  H22 UNL     1      -6.403   1.006   5.720  1.00  0.00     0.275 HD
ATOM     24  H21 UNL     1      -6.698   2.674   5.789  1.00  0.00     0.275 HD
ENDBRANCH  19  21
ENDBRANCH  16  19
ENDBRANCH  10  15
ENDBRANCH   7  10
ENDBRANCH   5   6
BRANCH   5  25
HETATM   25  C26 UNL     1      -2.462  -3.610  -0.685  1.00  0.00     0.009 C 
HETATM   26  C27 UNL     1      -3.517  -4.521  -0.008  1.00  0.00     0.012 C 
HETATM   27  C28 UNL     1      -1.148  -4.354  -0.425  1.00  0.00     0.012 C 
ENDBRANCH   5  25
ENDBRANCH   1   5
BRANCH   3  28
HETATM   28  C12 UNL     1       0.465  -0.286  -1.351  1.00  0.00     0.172 C 
HETATM   29  C13 UNL     1       0.056   0.406  -2.656  1.00  0.00     0.042 C 
BRANCH  28  30
HETATM   30  C14 UNL     1       1.872  -0.680  -1.382  1.00  0.00     0.240 C 
HETATM   31  O4  UNL     1       2.212  -1.702  -2.025  1.00  0.00    -0.271 OA
HETATM   32  N5  UNL     1       2.847   0.061  -0.705  1.00  0.00    -0.346 N 
ATOM     33  H5  UNL     1       2.554   0.883  -0.176  1.00  0.00     0.163 HD
BRANCH  32  34
HETATM   34  C15 UNL     1       4.258  -0.287  -0.721  1.00  0.00     0.177 C 
BRANCH  34  35
HETATM   35  C16 UNL     1       4.592  -1.281   0.356  1.00  0.00     0.038 C 
BRANCH  35  36
HETATM   36  C17 UNL     1       4.331  -0.906   1.755  1.00  0.00    -0.020 C 
HETATM   37  C18 UNL     1       5.045   0.277   2.306  1.00  0.00     0.009 C 
HETATM   38  C19 UNL     1       4.744  -2.115   2.617  1.00  0.00     0.009 C 
ENDBRANCH  35  36
ENDBRANCH  34  35
BRANCH  34  39
HETATM   39  C20 UNL     1       5.057   0.931  -0.733  1.00  0.00     0.241 C 
HETATM   40  O5  UNL     1       4.500   2.052  -0.619  1.00  0.00    -0.271 OA
HETATM   41  N6  UNL     1       6.464   0.899  -0.873  1.00  0.00    -0.346 N 
ATOM     42  H6  UNL     1       6.894  -0.020  -0.978  1.00  0.00     0.163 HD
BRANCH  41  43
HETATM   43  C21 UNL     1       7.344   2.027  -0.882  1.00  0.00     0.177 C 
BRANCH  43  44
HETATM   44  C22 UNL     1       8.494   1.742  -0.018  1.00  0.00     0.254 C 
HETATM   45  N7  UNL     1       9.504   2.712   0.154  1.00  0.00    -0.060 NA
HETATM   46  O6  UNL     1       8.594   0.646   0.571  1.00  0.00    -0.275 OA
ENDBRANCH  43  44
BRANCH  43  47
HETATM   47  C23 UNL     1       7.755   2.286  -2.321  1.00  0.00     0.009 C 
HETATM   48  C24 UNL     1       6.548   2.579  -3.180  1.00  0.00     0.012 C 
HETATM   49  C25 UNL     1       8.549   1.196  -2.951  1.00  0.00     0.012 C 
ENDBRANCH  43  47
ENDBRANCH  41  43
ENDBRANCH  34  39
ENDBRANCH  32  34
ENDBRANCH  28  30
ENDBRANCH   3  28
TORSDOF 18
