REMARK  5 active torsions:
REMARK  status: ('A' for Active; 'I' for Inactive)
REMARK    1  A    between atoms: C5_5  and  C6_6 
REMARK    2  A    between atoms: C7_7  and  C8_8 
REMARK    3  A    between atoms: C10_10  and  O1_11 
REMARK    4  A    between atoms: C11_13  and  O2_14 
REMARK    5  A    between atoms: C12_16  and  O3_17 
ROOT
HETATM    1  C8  UNL     1       1.831  -0.963  -0.095  1.00  0.00     0.021 C 
HETATM    2  C9  UNL     1       2.595  -1.518  -1.248  1.00  0.00     0.043 C 
HETATM    3  C10 UNL     1       3.570  -0.557  -1.860  1.00  0.00     0.150 C 
HETATM    4  C11 UNL     1       4.512  -0.086  -0.797  1.00  0.00     0.176 C 
HETATM    5  C12 UNL     1       3.719   0.653   0.249  1.00  0.00     0.157 C 
HETATM    6  C13 UNL     1       2.677  -0.222   0.902  1.00  0.00    -0.012 C 
HETATM    7  C14 UNL     1       3.318  -1.214   1.851  1.00  0.00     0.018 C 
HETATM    8  C15 UNL     1       1.800   0.686   1.740  1.00  0.00     0.018 C 
ENDROOT
BRANCH   1   9
HETATM    9  C7  UNL     1       0.703  -0.119  -0.537  1.00  0.00    -0.024 C 
HETATM   10  C6  UNL     1      -0.597  -0.458  -0.370  1.00  0.00    -0.021 C 
BRANCH  10  11
HETATM   11  C5  UNL     1      -1.629   0.444  -0.841  1.00  0.00     0.043 C 
HETATM   12  C4  UNL     1      -2.401   0.969   0.322  1.00  0.00    -0.042 C 
HETATM   13  C3  UNL     1      -2.441   1.561   1.495  1.00  0.00     0.034 C 
HETATM   14  C19 UNL     1      -3.776   0.403   0.105  1.00  0.00     0.051 C 
HETATM   15  C2  UNL     1      -3.803   1.718   1.972  1.00  0.00     0.019 C 
HETATM   16  C1  UNL     1      -4.213   2.261   3.123  1.00  0.00     0.042 C 
HETATM   17  N1  UNL     1      -4.610   1.166   0.940  1.00  0.00    -0.378 N 
ATOM     18  H1  UNL     1      -5.615   1.300   0.826  1.00  0.00     0.160 HD
HETATM   19  C18 UNL     1      -3.947   0.497  -1.373  1.00  0.00     0.040 C 
HETATM   20  C20 UNL     1      -3.877  -1.041   0.584  1.00  0.00     0.043 C 
HETATM   21  C16 UNL     1      -2.590  -0.015  -1.851  1.00  0.00    -0.004 C 
HETATM   22  C17 UNL     1      -2.632  -1.487  -2.124  1.00  0.00     0.011 C 
ENDBRANCH  10  11
ENDBRANCH   1   9
BRANCH   3  23
HETATM   23  O1  UNL     1       2.968   0.539  -2.441  1.00  0.00    -0.393 OA
ATOM     24  H1  UNL     1       3.586   1.148  -2.829  1.00  0.00     0.210 HD
ENDBRANCH   3  23
BRANCH   5  25
HETATM   25  O3  UNL     1       3.182   1.797  -0.295  1.00  0.00    -0.392 OA
ATOM     26  H3  UNL     1       2.682   2.263   0.365  1.00  0.00     0.210 HD
ENDBRANCH   5  25
BRANCH   4  27
HETATM   27  O2  UNL     1       5.195  -1.122  -0.169  1.00  0.00    -0.390 OA
ATOM     28  H2  UNL     1       5.793  -0.823   0.506  1.00  0.00     0.210 HD
ENDBRANCH   4  27
TORSDOF 5
