REMARK  1 active torsions:
REMARK  status: ('A' for Active; 'I' for Inactive)
REMARK    1  A    between atoms: N1_1  and  C1_5 
ROOT
HETATM    1  C1  UNL     1      -1.796   0.064  -0.328  1.00  0.00     0.183 C 
HETATM    2  C2  UNL     1      -1.598  -1.343  -0.173  1.00  0.00     0.033 C 
HETATM    3  C3  UNL     1      -0.559  -2.095   0.460  1.00  0.00     0.002 C 
HETATM    4  C4  UNL     1       0.851  -2.192  -0.165  1.00  0.00     0.000 C 
HETATM    5  C5  UNL     1       1.342  -0.841  -0.077  1.00  0.00     0.000 C 
HETATM    6  C6  UNL     1       2.625  -0.203  -0.209  1.00  0.00     0.000 C 
HETATM    7  C7  UNL     1       2.271   1.298  -0.120  1.00  0.00     0.000 C 
HETATM    8  C8  UNL     1       1.120   1.696   0.715  1.00  0.00     0.000 C 
HETATM    9  C9  UNL     1      -0.208   1.928   0.076  1.00  0.00     0.002 C 
HETATM   10  C10 UNL     1      -1.393   1.118   0.639  1.00  0.00     0.033 C 
ENDROOT
BRANCH   1  11
HETATM   11  N1  UNL     1      -3.254   0.302  -0.553  1.00  0.00    -0.075 N 
ATOM     12  H13 UNL     1      -3.626  -0.238  -1.335  1.00  0.00     0.274 HD
ATOM     13  H12 UNL     1      -3.838  -0.100   0.180  1.00  0.00     0.274 HD
ATOM     14  H11 UNL     1      -3.395   1.306  -0.664  1.00  0.00     0.274 HD
ENDBRANCH   1  11
TORSDOF 1
