REMARK  9 active torsions:
REMARK  status: ('A' for Active; 'I' for Inactive)
REMARK    1  A    between atoms: C2_2  and  C3_4 
REMARK    2  A    between atoms: C3_4  and  N1_5 
REMARK    3  A    between atoms: N1_5  and  N2_7 
REMARK       I    between atoms: N2_7  and  C4_9 
REMARK       I    between atoms: C4_9  and  N4_13 
REMARK       I    between atoms: N4_13  and  C5_15 
REMARK    4  A    between atoms: C5_15  and  C6_17 
REMARK    5  A    between atoms: C6_17  and  O2_18 
REMARK    6  A    between atoms: O2_18  and  C7_19 
REMARK    7  A    between atoms: C12_24  and  C13_25 
REMARK    8  A    between atoms: C16_28  and  O3_29 
REMARK    9  A    between atoms: O3_29  and  C17_30 
ROOT
HETATM    1  C6  UNL     1       0.536  -0.304  -1.825  1.00  0.00     0.279 C 
ENDROOT
BRANCH   1   2
HETATM    2  C5  UNL     1       1.752   0.232  -1.195  1.00  0.00     0.260 C 
HETATM    3  N4  UNL     1       3.057   0.022  -1.728  1.00  0.00    -0.157 N 
HETATM    4  C4  UNL     1       4.233   0.537  -1.123  1.00  0.00     0.693 C 
ATOM      5  H4  UNL     1       3.150  -0.524  -2.584  1.00  0.00     0.187 HD
HETATM    6  N2  UNL     1       4.122   1.290   0.054  1.00  0.00    -0.125 N 
HETATM    7  N3  UNL     1       5.365   0.315  -1.650  1.00  0.00    -0.233 N 
ATOM      8  H2  UNL     1       3.892   2.279  -0.040  1.00  0.00     0.206 HD
ATOM      9  H32 UNL     1       6.210   0.685  -1.215  1.00  0.00     0.174 HD
ATOM     10  H31 UNL     1       5.446  -0.233  -2.507  1.00  0.00     0.174 HD
HETATM   11  O1  UNL     1       1.681   0.916  -0.129  1.00  0.00    -0.270 OA
BRANCH   6  12
HETATM   12  N1  UNL     1       4.303   0.787   1.354  1.00  0.00    -0.250 N 
ATOM     13  H1  UNL     1       3.659   1.012   2.112  1.00  0.00     0.197 HD
BRANCH  12  14
HETATM   14  C3  UNL     1       5.332   0.022   1.536  1.00  0.00    -0.006 C 
BRANCH  14  15
HETATM   15  C2  UNL     1       6.369  -0.747   1.355  1.00  0.00     0.071 C 
HETATM   16  C1  UNL     1       6.175  -2.171   1.104  1.00  0.00     0.073 C 
HETATM   17 CL1  UNL     1       7.964  -0.065   1.403  1.00  0.00    -0.079 Cl
ENDBRANCH  14  15
ENDBRANCH  12  14
ENDBRANCH   6  12
ENDBRANCH   1   2
BRANCH   1  18
HETATM   18  O2  UNL     1      -0.659   0.085  -1.213  1.00  0.00    -0.341 OA
BRANCH  18  19
HETATM   19  C7  UNL     1      -1.154   1.365  -1.100  1.00  0.00     0.080 A 
HETATM   20  C8  UNL     1      -0.524   2.491  -1.613  1.00  0.00     0.037 A 
HETATM   21  C9  UNL     1      -1.088   3.731  -1.457  1.00  0.00     0.003 A 
HETATM   22  C10 UNL     1      -2.285   3.884  -0.792  1.00  0.00     0.001 A 
HETATM   23  C11 UNL     1      -2.906   2.742  -0.284  1.00  0.00     0.015 A 
HETATM   24  C12 UNL     1      -2.359   1.491  -0.428  1.00  0.00     0.007 A 
BRANCH  24  25
HETATM   25  C13 UNL     1      -3.046   0.320   0.114  1.00  0.00    -0.023 A 
HETATM   26  C14 UNL     1      -3.542   0.305   1.400  1.00  0.00     0.015 A 
HETATM   27  C15 UNL     1      -4.208  -0.810   1.930  1.00  0.00     0.038 A 
HETATM   28  C16 UNL     1      -4.399  -1.948   1.190  1.00  0.00     0.074 A 
HETATM   29  C18 UNL     1      -3.884  -1.911  -0.119  1.00  0.00     0.038 A 
HETATM   30  C19 UNL     1      -3.232  -0.819  -0.638  1.00  0.00     0.015 A 
BRANCH  28  31
HETATM   31  O3  UNL     1      -5.040  -3.073   1.643  1.00  0.00    -0.290 OA
BRANCH  31  32
HETATM   32  C17 UNL     1      -5.593  -3.183   2.919  1.00  0.00     0.505 C 
HETATM   33  F1  UNL     1      -4.665  -3.010   3.911  1.00  0.00    -0.184 F 
HETATM   34  F2  UNL     1      -6.538  -2.151   3.052  1.00  0.00    -0.184 F 
ENDBRANCH  31  32
ENDBRANCH  28  31
ENDBRANCH  24  25
ENDBRANCH  18  19
ENDBRANCH   1  18
TORSDOF 9
