REMARK  13 active torsions:
REMARK  status: ('A' for Active; 'I' for Inactive)
REMARK       I    between atoms: C2_2  and  N1_4 
REMARK    1  A    between atoms: N1_4  and  C3_6 
REMARK    2  A    between atoms: C5_8  and  C6_9 
REMARK    3  A    between atoms: C6_9  and  O2_10 
REMARK    4  A    between atoms: C6_9  and  N2_12 
REMARK    5  A    between atoms: N3_14  and  N4_16 
REMARK    6  A    between atoms: C8_20  and  N6_21 
REMARK    7  A    between atoms: N6_21  and  C9_23 
REMARK    8  A    between atoms: C9_23  and  O3_24 
REMARK    9  A    between atoms: C9_23  and  C10_26 
REMARK   10  A    between atoms: C10_26  and  O4_27 
REMARK   11  A    between atoms: C10_26  and  O5_29 
REMARK   12  A    between atoms: O5_29  and  C11_30 
REMARK   13  A    between atoms: C13_36  and  N9_37 
ROOT
HETATM    1  C11 UNL     1       6.297  -2.339   0.395  1.00  0.00     0.367 C 
HETATM    2  O6  UNL     1       7.116  -1.672   1.074  1.00  0.00    -0.247 OA
HETATM    3  C12 UNL     1       6.449  -3.759   0.341  1.00  0.00     0.170 C 
HETATM    4  N7  UNL     1       6.584  -4.905   0.287  1.00  0.00    -0.186 NA
ENDROOT
BRANCH   1   5
HETATM    5  O5  UNL     1       5.294  -1.650  -0.261  1.00  0.00    -0.274 OA
BRANCH   5   6
HETATM    6  C10 UNL     1       5.201  -0.244  -0.165  1.00  0.00     0.316 C 
BRANCH   6   7
HETATM    7  C9  UNL     1       5.264   0.416  -1.525  1.00  0.00     0.276 C 
BRANCH   7   8
HETATM    8  N6  UNL     1       5.101   1.838  -1.348  1.00  0.00    -0.331 N 
ATOM      9  H6  UNL     1       5.835   2.484  -1.637  1.00  0.00     0.165 HD
BRANCH   8  10
HETATM   10  C8  UNL     1       3.901   2.323  -0.765  1.00  0.00     0.195 A 
HETATM   11  N5  UNL     1       3.772   3.022   0.326  1.00  0.00    -0.342 N 
HETATM   12  C7  UNL     1       2.385   3.322   0.587  1.00  0.00     0.295 A 
ATOM     13  H5  UNL     1       4.548   3.318   0.918  1.00  0.00     0.164 HD
HETATM   14  N4  UNL     1       1.696   2.713  -0.508  1.00  0.00    -0.199 N 
HETATM   15  N8  UNL     1       2.624   2.092  -1.344  1.00  0.00    -0.252 N 
ATOM     16  H8  UNL     1       2.425   1.575  -2.201  1.00  0.00     0.192 HD
BRANCH  14  17
HETATM   17  N3  UNL     1       0.314   2.709  -0.753  1.00  0.00    -0.226 N 
HETATM   18  N2  UNL     1      -0.405   1.749  -0.418  1.00  0.00    -0.288 N 
ATOM     19  H2  UNL     1       0.053   0.963   0.044  1.00  0.00     0.185 HD
ATOM     20  H3  UNL     1      -0.112   3.512  -1.217  1.00  0.00     0.210 HD
BRANCH  18  21
HETATM   21  C6  UNL     1      -1.820   1.653  -0.625  1.00  0.00     0.272 C 
BRANCH  21  22
HETATM   22  C5  UNL     1      -2.417   0.501   0.097  1.00  0.00     0.037 A 
HETATM   23  C4  UNL     1      -3.749   0.118  -0.136  1.00  0.00     0.048 A 
HETATM   24  C3  UNL     1      -4.340  -0.925   0.495  1.00  0.00     0.077 A 
HETATM   25  C14 UNL     1      -3.553  -1.628   1.414  1.00  0.00     0.144 A 
HETATM   26  N10 UNL     1      -2.287  -1.258   1.631  1.00  0.00    -0.329 N 
HETATM   27  N11 UNL     1      -4.149  -2.725   2.088  1.00  0.00    -0.080 NA
HETATM   28  C13 UNL     1      -1.698  -0.226   1.008  1.00  0.00     0.110 A 
ATOM     29  H10 UNL     1      -1.739  -1.789   2.307  1.00  0.00     0.168 HD
BRANCH  24  30
HETATM   30  N1  UNL     1      -5.681  -1.312   0.261  1.00  0.00    -0.325 N 
HETATM   31  C2  UNL     1      -6.625  -0.760  -0.596  1.00  0.00     0.218 C 
HETATM   32  C1  UNL     1      -8.008  -1.349  -0.677  1.00  0.00     0.117 C 
HETATM   33  O1  UNL     1      -6.417   0.212  -1.325  1.00  0.00    -0.274 OA
ATOM     34  H1  UNL     1      -6.002  -2.115   0.802  1.00  0.00     0.169 HD
ENDBRANCH  24  30
BRANCH  28  35
HETATM   35  N9  UNL     1      -0.459   0.058   1.286  1.00  0.00    -0.385 N 
ATOM     36  H92 UNL     1      -0.011   0.843   0.812  1.00  0.00     0.157 HD
ATOM     37  H91 UNL     1       0.077  -0.483   1.965  1.00  0.00     0.157 HD
ENDBRANCH  28  35
ENDBRANCH  21  22
BRANCH  21  38
HETATM   38  O2  UNL     1      -2.151   1.589  -1.986  1.00  0.00    -0.371 OA
ATOM     39  H2  UNL     1      -1.769   2.326  -2.448  1.00  0.00     0.212 HD
ENDBRANCH  21  38
ENDBRANCH  18  21
ENDBRANCH  14  17
ENDBRANCH   8  10
ENDBRANCH   7   8
BRANCH   7  40
HETATM   40  O3  UNL     1       4.241  -0.045  -2.349  1.00  0.00    -0.372 OA
ATOM     41  H3  UNL     1       4.348  -0.982  -2.466  1.00  0.00     0.212 HD
ENDBRANCH   7  40
ENDBRANCH   6   7
BRANCH   6  42
HETATM   42  O4  UNL     1       3.960   0.032   0.397  1.00  0.00    -0.367 OA
ATOM     43  H4  UNL     1       3.920  -0.382   1.251  1.00  0.00     0.212 HD
ENDBRANCH   6  42
ENDBRANCH   5   6
ENDBRANCH   1   5
TORSDOF 13
