REMARK  3 active torsions:
REMARK  status: ('A' for Active; 'I' for Inactive)
REMARK    1  A    between atoms: O1_1  and  C1_3 
REMARK    2  A    between atoms: C1_3  and  C2_4 
REMARK    3  A    between atoms: C2_4  and  N1_5 
ROOT
HETATM    1  N1  UNL     1       0.323   0.327  -0.551  1.00  0.00    -0.279 N 
HETATM    2  N2  UNL     1      -0.330  -0.764  -1.061  1.00  0.00    -0.130 NA
HETATM    3  C3  UNL     1      -1.725  -0.650  -0.600  1.00  0.00     0.123 C 
HETATM    4  C4  UNL     1      -1.808  -1.023   0.876  1.00  0.00     0.029 C 
HETATM    5  C5  UNL     1      -0.680  -0.300   1.570  1.00  0.00     0.057 C 
HETATM    6  C6  UNL     1      -0.232   0.842   0.649  1.00  0.00     0.239 C 
HETATM    7  O2  UNL     1      -1.427   1.501   0.303  1.00  0.00    -0.364 OA
HETATM    8  C7  UNL     1      -2.151   0.821  -0.660  1.00  0.00     0.193 C 
ENDROOT
BRANCH   1   9
HETATM    9  C2  UNL     1       1.708   0.435  -0.757  1.00  0.00     0.107 C 
BRANCH   9  10
HETATM   10  C1  UNL     1       2.565  -0.405   0.162  1.00  0.00     0.210 C 
BRANCH  10  11
HETATM   11  O1  UNL     1       3.905  -0.172  -0.186  1.00  0.00    -0.396 OA
ATOM     12  H1  UNL     1       4.444  -0.700   0.392  1.00  0.00     0.209 HD
ENDBRANCH  10  11
ENDBRANCH   9  10
ENDBRANCH   1   9
TORSDOF 3
