REMARK  2 active torsions:
REMARK  status: ('A' for Active; 'I' for Inactive)
REMARK    1  A    between atoms: N1_4  and  C4_5 
REMARK    2  A    between atoms: C4_5  and  C5_6 
ROOT
HETATM    1  C5  UNL     1       1.240   0.273  -0.387  1.00  0.00     0.410 C 
HETATM    2  N2  UNL     1       1.770  -0.982   0.127  1.00  0.00    -0.043 N 
ATOM      3  H21 UNL     1       1.255  -1.815  -0.157  1.00  0.00     0.279 HD
ATOM      4  H22 UNL     1       1.643  -1.125   1.129  1.00  0.00     0.279 HD
HETATM    5  C6  UNL     1       3.145  -0.936  -0.313  1.00  0.00     0.262 C 
HETATM    6  C7  UNL     1       3.530   0.494  -0.105  1.00  0.00     0.262 C 
HETATM    7  N3  UNL     1       2.295   1.212  -0.087  1.00  0.00    -0.043 N 
ATOM      8  H31 UNL     1       2.141   1.716   0.786  1.00  0.00     0.279 HD
ATOM      9  H32 UNL     1       2.296   2.020  -0.710  1.00  0.00     0.279 HD
ENDROOT
BRANCH   1  10
HETATM   10  C4  UNL     1       0.023   0.656   0.402  1.00  0.00     0.334 C 
BRANCH  10  11
HETATM   11  N1  UNL     1      -1.029  -0.346   0.316  1.00  0.00     0.092 N 
HETATM   12  C3  UNL     1      -2.113   0.071   1.194  1.00  0.00     0.272 C 
HETATM   13  C2  UNL     1      -3.306  -0.575   0.520  1.00  0.00     0.032 C 
HETATM   14  C1  UNL     1      -3.067  -0.044  -0.901  1.00  0.00     0.032 C 
HETATM   15  C8  UNL     1      -1.596  -0.365  -1.030  1.00  0.00     0.272 C 
ENDBRANCH  10  11
ENDBRANCH   1  10
TORSDOF 2
