REMARK  10 active torsions:
REMARK  status: ('A' for Active; 'I' for Inactive)
REMARK    1  A    between atoms: N1_6  and  C5_7 
REMARK    2  A    between atoms: C5_7  and  S1_12 
REMARK    3  A    between atoms: N2_8  and  O1_10 
REMARK    4  A    between atoms: S1_12  and  C6_13 
REMARK    5  A    between atoms: C6_13  and  C7_14 
REMARK    6  A    between atoms: C7_14  and  C8_15 
REMARK    7  A    between atoms: C8_15  and  O2_16 
REMARK    8  A    between atoms: O2_16  and  C9_17 
REMARK    9  A    between atoms: C9_17  and  C10_19 
REMARK   10  A    between atoms: C12_22  and  C13_23 
ROOT
HETATM    1  C10 UNL     1       4.442   0.476  -0.175  1.00  0.00     0.120 C 
HETATM    2  C11 UNL     1       4.629   1.258   1.000  1.00  0.00     0.105 C 
HETATM    3  N3  UNL     1       4.768   1.926   1.964  1.00  0.00    -0.191 NA
HETATM    4  C12 UNL     1       5.414  -0.218  -0.690  1.00  0.00     0.042 C 
ENDROOT
BRANCH   1   5
HETATM    5  C9  UNL     1       3.127   0.471  -0.842  1.00  0.00     0.303 C 
HETATM    6  O3  UNL     1       2.967  -0.189  -1.874  1.00  0.00    -0.258 OA
BRANCH   5   7
HETATM    7  O2  UNL     1       2.073   1.196  -0.327  1.00  0.00    -0.317 OA
BRANCH   7   8
HETATM    8  C8  UNL     1       0.775   1.288  -0.837  1.00  0.00     0.180 C 
BRANCH   8   9
HETATM    9  C7  UNL     1       0.108  -0.057  -0.799  1.00  0.00     0.037 C 
BRANCH   9  10
HETATM   10  C6  UNL     1       0.073  -0.502   0.660  1.00  0.00     0.084 C 
BRANCH  10  11
HETATM   11  S1  UNL     1      -0.746  -2.098   0.704  1.00  0.00    -0.092 SA
BRANCH  11  12
HETATM   12  C5  UNL     1      -2.478  -1.908   0.360  1.00  0.00     0.162 C 
HETATM   13  N2  UNL     1      -3.100  -3.065   0.201  1.00  0.00    -0.247 N 
ATOM     14  H2  UNL     1      -4.100  -3.036   0.002  1.00  0.00     0.196 HD
BRANCH  12  15
HETATM   15  N1  UNL     1      -3.190  -0.706   0.254  1.00  0.00    -0.351 N 
HETATM   16  C4  UNL     1      -3.156   0.208   1.409  1.00  0.00     0.129 C 
HETATM   17  C3  UNL     1      -4.536   0.423   1.958  1.00  0.00     0.063 C 
HETATM   18  C2  UNL     1      -5.671   0.281   1.027  1.00  0.00     0.103 C 
HETATM   19  C1  UNL     1      -6.417   1.609   0.826  1.00  0.00     0.052 C 
HETATM   20  F1  UNL     1      -6.621  -0.533   1.679  1.00  0.00    -0.243 F 
HETATM   21  C22 UNL     1      -5.442  -0.326  -0.297  1.00  0.00     0.073 C 
HETATM   22  C19 UNL     1      -4.009  -0.227  -0.813  1.00  0.00     0.030 C 
HETATM   23  C20 UNL     1      -3.957  -1.027  -2.072  1.00  0.00     0.038 C 
HETATM   24  C21 UNL     1      -3.737   1.222  -1.168  1.00  0.00     0.038 C 
ENDBRANCH  12  15
BRANCH  13  25
HETATM   25  O1  UNL     1      -2.520  -4.275   0.281  1.00  0.00    -0.288 OA
ATOM     26  H1  UNL     1      -2.967  -5.106   0.167  1.00  0.00     0.244 HD
ENDBRANCH  13  25
ENDBRANCH  11  12
ENDBRANCH  10  11
ENDBRANCH   9  10
ENDBRANCH   8   9
ENDBRANCH   7   8
ENDBRANCH   5   7
ENDBRANCH   1   5
BRANCH   4  27
HETATM   27  C13 UNL     1       6.759  -0.318  -0.155  1.00  0.00    -0.013 A 
HETATM   28  C14 UNL     1       6.999  -0.556   1.168  1.00  0.00     0.015 A 
HETATM   29  C15 UNL     1       8.323  -0.619   1.623  1.00  0.00     0.024 A 
HETATM   30  C16 UNL     1       9.340  -0.442   0.732  1.00  0.00     0.035 A 
HETATM   31 CL1  UNL     1      10.990  -0.524   1.311  1.00  0.00    -0.084 Cl
HETATM   32  C17 UNL     1       9.086  -0.202  -0.611  1.00  0.00     0.048 A 
HETATM   33  C18 UNL     1       7.792  -0.136  -1.074  1.00  0.00     0.045 A 
HETATM   34 CL2  UNL     1       7.462   0.168  -2.758  1.00  0.00    -0.083 Cl
ENDBRANCH   4  27
TORSDOF 10
