REMARK  5 active torsions:
REMARK  status: ('A' for Active; 'I' for Inactive)
REMARK    1  A    between atoms: O1_1  and  N1_3 
REMARK    2  A    between atoms: C3_8  and  N3_9 
REMARK    3  A    between atoms: N3_9  and  C4_11 
REMARK    4  A    between atoms: C7_14  and  C8_15 
REMARK    5  A    between atoms: C8_15  and  N4_16 
ROOT
HETATM    1  N1  UNL     1       6.399  -0.912  -1.220  1.00  0.00    -0.202 N 
HETATM    2  C1  UNL     1       5.242  -0.457  -0.803  1.00  0.00     0.163 A 
HETATM    3  C2  UNL     1       3.895  -0.509  -1.293  1.00  0.00     0.102 A 
HETATM    4  N2  UNL     1       2.919   0.091  -0.541  1.00  0.00    -0.338 N 
ATOM      5  H2  UNL     1       3.224   0.538   0.323  1.00  0.00     0.167 HD
HETATM    6  C3  UNL     1       1.634   0.155  -0.808  1.00  0.00     0.101 A 
HETATM    7  C15 UNL     1       1.163  -0.432  -1.965  1.00  0.00     0.050 A 
HETATM    8  C16 UNL     1       2.066  -1.059  -2.785  1.00  0.00     0.030 A 
HETATM    9  C17 UNL     1       3.444  -1.091  -2.436  1.00  0.00     0.064 A 
HETATM   10 CL1  UNL     1       4.468  -1.895  -3.581  1.00  0.00    -0.082 Cl
HETATM   11  N5  UNL     1       5.527   0.184   0.385  1.00  0.00    -0.337 N 
ATOM     12  H5  UNL     1       4.834   0.650   0.970  1.00  0.00     0.167 HD
HETATM   13  C18 UNL     1       6.817   0.114   0.665  1.00  0.00     0.066 A 
HETATM   14  C19 UNL     1       7.570   0.586   1.708  1.00  0.00     0.056 A 
HETATM   15  C20 UNL     1       8.905   0.350   1.716  1.00  0.00     0.037 A 
HETATM   16 CL2  UNL     1       9.918   0.927   3.017  1.00  0.00    -0.084 Cl
HETATM   17  C21 UNL     1       9.512  -0.360   0.685  1.00  0.00     0.050 A 
HETATM   18  C22 UNL     1       8.749  -0.839  -0.371  1.00  0.00     0.067 A 
HETATM   19 CL3  UNL     1       9.535  -1.716  -1.654  1.00  0.00    -0.082 Cl
HETATM   20  C23 UNL     1       7.410  -0.584  -0.345  1.00  0.00     0.113 A 
ENDROOT
BRANCH   6  21
HETATM   21  N3  UNL     1       0.725   0.843   0.051  1.00  0.00    -0.372 N 
ATOM     22  H3  UNL     1       1.113   1.343   0.851  1.00  0.00     0.161 HD
BRANCH  21  23
HETATM   23  C4  UNL     1      -0.690   0.878  -0.134  1.00  0.00     0.083 C 
HETATM   24  C5  UNL     1      -1.235  -0.470   0.243  1.00  0.00     0.026 C 
HETATM   25  C6  UNL     1      -2.680  -0.561  -0.246  1.00  0.00     0.012 C 
HETATM   26  C7  UNL     1      -3.251   0.805  -0.263  1.00  0.00     0.024 C 
HETATM   27  C13 UNL     1      -2.783   1.642   0.907  1.00  0.00     0.012 C 
HETATM   28  C14 UNL     1      -1.338   1.997   0.644  1.00  0.00     0.026 C 
BRANCH  26  29
HETATM   29  C8  UNL     1      -4.717   0.822  -0.498  1.00  0.00     0.068 C 
BRANCH  29  30
HETATM   30  N4  UNL     1      -5.608   0.207   0.338  1.00  0.00    -0.369 N 
HETATM   31  C9  UNL     1      -5.813  -1.142   0.519  1.00  0.00     0.089 C 
HETATM   32  C10 UNL     1      -7.269  -1.569   0.650  1.00  0.00     0.212 C 
HETATM   33  O2  UNL     1      -8.057  -0.663   1.305  1.00  0.00    -0.385 OA
HETATM   34  C11 UNL     1      -7.399   0.320   2.003  1.00  0.00     0.188 C 
HETATM   35  C12 UNL     1      -6.436   1.077   1.092  1.00  0.00     0.153 C 
ENDBRANCH  29  30
ENDBRANCH  26  29
ENDBRANCH  21  23
ENDBRANCH   6  21
BRANCH   1  36
HETATM   36  O1  UNL     1       6.681  -1.638  -2.333  1.00  0.00    -0.281 OA
ATOM     37  H1  UNL     1       7.519  -1.968  -2.635  1.00  0.00     0.245 HD
ENDBRANCH   1  36
TORSDOF 5
