REMARK  4 active torsions:
REMARK  status: ('A' for Active; 'I' for Inactive)
REMARK    1  A    between atoms: C2_2  and  C3_3 
REMARK    2  A    between atoms: C3_3  and  N1_4 
REMARK       I    between atoms: C4_6  and  N2_7 
REMARK       I    between atoms: C4_6  and  N4_11 
REMARK    3  A    between atoms: N4_11  and  C6_13 
REMARK    4  A    between atoms: C6_13  and  C7_14 
ROOT
HETATM    1  N1  UNL     1      -1.450  -0.547  -0.285  1.00  0.00    -0.222 N 
ATOM      2  H1  UNL     1      -1.299  -1.523  -0.541  1.00  0.00     0.178 HD
HETATM    3  C4  UNL     1      -0.778  -0.037   0.671  1.00  0.00     0.683 C 
HETATM    4  N2  UNL     1      -0.987   1.310   1.022  1.00  0.00    -0.126 N 
ATOM      5  H2  UNL     1      -0.805   2.024   0.316  1.00  0.00     0.197 HD
HETATM    6  C5  UNL     1      -1.429   1.727   2.279  1.00  0.00     0.196 C 
HETATM    7  N3  UNL     1      -1.782   2.063   3.335  1.00  0.00    -0.171 NA
HETATM    8  N4  UNL     1       0.158  -0.810   1.364  1.00  0.00    -0.225 N 
ATOM      9  H4  UNL     1      -0.108  -1.165   2.283  1.00  0.00     0.177 HD
ENDROOT
BRANCH   1  10
HETATM   10  C3  UNL     1      -2.432   0.244  -1.019  1.00  0.00     0.164 C 
BRANCH  10  11
HETATM   11  C2  UNL     1      -3.772  -0.401  -1.060  1.00  0.00    -0.017 C 
HETATM   12  C1  UNL     1      -4.333  -0.718  -2.216  1.00  0.00     0.008 C 
ENDBRANCH  10  11
ENDBRANCH   1  10
BRANCH   8  13
HETATM   13  C6  UNL     1       1.478  -1.143   0.870  1.00  0.00     0.147 C 
BRANCH  13  14
HETATM   14  C7  UNL     1       2.383   0.027   0.785  1.00  0.00     0.062 C 
HETATM   15  C8  UNL     1       3.766  -0.117   0.310  1.00  0.00     0.132 C 
HETATM   16  C9  UNL     1       3.279  -0.392  -1.062  1.00  0.00     0.065 C 
HETATM   17  O1  UNL     1       3.671   1.235  -0.051  1.00  0.00    -0.379 OA
HETATM   18  C10 UNL     1       2.467   0.715  -0.535  1.00  0.00     0.132 C 
ENDBRANCH  13  14
ENDBRANCH   8  13
TORSDOF 4
