REMARK  9 active torsions:
REMARK  status: ('A' for Active; 'I' for Inactive)
REMARK    1  A    between atoms: C2_2  and  C3_3 
REMARK    2  A    between atoms: C3_3  and  C4_4 
REMARK    3  A    between atoms: C4_4  and  C5_5 
REMARK    4  A    between atoms: C5_5  and  C6_6 
REMARK    5  A    between atoms: C6_6  and  C7_7 
REMARK    6  A    between atoms: C11_12  and  O2_13 
REMARK    7  A    between atoms: C19_22  and  O3_23 
REMARK    8  A    between atoms: C20_25  and  O4_26 
REMARK    9  A    between atoms: C21_28  and  O5_29 
ROOT
HETATM    1  C7  UNL     1       0.715  -0.543  -1.385  1.00  0.00     0.132 C 
HETATM    2  O1  UNL     1      -0.138  -1.559  -1.059  1.00  0.00    -0.373 OA
HETATM    3  C8  UNL     1      -1.221  -1.155  -0.319  1.00  0.00     0.081 C 
HETATM    4  C9  UNL     1      -2.546  -1.597  -1.119  1.00  0.00     0.081 C 
HETATM    5  C10 UNL     1      -2.556  -0.541  -2.186  1.00  0.00    -0.014 A 
HETATM    6  C11 UNL     1      -3.182  -0.108  -3.375  1.00  0.00     0.072 A 
HETATM    7  C12 UNL     1      -2.625   0.964  -4.103  1.00  0.00     0.037 A 
HETATM    8  C13 UNL     1      -1.448   1.585  -3.639  1.00  0.00     0.011 A 
HETATM    9  C14 UNL     1      -0.824   1.146  -2.455  1.00  0.00    -0.042 A 
HETATM   10  C15 UNL     1      -1.519   0.187  -1.983  1.00  0.00    -0.029 A 
HETATM   11  C16 UNL     1      -1.176   0.282  -0.500  1.00  0.00     0.035 C 
HETATM   12  C17 UNL     1      -1.891   1.274   0.242  1.00  0.00     0.030 C 
HETATM   13  C18 UNL     1      -0.968   2.350   0.888  1.00  0.00     0.014 C 
HETATM   14  C19 UNL     1      -3.017   0.958   1.141  1.00  0.00     0.154 C 
HETATM   15  C20 UNL     1      -2.996  -0.244   1.981  1.00  0.00     0.176 C 
HETATM   16  C21 UNL     1      -1.702  -0.967   2.141  1.00  0.00     0.152 C 
HETATM   17  C22 UNL     1      -1.289  -1.793   0.965  1.00  0.00     0.074 C 
HETATM   18  C23 UNL     1       0.041   0.820  -1.224  1.00  0.00     0.065 C 
ENDROOT
BRANCH   1  19
HETATM   19  C6  UNL     1       2.083  -0.617  -0.845  1.00  0.00     0.033 C 
BRANCH  19  20
HETATM   20  C5  UNL     1       2.251  -0.642   0.630  1.00  0.00     0.002 C 
BRANCH  20  21
HETATM   21  C4  UNL     1       3.713  -0.700   1.029  1.00  0.00     0.000 C 
BRANCH  21  22
HETATM   22  C3  UNL     1       4.523   0.458   0.554  1.00  0.00    -0.000 C 
BRANCH  22  23
HETATM   23  C2  UNL     1       5.979   0.347   0.993  1.00  0.00    -0.005 C 
HETATM   24  C1  UNL     1       6.114   0.301   2.480  1.00  0.00     0.005 C 
ENDBRANCH  22  23
ENDBRANCH  21  22
ENDBRANCH  20  21
ENDBRANCH  19  20
ENDBRANCH   1  19
BRANCH  16  25
HETATM   25  O5  UNL     1      -1.820  -1.766   3.282  1.00  0.00    -0.393 OA
ATOM     26  H5  UNL     1      -0.995  -2.227   3.384  1.00  0.00     0.210 HD
ENDBRANCH  16  25
BRANCH  14  27
HETATM   27  O3  UNL     1      -4.256   0.947   0.433  1.00  0.00    -0.393 OA
ATOM     28  H3  UNL     1      -4.981   0.743   1.012  1.00  0.00     0.210 HD
ENDBRANCH  14  27
BRANCH   6  29
HETATM   29  O2  UNL     1      -4.307  -0.794  -3.716  1.00  0.00    -0.360 OA
ATOM     30  H2  UNL     1      -4.728  -0.503  -4.516  1.00  0.00     0.217 HD
ENDBRANCH   6  29
BRANCH  15  31
HETATM   31  O4  UNL     1      -3.315   0.174   3.306  1.00  0.00    -0.390 OA
ATOM     32  H4  UNL     1      -3.301  -0.605   3.850  1.00  0.00     0.210 HD
ENDBRANCH  15  31
TORSDOF 9
