REMARK  13 active torsions:
REMARK  status: ('A' for Active; 'I' for Inactive)
REMARK    1  A    between atoms: S1_2  and  C2_5 
REMARK    2  A    between atoms: C2_5  and  C3_6 
REMARK    3  A    between atoms: C2_5  and  O4_23 
REMARK    4  A    between atoms: C3_6  and  C4_7 
REMARK    5  A    between atoms: C5_8  and  O3_9 
REMARK    6  A    between atoms: C6_13  and  N2_14 
REMARK    7  A    between atoms: C7_19  and  N4_20 
REMARK    8  A    between atoms: O4_23  and  C8_24 
REMARK    9  A    between atoms: C8_24  and  O5_25 
REMARK   10  A    between atoms: O5_25  and  C9_26 
REMARK       I    between atoms: C9_26  and  N5_28 
REMARK   11  A    between atoms: C10_30  and  C11_31 
REMARK   12  A    between atoms: C11_31  and  O7_32 
REMARK   13  A    between atoms: C11_31  and  O8_34 
ROOT
HETATM    1  C2  UNL     1      -1.794  -1.477   0.767  1.00  0.00     0.166 C 
ENDROOT
BRANCH   1   2
HETATM    2  S1  UNL     1      -2.391  -1.240   2.385  1.00  0.00     0.193 S 
HETATM    3  C1  UNL     1      -3.251  -2.641   3.058  1.00  0.00     0.169 C 
HETATM    4  O1  UNL     1      -1.189  -1.048   3.340  1.00  0.00    -0.221 OA
HETATM    5  O2  UNL     1      -3.225  -0.033   2.610  1.00  0.00    -0.221 OA
ENDBRANCH   1   2
BRANCH   1   6
HETATM    6  C3  UNL     1      -2.663  -1.645  -0.375  1.00  0.00     0.068 C 
BRANCH   6   7
HETATM    7  C4  UNL     1      -3.628  -0.662  -0.795  1.00  0.00     0.063 A 
HETATM    8  C5  UNL     1      -4.900  -0.552  -0.335  1.00  0.00     0.169 A 
HETATM    9  N1  UNL     1      -5.766   0.434  -0.729  1.00  0.00    -0.170 N 
HETATM   10  C6  UNL     1      -5.369   1.349  -1.612  1.00  0.00     0.679 A 
ATOM     11  H1  UNL     1      -6.711   0.467  -0.348  1.00  0.00     0.186 HD
HETATM   12  N3  UNL     1      -4.124   1.284  -2.099  1.00  0.00    -0.176 N 
HETATM   13  C7  UNL     1      -3.264   0.329  -1.725  1.00  0.00     0.129 A 
ATOM     14  H3  UNL     1      -3.821   1.984  -2.776  1.00  0.00     0.186 HD
BRANCH   8  15
HETATM   15  O3  UNL     1      -5.397  -1.487   0.593  1.00  0.00    -0.345 OA
ATOM     16  H3  UNL     1      -6.287  -1.410   0.915  1.00  0.00     0.219 HD
ENDBRANCH   8  15
BRANCH  10  17
HETATM   17  N2  UNL     1      -6.181   2.307  -2.010  1.00  0.00    -0.234 N 
ATOM     18  H22 UNL     1      -7.130   2.357  -1.639  1.00  0.00     0.174 HD
ATOM     19  H21 UNL     1      -5.877   3.008  -2.686  1.00  0.00     0.174 HD
ENDBRANCH  10  17
BRANCH  13  20
HETATM   20  N4  UNL     1      -2.091   0.315  -2.237  1.00  0.00    -0.384 N 
ATOM     21  H42 UNL     1      -1.436  -0.413  -1.952  1.00  0.00     0.157 HD
ATOM     22  H41 UNL     1      -1.827   1.033  -2.911  1.00  0.00     0.157 HD
ENDBRANCH  13  20
ENDBRANCH   6   7
ENDBRANCH   1   6
BRANCH   1  23
HETATM   23  O4  UNL     1      -0.732  -0.539   0.503  1.00  0.00    -0.314 OA
BRANCH  23  24
HETATM   24  C8  UNL     1       0.486  -1.163   0.567  1.00  0.00     0.358 C 
BRANCH  24  25
HETATM   25  O5  UNL     1       1.623  -0.432   0.362  1.00  0.00    -0.276 OA
BRANCH  25  26
HETATM   26  C9  UNL     1       2.059   0.274  -0.715  1.00  0.00     0.387 C 
HETATM   27  O6  UNL     1       1.318   0.280  -1.732  1.00  0.00    -0.236 OA
HETATM   28  N5  UNL     1       3.303   0.976  -0.692  1.00  0.00    -0.170 N 
HETATM   29  N6  UNL     1       4.065   0.918   0.464  1.00  0.00    -0.095 NA
HETATM   30  C12 UNL     1       3.704   1.699  -1.850  1.00  0.00     0.230 C 
HETATM   31  C10 UNL     1       5.379   1.530   0.281  1.00  0.00     0.267 C 
HETATM   32  N7  UNL     1       5.845   1.443  -1.087  1.00  0.00    -0.307 N 
HETATM   33  N8  UNL     1       4.975   1.949  -2.075  1.00  0.00    -0.275 N 
ATOM     34  H7  UNL     1       6.751   1.039  -1.323  1.00  0.00     0.182 HD
ATOM     35  H8  UNL     1       5.303   2.464  -2.892  1.00  0.00     0.189 HD
HETATM   36  N9  UNL     1       2.759   2.167  -2.785  1.00  0.00    -0.060 NA
BRANCH  31  37
HETATM   37  C11 UNL     1       6.316   0.862   1.250  1.00  0.00     0.295 C 
BRANCH  37  38
HETATM   38  O7  UNL     1       6.376  -0.488   0.996  1.00  0.00    -0.368 OA
ATOM     39  H7  UNL     1       6.968  -0.910   1.608  1.00  0.00     0.212 HD
ENDBRANCH  37  38
BRANCH  37  40
HETATM   40  O8  UNL     1       7.567   1.469   1.284  1.00  0.00    -0.368 OA
ATOM     41  H8  UNL     1       8.159   1.047   1.896  1.00  0.00     0.212 HD
ENDBRANCH  37  40
ENDBRANCH  31  37
ENDBRANCH  25  26
ENDBRANCH  24  25
ENDBRANCH  23  24
ENDBRANCH   1  23
TORSDOF 13
