REMARK  5 active torsions:
REMARK  status: ('A' for Active; 'I' for Inactive)
REMARK    1  A    between atoms: C3_7  and  C4_8 
REMARK    2  A    between atoms: C4_8  and  C5_9 
REMARK    3  A    between atoms: C5_9  and  N2_10 
REMARK    4  A    between atoms: N2_10  and  N3_12 
REMARK    5  A    between atoms: N5_19  and  O4_20 
ROOT
HETATM    1  N2  UNL     1       1.239   1.389  -0.763  1.00  0.00    -0.286 N 
ATOM      2  H2  UNL     1       1.552   2.208  -1.283  1.00  0.00     0.188 HD
ENDROOT
BRANCH   1   3
HETATM    3  C5  UNL     1      -0.016   1.238  -0.625  1.00  0.00     0.112 C 
BRANCH   3   4
HETATM    4  C4  UNL     1      -0.619   0.120   0.091  1.00  0.00     0.054 C 
BRANCH   4   5
HETATM    5  C3  UNL     1      -1.930  -0.012   0.220  1.00  0.00     0.106 A 
HETATM    6  C2  UNL     1      -2.674  -1.043   0.887  1.00  0.00     0.276 A 
HETATM    7  N1  UNL     1      -4.068  -0.731   0.742  1.00  0.00    -0.274 N 
HETATM    8  O2  UNL     1      -2.186  -2.035   1.487  1.00  0.00    -0.266 OA
HETATM    9  C1  UNL     1      -4.210   0.472  -0.001  1.00  0.00     0.327 A 
ATOM     10  H1  UNL     1      -4.838  -1.287   1.115  1.00  0.00     0.173 HD
HETATM   11  O1  UNL     1      -5.303   1.037  -0.314  1.00  0.00    -0.247 OA
HETATM   12  N6  UNL     1      -2.891   0.912  -0.321  1.00  0.00    -0.304 N 
ATOM     13  H6  UNL     1      -2.664   1.753  -0.852  1.00  0.00     0.171 HD
ENDBRANCH   4   5
ENDBRANCH   3   4
ENDBRANCH   1   3
BRANCH   1  14
HETATM   14  N3  UNL     1       2.215   0.547  -0.274  1.00  0.00    -0.137 N 
HETATM   15  C6  UNL     1       2.569   0.409   1.007  1.00  0.00     0.220 A 
HETATM   16  S1  UNL     1       1.963   1.178   2.329  1.00  0.00    -0.037 SA
HETATM   17  N4  UNL     1       3.562  -0.510   1.098  1.00  0.00    -0.279 N 
HETATM   18  C7  UNL     1       3.810  -0.934  -0.168  1.00  0.00     0.370 A 
ATOM     19  H4  UNL     1       4.030  -0.821   1.949  1.00  0.00     0.173 HD
HETATM   20  O3  UNL     1       4.663  -1.789  -0.535  1.00  0.00    -0.243 OA
HETATM   21  N5  UNL     1       2.959  -0.260  -0.996  1.00  0.00    -0.082 N 
BRANCH  21  22
HETATM   22  O4  UNL     1       2.955  -0.465  -2.370  1.00  0.00    -0.262 OA
ATOM     23  H4  UNL     1       3.493  -1.049  -2.892  1.00  0.00     0.247 HD
ENDBRANCH  21  22
ENDBRANCH   1  14
TORSDOF 5
