REMARK  12 active torsions:
REMARK  status: ('A' for Active; 'I' for Inactive)
REMARK    1  A    between atoms: C2_2  and  C3_3 
REMARK       I    between atoms: C3_3  and  N1_5 
REMARK    2  A    between atoms: N1_5  and  C4_7 
REMARK    3  A    between atoms: C6_9  and  O2_10 
REMARK    4  A    between atoms: O2_10  and  C7_11 
REMARK    5  A    between atoms: C7_11  and  C8_12 
REMARK    6  A    between atoms: C14_20  and  N2_21 
REMARK    7  A    between atoms: N2_21  and  C15_23 
REMARK    8  A    between atoms: C17_27  and  N4_28 
REMARK    9  A    between atoms: N4_28  and  C19_30 
REMARK   10  A    between atoms: C19_30  and  C20_31 
REMARK   11  A    between atoms: C25_36  and  C26_37 
REMARK   12  A    between atoms: C26_37  and  O3_38 
ROOT
HETATM    1  C4  UNL     1      -4.083   2.521   0.246  1.00  0.00     0.059 A 
HETATM    2  C5  UNL     1      -4.026   1.173   0.128  1.00  0.00     0.070 A 
HETATM    3  C6  UNL     1      -2.969   0.523  -0.552  1.00  0.00     0.098 A 
HETATM    4  C14 UNL     1      -1.950   1.267  -1.114  1.00  0.00     0.069 A 
HETATM    5  C27 UNL     1      -2.001   2.634  -1.035  1.00  0.00     0.058 A 
HETATM    6  C28 UNL     1      -2.998   3.237  -0.389  1.00  0.00     0.063 A 
HETATM    7 CL3  UNL     1      -3.051   4.967  -0.320  1.00  0.00    -0.082 Cl
ENDROOT
BRANCH   4   8
HETATM    8  N2  UNL     1      -0.780   0.549  -1.492  1.00  0.00    -0.340 N 
ATOM      9  H2  UNL     1      -0.970  -0.333  -1.968  1.00  0.00     0.167 HD
BRANCH   8  10
HETATM   10  C15 UNL     1       0.449   0.801  -1.348  1.00  0.00     0.114 A 
HETATM   11  N3  UNL     1       0.963   1.894  -0.781  1.00  0.00    -0.350 N 
HETATM   12  C16 UNL     1       2.268   2.027  -0.464  1.00  0.00     0.119 A 
ATOM     13  H3  UNL     1       0.335   2.671  -0.576  1.00  0.00     0.166 HD
HETATM   14  C17 UNL     1       3.196   0.978  -0.719  1.00  0.00     0.049 A 
HETATM   15  C24 UNL     1       2.678  -0.135  -1.308  1.00  0.00     0.044 A 
HETATM   16  C25 UNL     1       1.337  -0.292  -1.648  1.00  0.00     0.011 A 
BRANCH  14  17
HETATM   17  N4  UNL     1       4.488   1.104  -0.109  1.00  0.00    -0.363 N 
HETATM   18  C18 UNL     1       5.283   2.298  -0.253  1.00  0.00     0.155 C 
BRANCH  17  19
HETATM   19  C19 UNL     1       4.927   0.111   0.805  1.00  0.00     0.072 C 
BRANCH  19  20
HETATM   20  C20 UNL     1       6.168  -0.635   0.633  1.00  0.00    -0.019 C 
HETATM   21  C21 UNL     1       7.449   0.160   0.574  1.00  0.00     0.020 C 
HETATM   22  C22 UNL     1       6.330  -1.412   1.997  1.00  0.00     0.020 C 
HETATM   23  C23 UNL     1       6.196  -1.720  -0.380  1.00  0.00     0.020 C 
ENDBRANCH  19  20
ENDBRANCH  17  19
ENDBRANCH  14  17
BRANCH  16  24
HETATM   24  C26 UNL     1       0.688  -1.535  -2.050  1.00  0.00     0.206 C 
BRANCH  24  25
HETATM   25  O3  UNL     1       1.029  -2.016  -3.344  1.00  0.00    -0.396 OA
ATOM     26  H3  UNL     1       0.606  -2.826  -3.606  1.00  0.00     0.209 HD
ENDBRANCH  24  25
ENDBRANCH  16  24
ENDBRANCH   8  10
ENDBRANCH   4   8
BRANCH   3  27
HETATM   27  O2  UNL     1      -3.086  -0.901  -0.608  1.00  0.00    -0.344 OA
BRANCH  27  28
HETATM   28  C7  UNL     1      -4.286  -1.458  -0.024  1.00  0.00     0.216 C 
BRANCH  28  29
HETATM   29  C8  UNL     1      -4.321  -2.891  -0.329  1.00  0.00    -0.012 A 
HETATM   30  C9  UNL     1      -3.336  -3.490  -1.048  1.00  0.00     0.013 A 
HETATM   31  C10 UNL     1      -3.376  -4.802  -1.406  1.00  0.00     0.024 A 
HETATM   32  C11 UNL     1      -4.486  -5.591  -1.009  1.00  0.00     0.035 A 
HETATM   33 CL1  UNL     1      -4.586  -7.281  -1.490  1.00  0.00    -0.084 Cl
HETATM   34  C12 UNL     1      -5.483  -4.980  -0.262  1.00  0.00     0.048 A 
HETATM   35  C13 UNL     1      -5.384  -3.665   0.054  1.00  0.00     0.044 A 
HETATM   36 CL2  UNL     1      -6.693  -2.994   1.027  1.00  0.00    -0.084 Cl
ENDBRANCH  28  29
ENDBRANCH  27  28
ENDBRANCH   3  27
BRANCH   1  37
HETATM   37  N1  UNL     1      -4.934   3.261   1.132  1.00  0.00    -0.322 N 
HETATM   38  C3  UNL     1      -5.693   2.715   2.216  1.00  0.00     0.244 C 
HETATM   39  O1  UNL     1      -5.697   1.512   2.456  1.00  0.00    -0.268 OA
ATOM     40  H1  UNL     1      -5.005   4.266   0.976  1.00  0.00     0.169 HD
BRANCH  38  41
HETATM   41  C2  UNL     1      -6.429   3.621   3.054  1.00  0.00     0.064 C 
HETATM   42  C1  UNL     1      -6.567   4.901   2.903  1.00  0.00     0.017 C 
ENDBRANCH  38  41
ENDBRANCH   1  37
TORSDOF 12
