REMARK  7 active torsions:
REMARK  status: ('A' for Active; 'I' for Inactive)
REMARK    1  A    between atoms: C3_4  and  N2_5 
REMARK    2  A    between atoms: N2_5  and  C4_7 
REMARK    3  A    between atoms: N4_13  and  C8_15 
REMARK    4  A    between atoms: C8_15  and  C9_16 
REMARK    5  A    between atoms: C9_16  and  C10_17 
REMARK    6  A    between atoms: C10_17  and  N5_18 
REMARK    7  A    between atoms: N7_29  and  C18_30 
ROOT
HETATM    1  C4  UNL     1      -2.458   1.127   0.269  1.00  0.00     0.685 A 
HETATM    2  N3  UNL     1      -2.894  -0.113  -0.024  1.00  0.00    -0.176 N 
ATOM      3  H3  UNL     1      -3.865  -0.245  -0.306  1.00  0.00     0.186 HD
HETATM    4  C5  UNL     1      -2.083  -1.180   0.046  1.00  0.00     0.129 A 
HETATM    5  C6  UNL     1      -0.771  -1.000   0.425  1.00  0.00     0.031 A 
HETATM    6  C7  UNL     1      -0.274   0.282   0.739  1.00  0.00     0.127 A 
HETATM    7  N4  UNL     1       0.874   0.498   1.067  1.00  0.00    -0.375 N 
ATOM      8  H4  UNL     1       0.836   1.507   1.208  1.00  0.00     0.161 HD
HETATM    9  N6  UNL     1      -1.200   1.295   0.632  1.00  0.00    -0.176 N 
ATOM     10  H6  UNL     1      -0.892   2.243   0.849  1.00  0.00     0.186 HD
HETATM   11  C15 UNL     1       0.172  -2.161   0.505  1.00  0.00     0.048 C 
HETATM   12  C16 UNL     1      -0.583  -3.446   0.506  1.00  0.00     0.025 C 
HETATM   13  C17 UNL     1      -1.550  -3.429  -0.686  1.00  0.00     0.125 C 
HETATM   14  N7  UNL     1      -2.584  -2.494  -0.280  1.00  0.00    -0.362 N 
ENDROOT
BRANCH   7  15
HETATM   15  C8  UNL     1       2.160   0.263   1.363  1.00  0.00     0.123 C 
BRANCH  15  16
HETATM   16  C9  UNL     1       3.029   0.198   0.096  1.00  0.00     0.050 C 
BRANCH  16  17
HETATM   17  C10 UNL     1       4.465  -0.068   0.460  1.00  0.00     0.274 C 
BRANCH  17  18
HETATM   18  N5  UNL     1       5.269  -0.161  -0.708  1.00  0.00     0.092 N 
HETATM   19  C11 UNL     1       6.671  -0.423  -0.391  1.00  0.00     0.298 C 
HETATM   20  C12 UNL     1       7.448   0.858  -0.235  1.00  0.00     0.198 C 
HETATM   21  O1  UNL     1       7.216   1.804  -1.198  1.00  0.00    -0.388 OA
HETATM   22  C13 UNL     1       5.844   2.146  -1.140  1.00  0.00     0.198 C 
HETATM   23  C14 UNL     1       5.136   0.894  -1.654  1.00  0.00     0.298 C 
ENDBRANCH  17  18
ENDBRANCH  16  17
ENDBRANCH  15  16
ENDBRANCH   7  15
BRANCH   1  24
HETATM   24  N2  UNL     1      -3.297   2.120   0.182  1.00  0.00    -0.192 N 
ATOM     25  H2  UNL     1      -4.266   1.972  -0.100  1.00  0.00     0.184 HD
BRANCH  24  26
HETATM   26  C3  UNL     1      -2.809   3.416   0.496  1.00  0.00     0.051 A 
HETATM   27  C2  UNL     1      -2.337   4.264  -0.476  1.00  0.00     0.058 A 
HETATM   28  C1  UNL     1      -1.886   5.505  -0.055  1.00  0.00     0.070 A 
HETATM   29  N1  UNL     1      -1.397   6.391  -1.045  1.00  0.00    -0.101 NA
HETATM   30  C25 UNL     1      -1.896   5.895   1.261  1.00  0.00     0.058 A 
HETATM   31  C24 UNL     1      -2.374   5.024   2.210  1.00  0.00     0.028 A 
HETATM   32 CL1  UNL     1      -1.315   7.473   1.738  1.00  0.00    -0.082 Cl
HETATM   33  C23 UNL     1      -2.829   3.792   1.842  1.00  0.00     0.032 A 
ENDBRANCH  24  26
ENDBRANCH   1  24
BRANCH  14  34
HETATM   34  C18 UNL     1      -3.964  -2.789  -0.191  1.00  0.00     0.086 C 
HETATM   35  C19 UNL     1      -4.265  -3.986   0.692  1.00  0.00     0.025 C 
HETATM   36  C20 UNL     1      -4.745  -5.058  -0.227  1.00  0.00     0.002 C 
HETATM   37  C21 UNL     1      -5.538  -4.270  -1.270  1.00  0.00     0.002 C 
HETATM   38  C22 UNL     1      -4.633  -3.057  -1.502  1.00  0.00     0.025 C 
ENDBRANCH  14  34
TORSDOF 7
