REMARK  11 active torsions:
REMARK  status: ('A' for Active; 'I' for Inactive)
REMARK    1  A    between atoms: C2_2  and  C3_3 
REMARK    2  A    between atoms: C3_3  and  O1_5 
REMARK    3  A    between atoms: C3_3  and  C5_7 
REMARK    4  A    between atoms: C5_7  and  C6_8 
REMARK    5  A    between atoms: C6_8  and  C7_10 
REMARK    6  A    between atoms: C8_11  and  C9_12 
REMARK    7  A    between atoms: C10_13  and  C11_14 
REMARK    8  A    between atoms: C12_16  and  O4_17 
REMARK    9  A    between atoms: C13_19  and  O5_20 
REMARK   10  A    between atoms: C14_22  and  O6_23 
REMARK   11  A    between atoms: C15_25  and  O7_26 
ROOT
HETATM    1  C11 UNL     1      -3.033  -0.908  -1.467  1.00  0.00     0.179 C 
HETATM    2  O3  UNL     1      -2.359  -1.903  -0.826  1.00  0.00    -0.347 OA
HETATM    3  C12 UNL     1      -2.799  -2.267   0.407  1.00  0.00     0.289 C 
HETATM    4  C13 UNL     1      -3.887  -1.534   1.052  1.00  0.00     0.204 C 
HETATM    5  C14 UNL     1      -4.435  -0.325   0.386  1.00  0.00     0.183 C 
HETATM    6  C15 UNL     1      -3.331   0.230  -0.525  1.00  0.00     0.185 C 
ENDROOT
BRANCH   1   7
HETATM    7  C10 UNL     1      -2.288  -0.499  -2.677  1.00  0.00     0.008 C 
HETATM    8  C9  UNL     1      -1.015  -0.198  -2.686  1.00  0.00    -0.001 C 
BRANCH   8   9
HETATM    9  C8  UNL     1      -0.117  -0.206  -1.546  1.00  0.00     0.003 C 
HETATM   10  C7  UNL     1       1.150   0.122  -1.705  1.00  0.00     0.050 C 
BRANCH  10  11
HETATM   11  C6  UNL     1       2.072   0.120  -0.569  1.00  0.00     0.152 C 
HETATM   12  O2  UNL     1       1.608  -0.205   0.551  1.00  0.00    -0.293 OA
BRANCH  11  13
HETATM   13  C5  UNL     1       3.502   0.488  -0.730  1.00  0.00     0.120 C 
BRANCH  13  14
HETATM   14  C3  UNL     1       4.170   0.397   0.601  1.00  0.00     0.060 C 
HETATM   15  C4  UNL     1       3.470   1.320   1.578  1.00  0.00     0.046 C 
BRANCH  14  16
HETATM   16  C2  UNL     1       5.632   0.748   0.559  1.00  0.00     0.033 C 
HETATM   17  C1  UNL     1       6.197   0.568   1.951  1.00  0.00     0.008 C 
ENDBRANCH  14  16
BRANCH  14  18
HETATM   18  O1  UNL     1       4.074  -0.930   1.039  1.00  0.00    -0.390 OA
ATOM     19  H1  UNL     1       3.151  -1.152   1.066  1.00  0.00     0.210 HD
ENDBRANCH  14  18
ENDBRANCH  13  14
ENDBRANCH  11  13
ENDBRANCH  10  11
ENDBRANCH   8   9
ENDBRANCH   1   7
BRANCH   6  20
HETATM   20  O7  UNL     1      -3.860   1.335  -1.187  1.00  0.00    -0.385 OA
HETATM   21  C16 UNL     1      -3.117   2.448  -0.821  1.00  0.00     0.202 C 
ENDBRANCH   6  20
BRANCH   3  22
HETATM   22  O4  UNL     1      -3.132  -3.641   0.343  1.00  0.00    -0.368 OA
ATOM     23  H4  UNL     1      -3.440  -3.895   1.205  1.00  0.00     0.212 HD
ENDBRANCH   3  22
BRANCH   5  24
HETATM   24  O6  UNL     1      -5.480  -0.701  -0.483  1.00  0.00    -0.390 OA
ATOM     25  H6  UNL     1      -5.831   0.072  -0.909  1.00  0.00     0.210 HD
ENDBRANCH   5  24
BRANCH   4  26
HETATM   26  O5  UNL     1      -3.533  -1.138   2.367  1.00  0.00    -0.388 OA
ATOM     27  H5  UNL     1      -4.240  -0.662   2.786  1.00  0.00     0.210 HD
ENDBRANCH   4  26
TORSDOF 11
