REMARK  5 active torsions:
REMARK  status: ('A' for Active; 'I' for Inactive)
REMARK    1  A    between atoms: S1_2  and  C2_3 
REMARK    2  A    between atoms: C3_4  and  C4_5 
REMARK    3  A    between atoms: C4_5  and  N1_6 
REMARK    4  A    between atoms: C4_5  and  C13_16 
REMARK       I    between atoms: C13_16  and  N2_18 
REMARK    5  A    between atoms: N2_18  and  C14_20 
ROOT
HETATM    1  C4  UNL     1      -1.661  -0.627   0.536  1.00  0.00     0.198 C 
ENDROOT
BRANCH   1   2
HETATM    2  C3  UNL     1      -2.547  -1.669   1.099  1.00  0.00     0.014 C 
HETATM    3  C2  UNL     1      -3.992  -1.597   1.118  1.00  0.00     0.043 C 
BRANCH   3   4
HETATM    4  S1  UNL     1      -4.683  -0.185   2.011  1.00  0.00    -0.146 SA
HETATM    5  C1  UNL     1      -4.464   1.398   1.238  1.00  0.00     0.095 C 
ENDBRANCH   3   4
ENDBRANCH   1   2
BRANCH   1   6
HETATM    6  N1  UNL     1      -0.328  -1.009   0.757  1.00  0.00    -0.380 N 
HETATM    7  C5  UNL     1       0.862  -0.467   0.443  1.00  0.00    -0.017 C 
HETATM    8  C6  UNL     1       1.273   0.906   0.894  1.00  0.00     0.053 C 
HETATM    9  C12 UNL     1       1.420  -0.772  -0.907  1.00  0.00     0.053 C 
HETATM   10  C7  UNL     1       2.813   0.908   0.995  1.00  0.00     0.014 C 
HETATM   11  C8  UNL     1       3.431   0.594  -0.358  1.00  0.00    -0.047 C 
HETATM   12  C9  UNL     1       4.225   1.784  -0.882  1.00  0.00     0.015 C 
HETATM   13  C10 UNL     1       4.394  -0.570  -0.264  1.00  0.00     0.015 C 
HETATM   14  C11 UNL     1       2.349   0.318  -1.411  1.00  0.00     0.014 C 
ATOM     15  H1  UNL     1      -0.244  -1.889   1.266  1.00  0.00     0.160 HD
ENDBRANCH   1   6
BRANCH   1  16
HETATM   16  C13 UNL     1      -1.909  -0.063  -0.767  1.00  0.00     0.250 C 
HETATM   17  O1  UNL     1      -1.173   0.886  -1.203  1.00  0.00    -0.270 OA
HETATM   18  N2  UNL     1      -2.902  -0.425  -1.699  1.00  0.00    -0.303 N 
ATOM     19  H2  UNL     1      -3.540  -1.189  -1.475  1.00  0.00     0.171 HD
BRANCH  18  20
HETATM   20  C14 UNL     1      -3.038   0.257  -2.958  1.00  0.00     0.355 C 
HETATM   21  O2  UNL     1      -3.902  -0.033  -3.799  1.00  0.00    -0.283 OA
ENDBRANCH  18  20
ENDBRANCH   1  16
TORSDOF 5
