REMARK  10 active torsions:
REMARK  status: ('A' for Active; 'I' for Inactive)
REMARK    1  A    between atoms: C5_6  and  C6_7 
REMARK    2  A    between atoms: C6_7  and  C7_8 
REMARK    3  A    between atoms: C6_7  and  C13_14 
REMARK    4  A    between atoms: C7_8  and  C8_9 
REMARK       I    between atoms: C13_14  and  N1_16 
REMARK    5  A    between atoms: C17_22  and  C18_23 
REMARK    6  A    between atoms: C18_23  and  O2_24 
REMARK    7  A    between atoms: C18_23  and  N2_26 
REMARK    8  A    between atoms: N2_26  and  C19_28 
REMARK    9  A    between atoms: N3_31  and  C22_32 
REMARK   10  A    between atoms: N5_39  and  O3_40 
ROOT
HETATM    1  C22 UNL     1       7.634   0.450  -0.644  1.00  0.00     0.191 C 
HETATM    2  C23 UNL     1       8.363   0.295   0.683  1.00  0.00     0.048 C 
HETATM    3  C24 UNL     1       7.948  -0.767  -1.417  1.00  0.00     0.084 C 
HETATM    4  N4  UNL     1       8.198  -1.725  -2.010  1.00  0.00    -0.195 NA
ENDROOT
BRANCH   1   5
HETATM    5  N3  UNL     1       6.254   0.602  -0.388  1.00  0.00    -0.357 N 
HETATM    6  C21 UNL     1       5.557  -0.445   0.231  1.00  0.00     0.066 C 
HETATM    7  C20 UNL     1       4.408  -0.883  -0.642  1.00  0.00     0.069 C 
HETATM    8  C19 UNL     1       3.472   0.342  -0.763  1.00  0.00     0.088 C 
HETATM    9  C26 UNL     1       4.240   1.315  -1.617  1.00  0.00     0.069 C 
HETATM   10  C25 UNL     1       5.556   1.662  -0.972  1.00  0.00     0.066 C 
BRANCH   8  11
HETATM   11  N2  UNL     1       2.268  -0.110  -1.211  1.00  0.00    -0.391 N 
ATOM     12  H2  UNL     1       2.251  -1.092  -1.485  1.00  0.00     0.156 HD
BRANCH  11  13
HETATM   13  C18 UNL     1       1.075   0.552  -1.351  1.00  0.00     0.224 C 
BRANCH  13  14
HETATM   14  C17 UNL     1       0.333   1.056  -0.133  1.00  0.00     0.090 C 
HETATM   15  C14 UNL     1       0.065   0.089   0.913  1.00  0.00     0.008 C 
HETATM   16  N1  UNL     1      -0.877  -0.769   0.985  1.00  0.00    -0.333 N 
HETATM   17  C15 UNL     1       1.053   0.151   2.053  1.00  0.00     0.127 C 
HETATM   18  C13 UNL     1      -1.930  -1.104   0.161  1.00  0.00     0.230 C 
ATOM     19  H1  UNL     1      -0.843  -1.328   1.837  1.00  0.00     0.168 HD
HETATM   20  O1  UNL     1      -1.739  -1.669  -0.940  1.00  0.00    -0.272 OA
HETATM   21  S1  UNL     1       1.234   1.976   2.139  1.00  0.00    -0.163 SA
HETATM   22  C16 UNL     1       0.881   2.335   0.398  1.00  0.00     0.089 C 
BRANCH  18  23
HETATM   23  C6  UNL     1      -3.339  -0.800   0.572  1.00  0.00     0.113 C 
BRANCH  23  24
HETATM   24  C5  UNL     1      -3.574   0.663   0.607  1.00  0.00    -0.024 A 
HETATM   25  C4  UNL     1      -3.823   1.378  -0.551  1.00  0.00     0.054 A 
HETATM   26  C3  UNL     1      -4.035   2.733  -0.478  1.00  0.00     0.141 A 
HETATM   27  C2  UNL     1      -4.009   3.412   0.718  1.00  0.00     0.074 A 
HETATM   28  F1  UNL     1      -4.283   3.449  -1.623  1.00  0.00    -0.204 F 
HETATM   29  C1  UNL     1      -4.239   4.867   0.779  1.00  0.00     0.074 C 
HETATM   30  N5  UNL     1      -3.765   2.689   1.825  1.00  0.00    -0.237 N 
HETATM   31  C27 UNL     1      -3.551   1.351   1.790  1.00  0.00     0.131 A 
BRANCH  30  32
HETATM   32  O3  UNL     1      -3.733   3.343   3.037  1.00  0.00    -0.283 OA
ATOM     33  H3  UNL     1      -3.561   2.832   3.819  1.00  0.00     0.245 HD
ENDBRANCH  30  32
ENDBRANCH  23  24
BRANCH  23  34
HETATM   34  C7  UNL     1      -4.376  -1.529  -0.197  1.00  0.00     0.023 C 
BRANCH  34  35
HETATM   35  C8  UNL     1      -4.239  -3.007  -0.277  1.00  0.00    -0.013 C 
HETATM   36  C9  UNL     1      -4.269  -3.631   1.109  1.00  0.00     0.005 C 
HETATM   37  C10 UNL     1      -5.470  -4.575   1.120  1.00  0.00     0.000 C 
HETATM   38  C11 UNL     1      -6.416  -3.819   0.186  1.00  0.00     0.000 C 
HETATM   39  C12 UNL     1      -5.501  -3.542  -0.975  1.00  0.00     0.005 C 
ENDBRANCH  34  35
ENDBRANCH  23  34
ENDBRANCH  18  23
ENDBRANCH  13  14
BRANCH  13  40
HETATM   40  O2  UNL     1       1.160   1.709  -2.184  1.00  0.00    -0.376 OA
ATOM     41  H2  UNL     1       1.626   1.392  -2.949  1.00  0.00     0.212 HD
ENDBRANCH  13  40
ENDBRANCH  11  13
ENDBRANCH   8  11
ENDBRANCH   1   5
TORSDOF 10
