REMARK  8 active torsions:
REMARK  status: ('A' for Active; 'I' for Inactive)
REMARK    1  A    between atoms: O1_2  and  C2_3 
REMARK    2  A    between atoms: C2_3  and  C3_5 
REMARK    3  A    between atoms: C8_10  and  O3_11 
REMARK    4  A    between atoms: C10_13  and  C11_14 
REMARK    5  A    between atoms: C11_14  and  C12_15 
REMARK    6  A    between atoms: C12_15  and  C13_16 
REMARK       I    between atoms: C13_16  and  N1_18 
REMARK    7  A    between atoms: N1_18  and  C14_20 
REMARK    8  A    between atoms: C20_29  and  C21_30 
ROOT
HETATM    1  C11 UNL     1       0.574   1.280  -1.634  1.00  0.00     0.051 C 
ENDROOT
BRANCH   1   2
HETATM    2  C10 UNL     1       1.961   0.821  -1.487  1.00  0.00    -0.016 A 
HETATM    3  C8  UNL     1       2.765   1.299  -0.476  1.00  0.00     0.082 A 
HETATM    4  C7  UNL     1       4.069   0.790  -0.386  1.00  0.00    -0.011 A 
HETATM    5  C6  UNL     1       4.846   1.329   0.728  1.00  0.00     0.046 A 
HETATM    6  C25 UNL     1       4.590  -0.168  -1.264  1.00  0.00     0.011 A 
HETATM    7  C5  UNL     1       6.258   0.944   0.819  1.00  0.00     0.033 A 
HETATM    8  C4  UNL     1       6.679  -0.068  -0.127  1.00  0.00    -0.008 A 
HETATM    9  C3  UNL     1       5.964  -0.622  -1.126  1.00  0.00     0.048 A 
HETATM   10  C24 UNL     1       3.769  -0.619  -2.254  1.00  0.00     0.052 A 
HETATM   11  C22 UNL     1       2.463  -0.119  -2.353  1.00  0.00    -0.030 A 
HETATM   12 CL1  UNL     1       4.255  -1.793  -3.430  1.00  0.00    -0.083 Cl
HETATM   13  C23 UNL     1       1.596  -0.626  -3.447  1.00  0.00     0.050 C 
BRANCH   3  14
HETATM   14  O3  UNL     1       2.400   2.241   0.451  1.00  0.00    -0.355 OA
HETATM   15  C9  UNL     1       1.865   2.127   1.709  1.00  0.00     0.210 C 
ENDBRANCH   3  14
BRANCH   9  16
HETATM   16  C2  UNL     1       6.590  -1.613  -1.945  1.00  0.00     0.293 C 
HETATM   17  O2  UNL     1       6.225  -2.267  -2.871  1.00  0.00    -0.259 OA
BRANCH  16  18
HETATM   18  O1  UNL     1       7.968  -1.930  -1.623  1.00  0.00    -0.323 OA
HETATM   19  C1  UNL     1       8.681  -2.890  -2.362  1.00  0.00     0.213 C 
ENDBRANCH  16  18
ENDBRANCH   9  16
ENDBRANCH   1   2
BRANCH   1  20
HETATM   20  C12 UNL     1      -0.445   0.545  -0.816  1.00  0.00     0.107 C 
BRANCH  20  21
HETATM   21  C13 UNL     1      -1.812   1.103  -1.014  1.00  0.00     0.218 C 
HETATM   22  O4  UNL     1      -1.921   2.127  -1.751  1.00  0.00    -0.274 OA
HETATM   23  N1  UNL     1      -2.981   0.566  -0.437  1.00  0.00    -0.345 N 
ATOM     24  H1  UNL     1      -2.916  -0.260   0.158  1.00  0.00     0.163 HD
BRANCH  23  25
HETATM   25  C14 UNL     1      -4.250   1.163  -0.676  1.00  0.00     0.210 C 
HETATM   26  C15 UNL     1      -5.262   0.228  -1.309  1.00  0.00     0.247 C 
HETATM   27  O5  UNL     1      -5.374  -0.116  -2.510  1.00  0.00    -0.271 OA
HETATM   28  N2  UNL     1      -5.900  -0.011  -0.051  1.00  0.00    -0.318 N 
HETATM   29  C16 UNL     1      -5.257   1.195   0.433  1.00  0.00     0.183 C 
HETATM   30  C20 UNL     1      -6.698  -0.628   0.962  1.00  0.00     0.207 C 
HETATM   31  S1  UNL     1      -4.707   0.591   2.054  1.00  0.00    -0.129 SA
HETATM   32  C17 UNL     1      -5.829  -0.831   2.193  1.00  0.00     0.033 C 
HETATM   33  C18 UNL     1      -5.073  -2.135   1.984  1.00  0.00     0.029 C 
HETATM   34  C19 UNL     1      -6.576  -0.819   3.478  1.00  0.00     0.029 C 
BRANCH  30  35
HETATM   35  C21 UNL     1      -7.904   0.159   1.191  1.00  0.00     0.198 C 
HETATM   36  O6  UNL     1      -8.791  -0.120   2.042  1.00  0.00    -0.646 OA
HETATM   37  O7  UNL     1      -8.138   1.302   0.449  1.00  0.00    -0.646 OA
ENDBRANCH  30  35
ENDBRANCH  23  25
ENDBRANCH  20  21
ENDBRANCH   1  20
TORSDOF 8
