REMARK  3 active torsions:
REMARK  status: ('A' for Active; 'I' for Inactive)
REMARK    1  A    between atoms: N1_1  and  C1_4 
REMARK    2  A    between atoms: C4_12  and  O1_13 
REMARK    3  A    between atoms: O1_13  and  C5_14 
ROOT
HETATM    1  C1  UNL     1       4.123  -0.393   0.651  1.00  0.00     0.701 A 
HETATM    2  N2  UNL     1       4.585   0.080  -0.501  1.00  0.00    -0.165 N 
ATOM      3  H2  UNL     1       5.595   0.108  -0.638  1.00  0.00     0.186 HD
HETATM    4  C2  UNL     1       3.802   0.521  -1.491  1.00  0.00     0.192 A 
HETATM    5  S1  UNL     1       4.353   1.102  -2.905  1.00  0.00    -0.040 SA
HETATM    6  N3  UNL     1       2.470   0.471  -1.282  1.00  0.00    -0.314 N 
ATOM      7  H3  UNL     1       1.833   0.796  -2.009  1.00  0.00     0.170 HD
HETATM    8  C3  UNL     1       1.970  -0.005  -0.121  1.00  0.00     0.182 A 
HETATM    9  C4  UNL     1       0.658  -0.150   0.310  1.00  0.00     0.132 A 
HETATM   10  C10 UNL     1       0.747  -0.687   1.575  1.00  0.00     0.149 A 
HETATM   11  N4  UNL     1       2.046  -0.855   1.885  1.00  0.00    -0.286 N 
ATOM     12  H4  UNL     1       2.404  -1.235   2.761  1.00  0.00     0.187 HD
HETATM   13  N5  UNL     1       2.791  -0.439   0.849  1.00  0.00    -0.067 N 
ENDROOT
BRANCH   9  14
HETATM   14  O1  UNL     1      -0.458   0.197  -0.436  1.00  0.00    -0.341 OA
BRANCH  14  15
HETATM   15  C5  UNL     1      -1.729   0.011   0.088  1.00  0.00     0.129 C 
HETATM   16  C6  UNL     1      -2.543   1.311   0.130  1.00  0.00     0.032 C 
HETATM   17  C7  UNL     1      -3.902   0.757   0.474  1.00  0.00     0.002 C 
HETATM   18  C8  UNL     1      -4.037  -0.373  -0.523  1.00  0.00     0.002 C 
HETATM   19  C9  UNL     1      -2.622  -0.843  -0.797  1.00  0.00     0.032 C 
ENDBRANCH  14  15
ENDBRANCH   9  14
BRANCH   1  20
HETATM   20  N1  UNL     1       4.918  -0.806   1.577  1.00  0.00    -0.233 N 
ATOM     21  H12 UNL     1       5.926  -0.771   1.427  1.00  0.00     0.174 HD
ATOM     22  H11 UNL     1       4.563  -1.169   2.462  1.00  0.00     0.174 HD
ENDBRANCH   1  20
TORSDOF 3
