REMARK  3 active torsions:
REMARK  status: ('A' for Active; 'I' for Inactive)
REMARK    1  A    between atoms: C2_2  and  N1_3 
REMARK    2  A    between atoms: C2_2  and  C3_7 
REMARK       I    between atoms: C3_7  and  N2_9 
REMARK    3  A    between atoms: N2_9  and  C4_11 
ROOT
HETATM    1  C4  UNL     1      -0.038  -0.171   0.049  1.00  0.00     0.033 C 
HETATM    2  C5  UNL     1      -0.162   0.159  -1.408  1.00  0.00     0.031 C 
HETATM    3  C6  UNL     1      -1.498  -0.025  -2.010  1.00  0.00     0.007 C 
HETATM    4  C7  UNL     1      -2.675   0.118  -1.125  1.00  0.00    -0.014 C 
HETATM    5  C8  UNL     1      -3.033  -1.187  -0.411  1.00  0.00     0.009 C 
HETATM    6  C9  UNL     1      -2.174  -1.297   0.821  1.00  0.00    -0.012 C 
HETATM    7  C10 UNL     1      -2.411  -0.160   1.766  1.00  0.00     0.009 C 
HETATM    8  C11 UNL     1      -1.951   1.093   1.093  1.00  0.00    -0.012 C 
HETATM    9  C12 UNL     1      -2.663   1.283  -0.199  1.00  0.00     0.009 C 
HETATM   10  C13 UNL     1      -0.467   1.060   0.822  1.00  0.00     0.035 C 
HETATM   11  C14 UNL     1      -0.741  -1.412   0.456  1.00  0.00     0.035 C 
ENDROOT
BRANCH   1  12
HETATM   12  N2  UNL     1       1.375  -0.346   0.336  1.00  0.00    -0.350 N 
HETATM   13  C3  UNL     1       2.366   0.621   0.165  1.00  0.00     0.248 C 
HETATM   14  O1  UNL     1       2.132   1.769  -0.266  1.00  0.00    -0.271 OA
ATOM     15  H2  UNL     1       1.668  -1.255   0.694  1.00  0.00     0.163 HD
BRANCH  13  16
HETATM   16  C2  UNL     1       3.775   0.301   0.501  1.00  0.00     0.270 C 
HETATM   17  C1  UNL     1       4.230  -0.904  -0.295  1.00  0.00     0.050 C 
BRANCH  16  18
HETATM   18  N1  UNL     1       4.666   1.412   0.264  1.00  0.00    -0.067 N 
ATOM     19  H13 UNL     1       5.638   1.171   0.457  1.00  0.00     0.275 HD
ATOM     20  H12 UNL     1       4.759   1.623  -0.730  1.00  0.00     0.275 HD
ATOM     21  H11 UNL     1       4.359   2.224   0.800  1.00  0.00     0.275 HD
ENDBRANCH  16  18
ENDBRANCH  13  16
ENDBRANCH   1  12
TORSDOF 3
