REMARK  4 active torsions:
REMARK  status: ('A' for Active; 'I' for Inactive)
REMARK       I    between atoms: C2_3  and  N2_5 
REMARK    1  A    between atoms: C6_9  and  C7_10 
REMARK    2  A    between atoms: C7_10  and  N3_11 
REMARK    3  A    between atoms: N3_11  and  C8_13 
REMARK    4  A    between atoms: C9_18  and  C10_19 
ROOT
HETATM    1  N1  UNL     1       8.306   1.535   1.635  1.00  0.00    -0.186 NA
HETATM    2  C1  UNL     1       7.146   1.394   1.545  1.00  0.00     0.162 C 
HETATM    3  C2  UNL     1       5.711   1.212   1.403  1.00  0.00     0.325 C 
HETATM    4  O1  UNL     1       4.896   1.677   2.231  1.00  0.00    -0.256 OA
HETATM    5  N2  UNL     1       5.243   0.485   0.294  1.00  0.00    -0.330 N 
HETATM    6  C3  UNL     1       6.053  -0.155  -0.762  1.00  0.00     0.127 C 
HETATM    7  C4  UNL     1       5.197  -0.168  -2.008  1.00  0.00     0.022 C 
HETATM    8  C5  UNL     1       3.966   0.579  -1.583  1.00  0.00     0.032 C 
HETATM    9  C6  UNL     1       3.877   0.190  -0.142  1.00  0.00     0.126 C 
ENDROOT
BRANCH   9  10
HETATM   10  C7  UNL     1       3.596  -1.240   0.128  1.00  0.00     0.088 C 
BRANCH  10  11
HETATM   11  N3  UNL     1       2.341  -1.742  -0.273  1.00  0.00    -0.347 N 
ATOM     12  H3  UNL     1       2.321  -2.627  -0.781  1.00  0.00     0.167 HD
BRANCH  11  13
HETATM   13  C8  UNL     1       1.112  -1.101  -0.018  1.00  0.00     0.164 A 
HETATM   14  N4  UNL     1       0.812   0.034   0.590  1.00  0.00    -0.279 N 
HETATM   15  N5  UNL     1      -0.382   0.434   0.676  1.00  0.00    -0.295 N 
ATOM     16  H4  UNL     1       1.559   0.597   0.997  1.00  0.00     0.189 HD
HETATM   17  C9  UNL     1      -1.368  -0.290   0.151  1.00  0.00     0.078 A 
ATOM     18  H5  UNL     1      -0.592   1.313   1.148  1.00  0.00     0.187 HD
HETATM   19  S1  UNL     1      -0.475  -1.612  -0.492  1.00  0.00    -0.037 SA
BRANCH  17  20
HETATM   20  C10 UNL     1      -2.839  -0.051   0.141  1.00  0.00     0.015 C 
HETATM   21  C11 UNL     1      -3.315   0.885  -0.917  1.00  0.00     0.021 C 
HETATM   22  C12 UNL     1      -4.830   0.978  -0.811  1.00  0.00    -0.009 C 
HETATM   23  C13 UNL     1      -5.283   1.465   0.549  1.00  0.00     0.037 C 
HETATM   24  C17 UNL     1      -5.501  -0.361  -1.018  1.00  0.00     0.037 C 
HETATM   25  C14 UNL     1      -4.783   0.457   1.579  1.00  0.00     0.123 C 
HETATM   26  C15 UNL     1      -3.298   0.467   1.497  1.00  0.00     0.048 C 
HETATM   27  O2  UNL     1      -5.328  -0.783   1.309  1.00  0.00    -0.381 OA
HETATM   28  C16 UNL     1      -4.975  -1.277   0.068  1.00  0.00     0.123 C 
HETATM   29  C18 UNL     1      -3.484  -1.407  -0.134  1.00  0.00     0.048 C 
ENDBRANCH  17  20
ENDBRANCH  11  13
ENDBRANCH  10  11
ENDBRANCH   9  10
TORSDOF 4
