REMARK  8 active torsions:
REMARK  status: ('A' for Active; 'I' for Inactive)
REMARK    1  A    between atoms: C2_2  and  O1_3 
REMARK    2  A    between atoms: O1_3  and  C3_4 
REMARK    3  A    between atoms: C3_4  and  C4_6 
REMARK    4  A    between atoms: C5_7  and  N1_8 
REMARK    5  A    between atoms: N1_8  and  C6_10 
REMARK    6  A    between atoms: C6_10  and  C7_14 
REMARK    7  A    between atoms: C7_14  and  C8_15 
REMARK    8  A    between atoms: C8_15  and  O4_17 
ROOT
HETATM    1  C4  UNL     1      -0.470   0.513   0.023  1.00  0.00     0.080 A 
HETATM    2  C5  UNL     1       0.852   0.437   0.404  1.00  0.00     0.092 A 
HETATM    3  S1  UNL     1       1.254  -1.208   0.050  1.00  0.00    -0.072 SA
HETATM    4  C10 UNL     1      -0.233  -1.730  -0.555  1.00  0.00     0.029 A 
HETATM    5  C11 UNL     1      -1.025  -0.617  -0.473  1.00  0.00    -0.020 A 
HETATM    6  C12 UNL     1      -2.438  -0.864  -0.956  1.00  0.00     0.070 C 
HETATM    7  C13 UNL     1      -2.963  -2.174  -0.428  1.00  0.00     0.024 C 
HETATM    8  C14 UNL     1      -3.471  -2.009   0.991  1.00  0.00     0.038 C 
HETATM    9  C15 UNL     1      -4.165  -2.534  -1.279  1.00  0.00     0.038 C 
HETATM   10  N3  UNL     1      -2.052  -3.253  -0.456  1.00  0.00    -0.393 N 
ATOM     11  H3  UNL     1      -2.268  -4.155  -0.032  1.00  0.00     0.155 HD
HETATM   12  C16 UNL     1      -0.813  -3.003  -1.113  1.00  0.00     0.216 C 
HETATM   13 CL1  UNL     1      -0.973  -2.949  -2.861  1.00  0.00    -0.097 Cl
ENDROOT
BRANCH   2  14
HETATM   14  N1  UNL     1       1.723   1.426   0.956  1.00  0.00    -0.339 N 
ATOM     15  H1  UNL     1       1.387   2.374   1.125  1.00  0.00     0.167 HD
BRANCH  14  16
HETATM   16  C6  UNL     1       3.063   1.071   1.267  1.00  0.00     0.085 C 
HETATM   17  N2  UNL     1       3.637   1.713   2.264  1.00  0.00    -0.388 N 
ATOM     18  H22 UNL     1       3.083   2.427   2.737  1.00  0.00     0.157 HD
ATOM     19  H21 UNL     1       4.599   1.458   2.487  1.00  0.00     0.157 HD
BRANCH  16  20
HETATM   20  C7  UNL     1       3.857   0.047   0.589  1.00  0.00     0.187 C 
BRANCH  20  21
HETATM   21  C8  UNL     1       5.316   0.222   0.760  1.00  0.00     0.265 C 
HETATM   22  O3  UNL     1       5.794   1.158   1.394  1.00  0.00    -0.265 OA
BRANCH  21  23
HETATM   23  O4  UNL     1       6.198  -0.693   0.190  1.00  0.00    -0.326 OA
HETATM   24  C9  UNL     1       7.610  -0.541   0.344  1.00  0.00     0.213 C 
ENDBRANCH  21  23
ENDBRANCH  20  21
ENDBRANCH  16  20
ENDBRANCH  14  16
ENDBRANCH   2  14
BRANCH   1  25
HETATM   25  C3  UNL     1      -1.184   1.823   0.170  1.00  0.00     0.296 C 
HETATM   26  O2  UNL     1      -0.631   2.845   0.627  1.00  0.00    -0.259 OA
BRANCH  25  27
HETATM   27  O1  UNL     1      -2.508   1.999  -0.193  1.00  0.00    -0.318 OA
BRANCH  27  28
HETATM   28  C2  UNL     1      -3.175   3.226  -0.057  1.00  0.00     0.174 C 
HETATM   29  C1  UNL     1      -2.568   4.348  -0.828  1.00  0.00     0.034 C 
ENDBRANCH  27  28
ENDBRANCH  25  27
ENDBRANCH   1  25
TORSDOF 8
