REMARK  7 active torsions:
REMARK  status: ('A' for Active; 'I' for Inactive)
REMARK    1  A    between atoms: C2_2  and  N1_5 
REMARK       I    between atoms: N1_5  and  C5_7 
REMARK    2  A    between atoms: C5_7  and  C6_9 
REMARK    3  A    between atoms: C6_9  and  S1_10 
REMARK    4  A    between atoms: S1_10  and  C7_11 
REMARK       I    between atoms: N4_17  and  C9_19 
REMARK    5  A    between atoms: C9_19  and  C10_21 
REMARK    6  A    between atoms: C10_21  and  C11_22 
REMARK    7  A    between atoms: C11_22  and  C12_23 
ROOT
HETATM    1  C7  UNL     1       0.064  -1.758  -0.177  1.00  0.00     0.130 A 
HETATM    2  N2  UNL     1       1.204  -1.857   0.510  1.00  0.00    -0.286 N 
ATOM      3  H2  UNL     1       1.398  -2.701   1.050  1.00  0.00     0.188 HD
HETATM    4  N3  UNL     1       2.046  -0.912   0.497  1.00  0.00    -0.278 N 
ATOM      5  H3  UNL     1       2.917  -0.989   1.022  1.00  0.00     0.189 HD
HETATM    6  C8  UNL     1       1.779   0.186  -0.212  1.00  0.00     0.168 A 
HETATM    7  N4  UNL     1       2.502   1.264  -0.357  1.00  0.00    -0.306 N 
ATOM      8  H4  UNL     1       2.182   2.043  -0.933  1.00  0.00     0.171 HD
HETATM    9  C9  UNL     1       3.746   1.309   0.316  1.00  0.00     0.223 C 
HETATM   10  O2  UNL     1       3.808   1.771   1.484  1.00  0.00    -0.273 OA
HETATM   11  S2  UNL     1       0.245  -0.199  -0.871  1.00  0.00    -0.026 SA
ENDROOT
BRANCH   1  12
HETATM   12  S1  UNL     1      -1.253  -2.977  -0.309  1.00  0.00    -0.094 SA
BRANCH  12  13
HETATM   13  C6  UNL     1      -2.496  -2.865   0.942  1.00  0.00     0.184 C 
BRANCH  13  14
HETATM   14  C5  UNL     1      -3.395  -1.725   0.916  1.00  0.00     0.227 C 
HETATM   15  N1  UNL     1      -3.421  -0.785  -0.142  1.00  0.00    -0.352 N 
ATOM     16  H1  UNL     1      -2.782  -0.919  -0.925  1.00  0.00     0.163 HD
HETATM   17  O1  UNL     1      -4.228  -1.513   1.870  1.00  0.00    -0.273 OA
BRANCH  15  18
HETATM   18  C2  UNL     1      -4.312   0.359  -0.167  1.00  0.00     0.022 C 
HETATM   19  C1  UNL     1      -4.034   1.110  -1.471  1.00  0.00     0.037 C 
HETATM   20  C3  UNL     1      -5.756  -0.034  -0.170  1.00  0.00     0.037 C 
HETATM   21  C4  UNL     1      -4.045   1.318   0.954  1.00  0.00     0.037 C 
ENDBRANCH  15  18
ENDBRANCH  13  14
ENDBRANCH  12  13
ENDBRANCH   1  12
BRANCH   9  22
HETATM   22  C10 UNL     1       5.013   0.830  -0.295  1.00  0.00     0.104 C 
BRANCH  22  23
HETATM   23  C11 UNL     1       6.190   1.059   0.636  1.00  0.00     0.024 C 
BRANCH  23  24
HETATM   24  C12 UNL     1       7.460   0.568  -0.003  1.00  0.00     0.115 C 
HETATM   25 CL1  UNL     1       8.810   0.858   1.123  1.00  0.00    -0.130 Cl
ENDBRANCH  23  24
ENDBRANCH  22  23
ENDBRANCH   9  22
TORSDOF 7
