REMARK  7 active torsions:
REMARK  status: ('A' for Active; 'I' for Inactive)
REMARK    1  A    between atoms: C1_2  and  C2_3 
REMARK       I    between atoms: C1_2  and  N1_16 
REMARK    2  A    between atoms: C2_3  and  O2_4 
REMARK    3  A    between atoms: O2_4  and  C3_5 
REMARK    4  A    between atoms: C3_5  and  C4_7 
REMARK    5  A    between atoms: C5_8  and  C6_9 
REMARK    6  A    between atoms: N1_16  and  N2_18 
REMARK       I    between atoms: N2_18  and  C12_20 
REMARK    7  A    between atoms: C12_20  and  C13_22 
ROOT
HETATM    1  O1  UNL     1      -2.894   2.243   1.210  1.00  0.00    -0.269 OA
HETATM    2  C1  UNL     1      -1.791   1.798   0.793  1.00  0.00     0.260 C 
HETATM    3  N1  UNL     1      -1.758   0.506   0.232  1.00  0.00    -0.265 N 
ATOM      4  H1  UNL     1      -0.873   0.137  -0.116  1.00  0.00     0.190 HD
ENDROOT
BRANCH   2   5
HETATM    5  C2  UNL     1      -0.593   2.638   0.904  1.00  0.00     0.283 C 
BRANCH   5   6
HETATM    6  O2  UNL     1       0.616   1.980   0.603  1.00  0.00    -0.309 OA
BRANCH   6   7
HETATM    7  C3  UNL     1       1.078   0.927   1.391  1.00  0.00     0.283 C 
HETATM    8  O3  UNL     1       0.390   0.587   2.381  1.00  0.00    -0.260 OA
BRANCH   7   9
HETATM    9  C4  UNL     1       2.330   0.232   1.079  1.00  0.00     0.083 C 
HETATM   10  C5  UNL     1       3.041   0.604   0.031  1.00  0.00     0.019 C 
BRANCH  10  11
HETATM   11  C6  UNL     1       4.288  -0.042  -0.335  1.00  0.00    -0.014 A 
HETATM   12  C7  UNL     1       4.823  -1.087   0.369  1.00  0.00     0.013 A 
HETATM   13  C8  UNL     1       6.025  -1.675  -0.027  1.00  0.00     0.001 A 
HETATM   14  C9  UNL     1       6.714  -1.233  -1.126  1.00  0.00     0.002 A 
HETATM   15  C10 UNL     1       6.181  -0.181  -1.839  1.00  0.00     0.024 A 
HETATM   16  C11 UNL     1       4.996   0.395  -1.446  1.00  0.00     0.044 A 
HETATM   17 CL1  UNL     1       4.326   1.731  -2.358  1.00  0.00    -0.083 Cl
ENDBRANCH  10  11
ENDBRANCH   7   9
ENDBRANCH   6   7
ENDBRANCH   5   6
ENDBRANCH   2   5
BRANCH   3  18
HETATM   18  N2  UNL     1      -2.919  -0.289   0.140  1.00  0.00    -0.262 N 
HETATM   19  C12 UNL     1      -4.016   0.131  -0.635  1.00  0.00     0.293 C 
HETATM   20  O4  UNL     1      -3.966   1.228  -1.255  1.00  0.00    -0.264 OA
ATOM     21  H2  UNL     1      -2.964  -1.177   0.640  1.00  0.00     0.190 HD
BRANCH  19  22
HETATM   22  C13 UNL     1      -5.196  -0.725  -0.701  1.00  0.00     0.144 A 
HETATM   23  C14 UNL     1      -6.364  -0.434  -1.407  1.00  0.00     0.045 A 
HETATM   24  C15 UNL     1      -7.214  -1.490  -1.207  1.00  0.00     0.027 A 
HETATM   25  C16 UNL     1      -6.561  -2.386  -0.400  1.00  0.00     0.143 A 
HETATM   26  O5  UNL     1      -5.360  -1.889  -0.122  1.00  0.00    -0.317 OA
ENDBRANCH  19  22
ENDBRANCH   3  18
TORSDOF 7
