REMARK  2 active torsions:
REMARK  status: ('A' for Active; 'I' for Inactive)
REMARK    1  A    between atoms: C8_8  and  O1_9 
REMARK    2  A    between atoms: O1_9  and  C9_10 
ROOT
HETATM    1  C1  UNL     1      -4.144   1.864  -0.263  1.00  0.00     0.036 C 
HETATM    2  C2  UNL     1      -2.740   1.821   0.150  1.00  0.00    -0.026 C 
HETATM    3  C3  UNL     1      -1.940   0.782   0.251  1.00  0.00    -0.061 C 
HETATM    4  C4  UNL     1      -0.580   0.980   0.679  1.00  0.00     0.031 C 
HETATM    5  C5  UNL     1       0.149   2.220   0.536  1.00  0.00    -0.007 C 
HETATM    6  C6  UNL     1       0.161   3.019  -0.685  1.00  0.00     0.011 C 
HETATM    7  C7  UNL     1       1.592   1.699   0.768  1.00  0.00     0.037 C 
HETATM    8  C8  UNL     1       1.585   0.323   0.122  1.00  0.00     0.132 C 
HETATM    9  C12 UNL     1       0.188  -0.096  -0.078  1.00  0.00     0.010 C 
HETATM   10  C13 UNL     1      -0.279  -0.110  -1.515  1.00  0.00     0.006 C 
HETATM   11  C14 UNL     1       0.855  -0.532  -2.465  1.00  0.00     0.011 C 
HETATM   12  C15 UNL     1      -1.358  -1.123  -1.679  1.00  0.00     0.067 C 
HETATM   13  C16 UNL     1      -2.789  -0.682  -1.443  1.00  0.00     0.146 C 
HETATM   14  O2  UNL     1      -3.667  -0.585  -2.305  1.00  0.00    -0.296 OA
HETATM   15  C17 UNL     1      -2.453  -0.537  -0.054  1.00  0.00     0.065 C 
HETATM   16  C18 UNL     1      -3.222  -1.076   1.096  1.00  0.00     0.145 C 
HETATM   17  N1  UNL     1      -2.194  -1.479   2.077  1.00  0.00    -0.359 N 
ATOM     18  H1  UNL     1      -2.511  -1.819   2.985  1.00  0.00     0.162 HD
HETATM   19  C19 UNL     1      -0.794  -1.425   1.843  1.00  0.00     0.223 C 
HETATM   20  O3  UNL     1       0.035  -1.390   2.788  1.00  0.00    -0.273 OA
HETATM   21  C20 UNL     1      -0.226  -1.409   0.459  1.00  0.00     0.096 C 
HETATM   22  C21 UNL     1      -1.472  -1.653  -0.329  1.00  0.00     0.033 C 
ENDROOT
BRANCH   8  23
HETATM   23  O1  UNL     1       2.256  -0.619   0.840  1.00  0.00    -0.381 OA
BRANCH  23  24
HETATM   24  C9  UNL     1       3.415  -1.099   0.273  1.00  0.00     0.114 C 
HETATM   25  C10 UNL     1       4.547  -0.506   1.141  1.00  0.00     0.039 C 
HETATM   26  C11 UNL     1       3.613  -2.571   0.313  1.00  0.00     0.039 C 
ENDBRANCH  23  24
ENDBRANCH   8  23
TORSDOF 2
