REMARK  3 active torsions:
REMARK  status: ('A' for Active; 'I' for Inactive)
REMARK    1  A    between atoms: C7_10  and  C8_11 
REMARK       I    between atoms: C8_11  and  N2_13 
REMARK    2  A    between atoms: N2_13  and  C9_15 
REMARK    3  A    between atoms: N3_22  and  C16_23 
ROOT
HETATM    1  C9  UNL     1       0.150   0.221  -0.355  1.00  0.00     0.088 C 
HETATM    2  C10 UNL     1       0.713   0.877   0.882  1.00  0.00     0.061 C 
HETATM    3  C11 UNL     1       2.116   1.377   0.551  1.00  0.00     0.226 C 
HETATM    4  C12 UNL     1       2.057   2.184  -0.727  1.00  0.00     0.038 C 
HETATM    5  C13 UNL     1       2.380   1.217  -1.812  1.00  0.00     0.038 C 
HETATM    6  C14 UNL     1       2.543  -0.099  -1.066  1.00  0.00     0.226 C 
HETATM    7  C15 UNL     1       1.134  -0.720  -1.032  1.00  0.00     0.061 C 
HETATM    8  N3  UNL     1       2.881   0.192   0.260  1.00  0.00     0.102 N 
ENDROOT
BRANCH   1   9
HETATM    9  N2  UNL     1      -1.041  -0.501   0.039  1.00  0.00    -0.356 N 
HETATM   10  C8  UNL     1      -2.321  -0.197  -0.504  1.00  0.00     0.223 C 
HETATM   11  O2  UNL     1      -2.379   0.733  -1.348  1.00  0.00    -0.273 OA
ATOM     12  H2  UNL     1      -0.961  -1.250   0.726  1.00  0.00     0.162 HD
BRANCH  10  13
HETATM   13  C7  UNL     1      -3.559  -0.951  -0.092  1.00  0.00     0.090 C 
HETATM   14  C2  UNL     1      -3.867  -0.806   1.352  1.00  0.00     0.087 C 
HETATM   15  C1  UNL     1      -4.358  -2.111   1.989  1.00  0.00     0.020 C 
HETATM   16  C3  UNL     1      -4.718   0.327   1.733  1.00  0.00     0.222 C 
HETATM   17  O1  UNL     1      -4.590   0.627   2.976  1.00  0.00    -0.273 OA
HETATM   18  N1  UNL     1      -5.611   1.100   0.981  1.00  0.00    -0.361 N 
HETATM   19  C4  UNL     1      -6.427   0.700  -0.140  1.00  0.00     0.122 C 
ATOM     20  H1  UNL     1      -5.696   2.076   1.263  1.00  0.00     0.162 HD
HETATM   21  C5  UNL     1      -6.034  -0.685  -0.565  1.00  0.00     0.020 C 
HETATM   22  C6  UNL     1      -4.623  -0.618  -1.059  1.00  0.00     0.016 C 
ENDBRANCH  10  13
ENDBRANCH   1   9
BRANCH   8  23
HETATM   23  C16 UNL     1       4.197   0.207   0.717  1.00  0.00     0.228 C 
HETATM   24  C17 UNL     1       5.164   1.189   0.189  1.00  0.00     0.062 C 
HETATM   25  C18 UNL     1       5.988   0.670  -0.974  1.00  0.00     0.169 C 
HETATM   26  O3  UNL     1       6.712  -0.436  -0.461  1.00  0.00    -0.391 OA
HETATM   27  C19 UNL     1       5.775  -1.453  -0.370  1.00  0.00     0.169 C 
HETATM   28  C20 UNL     1       4.765  -1.202   0.689  1.00  0.00     0.062 C 
ENDBRANCH   8  23
TORSDOF 3
