REMARK  7 active torsions:
REMARK  status: ('A' for Active; 'I' for Inactive)
REMARK       I    between atoms: N2_7  and  C5_9 
REMARK    1  A    between atoms: C5_9  and  C6_11 
REMARK    2  A    between atoms: C6_11  and  C7_12 
REMARK    3  A    between atoms: C7_12  and  C8_13 
REMARK    4  A    between atoms: C8_13  and  O3_15 
REMARK    5  A    between atoms: O3_15  and  C9_16 
REMARK    6  A    between atoms: C9_16  and  C10_17 
REMARK       I    between atoms: C10_17  and  N3_19 
REMARK    7  A    between atoms: N3_19  and  C11_20 
ROOT
HETATM    1  C1  UNL     1      -7.392   1.663  -0.220  1.00  0.00     0.049 C 
HETATM    2  C2  UNL     1      -6.047   1.019  -0.379  1.00  0.00    -0.045 A 
HETATM    3  C3  UNL     1      -5.278   0.893   0.750  1.00  0.00     0.096 A 
HETATM    4  N1  UNL     1      -4.019   0.316   0.648  1.00  0.00    -0.350 N 
ATOM      5  H1  UNL     1      -3.450   0.223   1.490  1.00  0.00     0.166 HD
HETATM    6  C4  UNL     1      -3.532  -0.117  -0.501  1.00  0.00     0.129 A 
HETATM    7  N2  UNL     1      -2.371  -0.599  -0.621  1.00  0.00    -0.312 N 
ATOM      8  H2  UNL     1      -2.144  -0.884  -1.574  1.00  0.00     0.170 HD
HETATM    9  C5  UNL     1      -1.370  -0.813   0.259  1.00  0.00     0.223 C 
HETATM   10  O1  UNL     1      -1.418  -0.548   1.478  1.00  0.00    -0.273 OA
HETATM   11  C12 UNL     1      -4.328   0.016  -1.654  1.00  0.00     0.078 A 
HETATM   12 CL3  UNL     1      -3.726  -0.530  -3.201  1.00  0.00    -0.080 Cl
HETATM   13  C13 UNL     1      -5.585   0.582  -1.592  1.00  0.00     0.035 A 
ENDROOT
BRANCH   9  14
HETATM   14  C6  UNL     1      -0.033  -1.420  -0.149  1.00  0.00     0.113 C 
BRANCH  14  15
HETATM   15  C7  UNL     1       1.012  -0.912   0.781  1.00  0.00     0.120 C 
BRANCH  15  16
HETATM   16  C8  UNL     1       2.375  -1.413   0.386  1.00  0.00     0.259 C 
HETATM   17  O2  UNL     1       2.515  -2.365  -0.467  1.00  0.00    -0.265 OA
BRANCH  16  18
HETATM   18  O3  UNL     1       3.483  -0.934   0.852  1.00  0.00    -0.311 OA
BRANCH  18  19
HETATM   19  C9  UNL     1       4.721  -0.716   1.083  1.00  0.00     0.297 C 
BRANCH  19  20
HETATM   20  C10 UNL     1       5.488  -0.270  -0.190  1.00  0.00     0.313 C 
HETATM   21  O4  UNL     1       4.859  -0.506  -1.248  1.00  0.00    -0.255 OA
HETATM   22  N3  UNL     1       6.710   0.309   0.043  1.00  0.00    -0.376 NA
BRANCH  22  23
HETATM   23  C11 UNL     1       7.909   0.878   0.271  1.00  0.00     0.359 C 
HETATM   24 CL1  UNL     1       9.314  -0.179   0.506  1.00  0.00    -0.071 Cl
HETATM   25 CL2  UNL     1       8.410   2.082  -0.983  1.00  0.00    -0.071 Cl
ENDBRANCH  22  23
ENDBRANCH  19  20
ENDBRANCH  18  19
ENDBRANCH  16  18
ENDBRANCH  15  16
ENDBRANCH  14  15
ENDBRANCH   9  14
TORSDOF 7
