REMARK  15 active torsions:
REMARK  status: ('A' for Active; 'I' for Inactive)
REMARK    1  A    between atoms: N1_1  and  C1_4 
REMARK    2  A    between atoms: N3_9  and  C4_10 
REMARK    3  A    between atoms: C5_13  and  N5_14 
REMARK       I    between atoms: N5_14  and  C6_16 
REMARK    4  A    between atoms: C6_16  and  C7_18 
REMARK    5  A    between atoms: C8_23  and  C9_24 
REMARK    6  A    between atoms: C9_24  and  C10_25 
REMARK    7  A    between atoms: C10_25  and  N8_26 
REMARK    8  A    between atoms: C10_25  and  C17_42 
REMARK       I    between atoms: N8_26  and  C11_28 
REMARK    9  A    between atoms: C11_28  and  C12_30 
REMARK   10  A    between atoms: C13_33  and  O3_34 
REMARK   11  A    between atoms: C14_36  and  C15_37 
REMARK   12  A    between atoms: C15_37  and  C16_38 
REMARK   13  A    between atoms: C17_42  and  O6_43 
REMARK   14  A    between atoms: C17_42  and  O7_45 
REMARK   15  A    between atoms: C18_48  and  O8_49 
ROOT
HETATM    1  C7  UNL     1      -1.420  -2.265   1.152  1.00  0.00     0.159 A 
HETATM    2  N6  UNL     1      -0.673  -1.744   0.185  1.00  0.00    -0.289 N 
ATOM      3  H6  UNL     1      -1.019  -0.949  -0.352  1.00  0.00     0.188 HD
HETATM    4  N7  UNL     1       0.462  -2.229  -0.072  1.00  0.00    -0.297 N 
ATOM      5  H7  UNL     1       1.031  -1.825  -0.816  1.00  0.00     0.187 HD
HETATM    6  C8  UNL     1       0.920  -3.264   0.622  1.00  0.00     0.070 A 
HETATM    7  S1  UNL     1      -0.394  -3.525   1.701  1.00  0.00    -0.051 SA
ENDROOT
BRANCH   6   8
HETATM    8  C9  UNL     1       2.220  -3.998   0.499  1.00  0.00     0.096 C 
BRANCH   8   9
HETATM    9  C10 UNL     1       3.068  -3.435  -0.580  1.00  0.00     0.145 C 
BRANCH   9  10
HETATM   10  N8  UNL     1       3.436  -2.053  -0.435  1.00  0.00    -0.344 N 
HETATM   11  C11 UNL     1       3.310  -1.081  -1.434  1.00  0.00     0.293 C 
HETATM   12  O2  UNL     1       2.843  -1.408  -2.554  1.00  0.00    -0.264 OA
ATOM     13  H8  UNL     1       3.818  -1.759   0.464  1.00  0.00     0.163 HD
BRANCH  11  14
HETATM   14  C12 UNL     1       3.697   0.308  -1.242  1.00  0.00     0.219 A 
HETATM   15  N9  UNL     1       3.609   1.316  -2.129  1.00  0.00    -0.311 N 
HETATM   16  C13 UNL     1       4.064   2.454  -1.585  1.00  0.00     0.173 A 
ATOM     17  H9  UNL     1       3.248   1.227  -3.079  1.00  0.00     0.170 HD
HETATM   18  C14 UNL     1       4.445   2.110  -0.307  1.00  0.00     0.114 A 
HETATM   19  O5  UNL     1       4.212   0.832  -0.140  1.00  0.00    -0.288 OA
BRANCH  16  20
HETATM   20  O3  UNL     1       4.150   3.725  -2.151  1.00  0.00    -0.344 OA
ATOM     21  H3  UNL     1       4.472   4.531  -1.766  1.00  0.00     0.219 HD
ENDBRANCH  16  20
BRANCH  18  22
HETATM   22  C15 UNL     1       5.028   3.005   0.749  1.00  0.00     0.169 C 
BRANCH  22  23
HETATM   23  C16 UNL     1       6.441   3.290   0.457  1.00  0.00     0.237 C 
HETATM   24  N10 UNL     1       7.210   4.113   1.311  1.00  0.00    -0.062 NA
HETATM   25  O4  UNL     1       6.975   2.798  -0.564  1.00  0.00    -0.277 OA
ENDBRANCH  22  23
ENDBRANCH  18  22
ENDBRANCH  11  14
ENDBRANCH   9  10
BRANCH   9  26
HETATM   26  C17 UNL     1       4.394  -4.210  -0.660  1.00  0.00     0.276 C 
BRANCH  26  27
HETATM   27  O6  UNL     1       4.188  -5.566  -0.801  1.00  0.00    -0.369 OA
ATOM     28  H6  UNL     1       5.007  -6.045  -0.850  1.00  0.00     0.212 HD
ENDBRANCH  26  27
BRANCH  26  29
HETATM   29  O7  UNL     1       5.177  -3.868   0.422  1.00  0.00    -0.369 OA
ATOM     30  H7  UNL     1       5.996  -4.347   0.373  1.00  0.00     0.212 HD
ENDBRANCH  26  29
ENDBRANCH   9  26
ENDBRANCH   8   9
ENDBRANCH   6   8
BRANCH   1  31
HETATM   31  C6  UNL     1      -2.741  -1.847   1.588  1.00  0.00     0.278 C 
HETATM   32  N5  UNL     1      -3.366  -0.757   0.953  1.00  0.00    -0.329 N 
ATOM     33  H5  UNL     1      -2.875  -0.282   0.196  1.00  0.00     0.165 HD
HETATM   34  O1  UNL     1      -3.311  -2.447   2.512  1.00  0.00    -0.265 OA
BRANCH  32  35
HETATM   35  C5  UNL     1      -4.688  -0.282   1.337  1.00  0.00     0.243 C 
HETATM   36  N4  UNL     1      -5.601  -0.183   0.231  1.00  0.00    -0.330 N 
HETATM   37  C4  UNL     1      -5.680   1.030  -0.199  1.00  0.00     0.244 C 
ATOM     38  H4  UNL     1      -6.118  -0.969  -0.162  1.00  0.00     0.165 HD
HETATM   39  O9  UNL     1      -4.839   1.832   0.570  1.00  0.00    -0.286 OA
HETATM   40  C18 UNL     1      -4.591   1.172   1.795  1.00  0.00     0.309 C 
BRANCH  37  41
HETATM   41  N3  UNL     1      -6.507   1.471  -1.299  1.00  0.00    -0.120 N 
HETATM   42  C1  UNL     1      -6.971   2.718  -1.503  1.00  0.00     0.685 A 
HETATM   43  N2  UNL     1      -7.709   2.752  -2.634  1.00  0.00    -0.200 N 
HETATM   44  C2  UNL     1      -7.733   1.524  -3.180  1.00  0.00     0.124 A 
ATOM     45  H2  UNL     1      -8.174   3.577  -3.013  1.00  0.00     0.183 HD
HETATM   46  C3  UNL     1      -6.968   0.733  -2.319  1.00  0.00     0.136 A 
BRANCH  42  47
HETATM   47  N1  UNL     1      -6.714   3.713  -0.693  1.00  0.00    -0.234 N 
ATOM     48  H12 UNL     1      -7.066   4.658  -0.848  1.00  0.00     0.174 HD
ATOM     49  H11 UNL     1      -6.157   3.687   0.161  1.00  0.00     0.174 HD
ENDBRANCH  42  47
ENDBRANCH  37  41
BRANCH  40  50
HETATM   50  O8  UNL     1      -5.674   1.435   2.634  1.00  0.00    -0.367 OA
ATOM     51  H8  UNL     1      -5.614   2.339   2.919  1.00  0.00     0.212 HD
ENDBRANCH  40  50
ENDBRANCH  32  35
ENDBRANCH   1  31
TORSDOF 15
