REMARK  9 active torsions:
REMARK  status: ('A' for Active; 'I' for Inactive)
REMARK    1  A    between atoms: N1_1  and  C1_5 
REMARK    2  A    between atoms: C1_5  and  C2_6 
REMARK    3  A    between atoms: C2_6  and  N2_7 
REMARK    4  A    between atoms: N2_7  and  C3_10 
REMARK    5  A    between atoms: C3_10  and  C4_11 
REMARK    6  A    between atoms: C4_11  and  C5_12 
REMARK    7  A    between atoms: C5_12  and  N3_13 
REMARK    8  A    between atoms: C8_19  and  N5_20 
REMARK    9  A    between atoms: N5_20  and  N6_22 
ROOT
HETATM    1  N3  UNL     1      -1.210   0.267  -0.923  1.00  0.00    -0.146 N 
HETATM    2  C6  UNL     1      -1.916   1.052   0.032  1.00  0.00     0.298 A 
HETATM    3  O1  UNL     1      -1.526   2.171   0.508  1.00  0.00    -0.267 OA
HETATM    4  C7  UNL     1      -3.143   0.323   0.335  1.00  0.00     0.288 A 
HETATM    5  N4  UNL     1      -3.061  -0.855  -0.483  1.00  0.00    -0.179 N 
ATOM      6  H4  UNL     1      -3.779  -1.579  -0.501  1.00  0.00     0.181 HD
HETATM    7  C8  UNL     1      -1.990  -0.901  -1.189  1.00  0.00     0.700 A 
HETATM    8  N7  UNL     1      -3.281  -0.105   1.695  1.00  0.00    -0.300 N 
ATOM      9  H7  UNL     1      -2.517  -0.273   2.350  1.00  0.00     0.167 HD
HETATM   10  C9  UNL     1      -4.659  -0.255   1.973  1.00  0.00     0.325 C 
HETATM   11  O2  UNL     1      -5.231  -0.911   2.900  1.00  0.00    -0.247 OA
HETATM   12  N8  UNL     1      -5.341   0.516   0.958  1.00  0.00    -0.275 N 
ATOM     13  H8  UNL     1      -6.352   0.620   0.870  1.00  0.00     0.173 HD
HETATM   14  C10 UNL     1      -4.373   1.102   0.107  1.00  0.00     0.285 C 
HETATM   15  O3  UNL     1      -4.550   2.062  -0.656  1.00  0.00    -0.268 OA
ENDROOT
BRANCH   1  16
HETATM   16  C5  UNL     1       0.057   0.571  -1.516  1.00  0.00     0.152 C 
BRANCH  16  17
HETATM   17  C4  UNL     1       1.249   0.024  -0.806  1.00  0.00     0.048 C 
BRANCH  17  18
HETATM   18  C3  UNL     1       1.367   0.510   0.611  1.00  0.00     0.234 C 
BRANCH  18  19
HETATM   19  N2  UNL     1       2.523  -0.023   1.269  1.00  0.00    -0.073 N 
ATOM     20  H22 UNL     1       2.508  -1.043   1.245  1.00  0.00     0.277 HD
ATOM     21  H21 UNL     1       2.461   0.128   2.276  1.00  0.00     0.277 HD
BRANCH  19  22
HETATM   22  C2  UNL     1       3.780   0.474   0.762  1.00  0.00     0.259 C 
BRANCH  22  23
HETATM   23  C1  UNL     1       4.901  -0.188   1.579  1.00  0.00     0.257 C 
BRANCH  23  24
HETATM   24  N1  UNL     1       6.177   0.300   1.086  1.00  0.00    -0.078 N 
ATOM     25  H13 UNL     1       6.289   0.160   0.082  1.00  0.00     0.274 HD
ATOM     26  H12 UNL     1       6.236   1.318   1.092  1.00  0.00     0.274 HD
ATOM     27  H11 UNL     1       6.921  -0.139   1.628  1.00  0.00     0.274 HD
ENDBRANCH  23  24
ENDBRANCH  22  23
ENDBRANCH  19  22
ENDBRANCH  18  19
ENDBRANCH  17  18
ENDBRANCH  16  17
ENDBRANCH   1  16
BRANCH   7  28
HETATM   28  N5  UNL     1      -1.584  -1.930  -2.110  1.00  0.00    -0.138 N 
ATOM     29  H5  UNL     1      -0.827  -2.560  -1.847  1.00  0.00     0.205 HD
BRANCH  28  30
HETATM   30  N6  UNL     1      -2.197  -2.089  -3.352  1.00  0.00    -0.331 N 
ATOM     31  H62 UNL     1      -2.953  -1.450  -3.599  1.00  0.00     0.177 HD
ATOM     32  H61 UNL     1      -1.909  -2.818  -4.005  1.00  0.00     0.177 HD
ENDBRANCH  28  30
ENDBRANCH   7  28
TORSDOF 9
