REMARK  6 active torsions:
REMARK  status: ('A' for Active; 'I' for Inactive)
REMARK    1  A    between atoms: N1_1  and  S1_4 
REMARK    2  A    between atoms: S1_4  and  N2_7 
REMARK       I    between atoms: N2_7  and  C1_9 
REMARK       I    between atoms: C1_9  and  N3_11 
REMARK    3  A    between atoms: N3_11  and  N4_13 
REMARK    4  A    between atoms: N4_13  and  S2_15 
REMARK    5  A    between atoms: S2_15  and  N5_18 
REMARK    6  A    between atoms: N5_18  and  C2_20 
ROOT
HETATM    1  N4  UNL     1       0.256   0.859   0.080  1.00  0.00    -0.205 N 
ATOM      2  H4  UNL     1       0.269   1.333   0.983  1.00  0.00     0.202 HD
ENDROOT
BRANCH   1   3
HETATM    3  N3  UNL     1       1.413   0.445  -0.548  1.00  0.00    -0.240 N 
HETATM    4  C1  UNL     1       2.461  -0.097   0.230  1.00  0.00     0.350 C 
HETATM    5  N2  UNL     1       3.685  -0.544  -0.320  1.00  0.00    -0.218 N 
HETATM    6  O3  UNL     1       2.281  -0.180   1.485  1.00  0.00    -0.244 OA
ATOM      7  H2  UNL     1       3.834  -0.482  -1.327  1.00  0.00     0.185 HD
ATOM      8  H3  UNL     1       1.510   0.529  -1.560  1.00  0.00     0.192 HD
BRANCH   5   9
HETATM    9  S1  UNL     1       4.919  -1.186   0.672  1.00  0.00     0.320 S 
HETATM   10  O1  UNL     1       4.544  -2.586   1.145  1.00  0.00    -0.183 OA
HETATM   11  O2  UNL     1       5.187  -0.365   1.876  1.00  0.00    -0.183 OA
BRANCH   9  12
HETATM   12  N1  UNL     1       6.389  -1.339  -0.233  1.00  0.00    -0.311 N 
ATOM     13  H12 UNL     1       6.895  -2.207  -0.407  1.00  0.00     0.170 HD
ATOM     14  H11 UNL     1       6.640  -0.402  -0.549  1.00  0.00     0.170 HD
ENDBRANCH   9  12
ENDBRANCH   5   9
ENDBRANCH   1   3
BRANCH   1  15
HETATM   15  S2  UNL     1      -1.205   0.526  -0.754  1.00  0.00     0.350 S 
HETATM   16  O4  UNL     1      -1.168   1.108  -2.117  1.00  0.00    -0.180 OA
HETATM   17  O5  UNL     1      -1.349  -1.000  -0.780  1.00  0.00    -0.180 OA
BRANCH  15  18
HETATM   18  N5  UNL     1      -2.482   1.200   0.230  1.00  0.00    -0.097 N 
ATOM     19  H5  UNL     1      -2.318   2.066   0.743  1.00  0.00     0.199 HD
BRANCH  18  20
HETATM   20  C2  UNL     1      -3.729   0.565   0.323  1.00  0.00     0.711 A 
HETATM   21  N6  UNL     1      -4.154  -0.550  -0.283  1.00  0.00    -0.127 N 
HETATM   22  N7  UNL     1      -5.410  -0.797   0.113  1.00  0.00    -0.237 N 
ATOM     23  H6  UNL     1      -3.613  -1.116  -0.936  1.00  0.00     0.205 HD
HETATM   24  C3  UNL     1      -5.789   0.158   0.967  1.00  0.00     0.353 A 
ATOM     25  H7  UNL     1      -5.983  -1.585  -0.188  1.00  0.00     0.192 HD
HETATM   26  O6  UNL     1      -6.934   0.246   1.552  1.00  0.00    -0.245 OA
HETATM   27  N8  UNL     1      -4.761   1.003   1.102  1.00  0.00    -0.138 N 
ATOM     28  H8  UNL     1      -4.750   1.837   1.690  1.00  0.00     0.189 HD
ENDBRANCH  18  20
ENDBRANCH  15  18
ENDBRANCH   1  15
TORSDOF 6
