REMARK  6 active torsions:
REMARK  status: ('A' for Active; 'I' for Inactive)
REMARK    1  A    between atoms: C4_4  and  C5_5 
REMARK    2  A    between atoms: C6_9  and  C7_10 
REMARK    3  A    between atoms: C13_19  and  N4_20 
REMARK    4  A    between atoms: N4_20  and  C14_22 
REMARK    5  A    between atoms: C14_22  and  C15_23 
REMARK    6  A    between atoms: C21_32  and  O2_33 
ROOT
HETATM    1  C1  UNL     1       0.832  -0.345  -4.113  1.00  0.00     0.010 C 
HETATM    2  C2  UNL     1       0.181  -0.525  -2.729  1.00  0.00    -0.015 C 
HETATM    3  C3  UNL     1       1.171  -0.415  -1.649  1.00  0.00     0.016 C 
HETATM    4  C4  UNL     1       1.044   0.729  -0.684  1.00  0.00     0.056 C 
HETATM    5  C11 UNL     1       0.239   0.406   0.526  1.00  0.00     0.014 C 
HETATM    6  C12 UNL     1      -0.892  -0.551   0.248  1.00  0.00     0.028 C 
HETATM    7  C13 UNL     1      -2.065   0.212  -0.394  1.00  0.00     0.105 C 
HETATM    8  C21 UNL     1      -2.143  -0.308  -1.793  1.00  0.00     0.140 C 
HETATM    9  C22 UNL     1      -1.031   0.308  -2.673  1.00  0.00     0.038 C 
ENDROOT
BRANCH   4  10
HETATM   10  C5  UNL     1       2.451   0.964  -0.162  1.00  0.00     0.108 A 
HETATM   11  N1  UNL     1       3.430   1.624  -0.800  1.00  0.00    -0.247 N 
HETATM   12  O1  UNL     1       4.503   1.615  -0.030  1.00  0.00    -0.222 OA
ATOM     13  H1  UNL     1       3.358   2.058  -1.720  1.00  0.00     0.196 HD
HETATM   14  C6  UNL     1       4.244   0.982   1.071  1.00  0.00     0.155 A 
HETATM   15  N3  UNL     1       2.961   0.574   0.992  1.00  0.00    -0.326 N 
ATOM     16  H3  UNL     1       2.463   0.047   1.710  1.00  0.00     0.169 HD
BRANCH  14  17
HETATM   17  C7  UNL     1       5.162   0.734   2.218  1.00  0.00     0.119 C 
HETATM   18  C8  UNL     1       5.719  -0.707   2.093  1.00  0.00     0.286 C 
HETATM   19  N2  UNL     1       6.687  -0.145   1.181  1.00  0.00     0.085 N 
HETATM   20  C9  UNL     1       7.968  -0.783   1.302  1.00  0.00     0.309 C 
HETATM   21  C10 UNL     1       6.583   1.092   1.968  1.00  0.00     0.286 C 
ENDBRANCH  14  17
ENDBRANCH   4  10
BRANCH   7  22
HETATM   22  N4  UNL     1      -3.259   0.019   0.326  1.00  0.00    -0.411 N 
ATOM     23  H4  UNL     1      -3.271  -0.509   1.199  1.00  0.00     0.154 HD
BRANCH  22  24
HETATM   24  C14 UNL     1      -4.442   0.584  -0.205  1.00  0.00     0.158 C 
BRANCH  24  25
HETATM   25  C15 UNL     1      -5.605   0.273   0.689  1.00  0.00     0.021 A 
HETATM   26  C16 UNL     1      -5.825  -1.055   0.962  1.00  0.00     0.045 A 
HETATM   27 CL1  UNL     1      -4.750  -2.348   0.449  1.00  0.00    -0.084 Cl
HETATM   28  C17 UNL     1      -6.926  -1.403   1.704  1.00  0.00     0.026 A 
HETATM   29  C18 UNL     1      -7.831  -0.483   2.195  1.00  0.00     0.029 A 
HETATM   30  C19 UNL     1      -7.598   0.840   1.912  1.00  0.00     0.073 A 
HETATM   31 CL2  UNL     1      -8.743   2.041   2.480  1.00  0.00    -0.081 Cl
HETATM   32  C20 UNL     1      -6.480   1.206   1.159  1.00  0.00     0.147 A 
HETATM   33  F1  UNL     1      -6.285   2.542   0.914  1.00  0.00    -0.204 F 
ENDBRANCH  24  25
ENDBRANCH  22  24
ENDBRANCH   7  22
BRANCH   8  34
HETATM   34  O2  UNL     1      -1.949  -1.699  -1.817  1.00  0.00    -0.394 OA
ATOM     35  H2  UNL     1      -1.999  -2.030  -2.706  1.00  0.00     0.210 HD
ENDBRANCH   8  34
TORSDOF 6
