REMARK  4 active torsions:
REMARK  status: ('A' for Active; 'I' for Inactive)
REMARK    1  A    between atoms: C2_2  and  C3_3 
REMARK    2  A    between atoms: C3_3  and  N1_4 
REMARK    3  A    between atoms: C4_6  and  C5_7 
REMARK    4  A    between atoms: C7_9  and  C8_10 
ROOT
HETATM    1  C5  UNL     1      -0.676  -0.155   0.188  1.00  0.00     0.052 A 
HETATM    2  C6  UNL     1      -1.318   1.088   0.201  1.00  0.00     0.060 A 
HETATM    3  C7  UNL     1      -2.669   1.207   0.021  1.00  0.00     0.067 A 
HETATM    4  N2  UNL     1      -3.370   0.054  -0.172  1.00  0.00    -0.346 N 
ATOM      5  H2  UNL     1      -4.379   0.103  -0.310  1.00  0.00     0.167 HD
HETATM    6  C9  UNL     1      -2.767  -1.142  -0.185  1.00  0.00     0.079 A 
HETATM    7  C10 UNL     1      -3.533  -2.414  -0.372  1.00  0.00     0.089 C 
HETATM    8  N3  UNL     1      -1.415  -1.254  -0.005  1.00  0.00    -0.340 N 
HETATM    9  C11 UNL     1      -0.805  -2.546  -0.023  1.00  0.00     0.158 C 
ENDROOT
BRANCH   1  10
HETATM   10  C4  UNL     1       0.761  -0.243   0.382  1.00  0.00     0.113 C 
HETATM   11  N1  UNL     1       1.437   0.882   0.569  1.00  0.00    -0.397 N 
ATOM     12  H1  UNL     1       0.951   1.779   0.576  1.00  0.00     0.158 HD
BRANCH  11  13
HETATM   13  C3  UNL     1       2.885   0.827   0.765  1.00  0.00     0.118 C 
BRANCH  13  14
HETATM   14  C2  UNL     1       3.642   1.016  -0.533  1.00  0.00     0.015 C 
HETATM   15  C1  UNL     1       5.139   0.915  -0.298  1.00  0.00     0.006 C 
ENDBRANCH  13  14
ENDBRANCH  11  13
ENDBRANCH   1  10
BRANCH   3  16
HETATM   16  C8  UNL     1      -3.367   2.515   0.035  1.00  0.00     0.231 C 
HETATM   17 CL1  UNL     1      -5.047   2.305  -0.567  1.00  0.00    -0.077 Cl
HETATM   18 CL2  UNL     1      -2.599   3.790  -0.876  1.00  0.00    -0.077 Cl
HETATM   19 CL3  UNL     1      -3.439   2.994   1.778  1.00  0.00    -0.077 Cl
ENDBRANCH   3  16
TORSDOF 4
