REMARK  10 active torsions:
REMARK  status: ('A' for Active; 'I' for Inactive)
REMARK    1  A    between atoms: C2_2  and  C3_3 
REMARK    2  A    between atoms: C3_3  and  O2_5 
REMARK    3  A    between atoms: O2_5  and  C4_6 
REMARK    4  A    between atoms: C7_9  and  C8_10 
REMARK    5  A    between atoms: C8_10  and  O3_11 
REMARK    6  A    between atoms: O3_11  and  C9_12 
REMARK    7  A    between atoms: C9_12  and  C10_14 
REMARK       I    between atoms: C10_14  and  N1_16 
REMARK    8  A    between atoms: C22_29  and  O6_30 
REMARK    9  A    between atoms: O6_30  and  C23_31 
REMARK   10  A    between atoms: C23_31  and  C24_33 
ROOT
HETATM    1  C4  UNL     1      -1.781   1.920  -0.233  1.00  0.00     0.169 C 
HETATM    2  C5  UNL     1      -0.894   1.069  -1.061  1.00  0.00     0.041 C 
HETATM    3  C6  UNL     1      -0.148   0.012  -0.347  1.00  0.00     0.006 C 
HETATM    4  C7  UNL     1       0.702   0.555   0.736  1.00  0.00     0.015 C 
HETATM    5  C14 UNL     1       0.107   0.046   2.030  1.00  0.00     0.013 C 
HETATM    6  C15 UNL     1      -0.878  -1.040   1.722  1.00  0.00     0.005 C 
HETATM    7  C16 UNL     1      -0.418  -2.333   2.278  1.00  0.00    -0.043 C 
HETATM    8  C17 UNL     1       0.739  -2.283   3.248  1.00  0.00     0.015 C 
HETATM    9  C18 UNL     1      -1.517  -3.049   3.063  1.00  0.00     0.015 C 
HETATM   10  C19 UNL     1       0.023  -3.155   1.108  1.00  0.00     0.010 C 
HETATM   11  C20 UNL     1      -0.267  -2.372  -0.115  1.00  0.00     0.014 C 
HETATM   12  C21 UNL     1      -1.012  -1.103   0.242  1.00  0.00    -0.003 C 
HETATM   13  C22 UNL     1      -2.353  -1.188  -0.325  1.00  0.00     0.173 C 
HETATM   14  C26 UNL     1      -3.340  -0.076  -0.105  1.00  0.00     0.190 A 
HETATM   15  O9  UNL     1      -3.409   0.629   1.079  1.00  0.00    -0.364 OA
HETATM   16  C27 UNL     1      -3.116   1.251  -0.152  1.00  0.00     0.113 A 
HETATM   17  C28 UNL     1      -4.257   2.221  -0.523  1.00  0.00     0.051 C 
ENDROOT
BRANCH   4  18
HETATM   18  C8  UNL     1       2.162   0.150   0.616  1.00  0.00     0.184 C 
BRANCH  18  19
HETATM   19  O3  UNL     1       2.748   0.573  -0.569  1.00  0.00    -0.313 OA
BRANCH  19  20
HETATM   20  C9  UNL     1       4.093   0.240  -0.782  1.00  0.00     0.351 C 
HETATM   21  O4  UNL     1       4.709  -0.426   0.109  1.00  0.00    -0.254 OA
BRANCH  20  22
HETATM   22  C10 UNL     1       4.781   0.640  -1.991  1.00  0.00     0.321 C 
HETATM   23  O5  UNL     1       4.200   1.302  -2.882  1.00  0.00    -0.261 OA
HETATM   24  N1  UNL     1       6.132   0.282  -2.179  1.00  0.00    -0.327 N 
HETATM   25  C11 UNL     1       7.129   0.765  -1.552  1.00  0.00    -0.018 C 
ATOM     26  H1  UNL     1       6.328  -0.430  -2.883  1.00  0.00     0.168 HD
HETATM   27  C12 UNL     1       8.505   0.302  -1.843  1.00  0.00     0.062 C 
HETATM   28  C13 UNL     1       6.949   1.808  -0.510  1.00  0.00     0.062 C 
ENDBRANCH  20  22
ENDBRANCH  19  20
ENDBRANCH  18  19
ENDBRANCH   4  18
BRANCH   1  29
HETATM   29  O2  UNL     1      -1.843   3.197  -0.892  1.00  0.00    -0.313 OA
BRANCH  29  30
HETATM   30  C3  UNL     1      -1.526   4.379  -0.282  1.00  0.00     0.258 C 
HETATM   31  O1  UNL     1      -1.161   4.355   0.917  1.00  0.00    -0.265 OA
BRANCH  30  32
HETATM   32  C2  UNL     1      -1.596   5.698  -0.981  1.00  0.00     0.106 C 
HETATM   33  C1  UNL     1      -2.848   6.406  -0.490  1.00  0.00     0.015 C 
ENDBRANCH  30  32
ENDBRANCH  29  30
ENDBRANCH   1  29
BRANCH  13  34
HETATM   34  O6  UNL     1      -2.944  -2.442  -0.050  1.00  0.00    -0.306 OA
BRANCH  34  35
HETATM   35  C23 UNL     1      -3.382  -3.263  -1.052  1.00  0.00     0.329 C 
HETATM   36  O7  UNL     1      -3.250  -2.865  -2.213  1.00  0.00    -0.256 OA
BRANCH  35  37
HETATM   37  C24 UNL     1      -3.988  -4.563  -0.851  1.00  0.00     0.220 C 
HETATM   38  C25 UNL     1      -4.453  -5.435  -1.951  1.00  0.00     0.103 C 
HETATM   39  O8  UNL     1      -4.127  -4.973   0.324  1.00  0.00    -0.287 OA
ENDBRANCH  35  37
ENDBRANCH  34  35
ENDBRANCH  13  34
TORSDOF 10
