REMARK  10 active torsions:
REMARK  status: ('A' for Active; 'I' for Inactive)
REMARK    1  A    between atoms: N1_2  and  C2_5 
REMARK    2  A    between atoms: C2_5  and  C3_6 
REMARK    3  A    between atoms: C3_6  and  O1_7 
REMARK    4  A    between atoms: O1_7  and  C4_8 
REMARK    5  A    between atoms: C4_8  and  C5_9 
REMARK    6  A    between atoms: C5_9  and  N2_10 
REMARK    7  A    between atoms: N2_10  and  C6_13 
REMARK    8  A    between atoms: C6_13  and  C7_14 
REMARK    9  A    between atoms: C7_14  and  C8_15 
REMARK   10  A    between atoms: C8_15  and  C9_16 
ROOT
HETATM    1  N2  UNL     1       0.917   1.073  -1.314  1.00  0.00    -0.073 N 
ATOM      2  H21 UNL     1       1.595   0.429  -1.721  1.00  0.00     0.277 HD
ATOM      3  H22 UNL     1       1.042   1.868  -1.940  1.00  0.00     0.277 HD
ENDROOT
BRANCH   1   4
HETATM    4  C5  UNL     1       1.286   1.419   0.027  1.00  0.00     0.258 C 
BRANCH   4   5
HETATM    5  C4  UNL     1       2.693   1.971   0.051  1.00  0.00     0.195 C 
BRANCH   5   6
HETATM    6  O1  UNL     1       3.627   1.085  -0.417  1.00  0.00    -0.388 OA
BRANCH   6   7
HETATM    7  C3  UNL     1       3.743  -0.077   0.291  1.00  0.00     0.195 C 
BRANCH   7   8
HETATM    8  C2  UNL     1       4.823  -0.964  -0.335  1.00  0.00     0.258 C 
BRANCH   8   9
HETATM    9  N1  UNL     1       6.069  -0.240  -0.305  1.00  0.00    -0.077 N 
HETATM   10  C1  UNL     1       6.510  -0.098   1.055  1.00  0.00     0.267 C 
ATOM     11  H12 UNL     1       6.004   0.658  -0.784  1.00  0.00     0.276 HD
ATOM     12  H11 UNL     1       6.779  -0.671  -0.897  1.00  0.00     0.276 HD
ENDBRANCH   8   9
ENDBRANCH   7   8
ENDBRANCH   6   7
ENDBRANCH   5   6
ENDBRANCH   4   5
ENDBRANCH   1   4
BRANCH   1  13
HETATM   13  C6  UNL     1      -0.438   0.535  -1.422  1.00  0.00     0.232 C 
BRANCH  13  14
HETATM   14  C7  UNL     1      -0.556  -0.808  -0.780  1.00  0.00     0.028 C 
BRANCH  14  15
HETATM   15  C8  UNL     1      -1.857  -1.491  -0.849  1.00  0.00     0.006 C 
BRANCH  15  16
HETATM   16  C9  UNL     1      -3.056  -0.907  -0.249  1.00  0.00    -0.014 C 
HETATM   17  C10 UNL     1      -3.016  -0.635   1.238  1.00  0.00     0.004 C 
HETATM   18  C11 UNL     1      -4.389  -0.406   1.753  1.00  0.00     0.000 C 
HETATM   19  C12 UNL     1      -5.440   0.042   0.841  1.00  0.00     0.000 C 
HETATM   20  C13 UNL     1      -5.132   0.216  -0.607  1.00  0.00     0.000 C 
HETATM   21  C14 UNL     1      -3.635   0.333  -0.871  1.00  0.00     0.004 C 
ENDBRANCH  15  16
ENDBRANCH  14  15
ENDBRANCH  13  14
ENDBRANCH   1  13
TORSDOF 10
