REMARK  7 active torsions:
REMARK  status: ('A' for Active; 'I' for Inactive)
REMARK    1  A    between atoms: C2_2  and  C3_3 
REMARK    2  A    between atoms: C3_3  and  C4_4 
REMARK    3  A    between atoms: C3_3  and  C9_18 
REMARK    4  A    between atoms: C4_4  and  C5_5 
REMARK    5  A    between atoms: C5_5  and  C6_6 
REMARK    6  A    between atoms: N3_14  and  O1_16 
REMARK    7  A    between atoms: C9_18  and  N4_21 
ROOT
HETATM    1  C4  UNL     1       0.295   0.384  -0.382  1.00  0.00     0.020 C 
HETATM    2  N3  UNL     1       0.875   1.513  -0.041  1.00  0.00    -0.275 N 
ATOM      3  H3  UNL     1       1.889   1.610   0.012  1.00  0.00     0.193 HD
ENDROOT
BRANCH   1   4
HETATM    4  C3  UNL     1      -1.163   0.246  -0.456  1.00  0.00     0.068 C 
BRANCH   4   5
HETATM    5  C2  UNL     1      -1.737  -0.125  -1.769  1.00  0.00     0.008 C 
HETATM    6  C1  UNL     1      -1.360  -1.386  -2.407  1.00  0.00     0.006 C 
ENDBRANCH   4   5
BRANCH   4   7
HETATM    7  C9  UNL     1      -1.737  -0.534   0.710  1.00  0.00     0.125 C 
HETATM    8  C10 UNL     1      -1.032  -0.016   1.975  1.00  0.00     0.046 C 
HETATM    9  C11 UNL     1      -3.180  -0.164   0.874  1.00  0.00     0.046 C 
BRANCH   7  10
HETATM   10  N4  UNL     1      -1.489  -1.937   0.673  1.00  0.00    -0.070 N 
ATOM     11  H43 UNL     1      -1.816  -2.330  -0.210  1.00  0.00     0.275 HD
ATOM     12  H42 UNL     1      -0.489  -2.116   0.587  1.00  0.00     0.275 HD
ATOM     13  H41 UNL     1      -1.875  -2.462   1.458  1.00  0.00     0.275 HD
ENDBRANCH   7  10
ENDBRANCH   4   7
ENDBRANCH   1   4
BRANCH   1  14
HETATM   14  C5  UNL     1       1.245  -0.727  -0.682  1.00  0.00     0.117 C 
BRANCH  14  15
HETATM   15  C6  UNL     1       2.682  -0.306  -0.488  1.00  0.00     0.391 C 
HETATM   16  N1  UNL     1       3.067   0.133   0.816  1.00  0.00    -0.022 N 
HETATM   17  C7  UNL     1       4.229  -0.736   0.769  1.00  0.00     0.468 C 
ATOM     18  H12 UNL     1       3.183   1.129   1.004  1.00  0.00     0.281 HD
ATOM     19  H11 UNL     1       2.409   0.062   1.592  1.00  0.00     0.281 HD
HETATM   20  N2  UNL     1       3.578  -1.435  -0.332  1.00  0.00    -0.022 N 
ATOM     21  H22 UNL     1       3.205  -2.375  -0.198  1.00  0.00     0.281 HD
ATOM     22  H21 UNL     1       4.125  -1.773  -1.124  1.00  0.00     0.281 HD
ENDBRANCH  14  15
ENDBRANCH   1  14
BRANCH   2  23
HETATM   23  O1  UNL     1       0.025   2.551   0.239  1.00  0.00    -0.285 OA
HETATM   24  C8  UNL     1       0.356   3.900   0.141  1.00  0.00     0.237 C 
ENDBRANCH   2  23
TORSDOF 7
