REMARK  1 active torsions:
REMARK  status: ('A' for Active; 'I' for Inactive)
REMARK    1  A    between atoms: C1_4  and  C2_6 
ROOT
HETATM    1  N1  UNL     1       1.917   1.248   0.710  1.00  0.00    -0.389 N 
ATOM      2  H11 UNL     1       1.369   2.044   1.037  1.00  0.00     0.157 HD
ATOM      3  H12 UNL     1       2.935   1.201   0.665  1.00  0.00     0.157 HD
HETATM    4  C1  UNL     1       1.259   0.209   0.320  1.00  0.00     0.116 C 
HETATM    5  N2  UNL     1       2.010  -0.881  -0.128  1.00  0.00    -0.085 NA
ENDROOT
BRANCH   4   6
HETATM    6  C2  UNL     1      -0.206   0.277   0.385  1.00  0.00     0.187 C 
HETATM    7  C3  UNL     1      -0.928   0.109  -0.944  1.00  0.00     0.065 C 
HETATM    8  C4  UNL     1      -1.956  -0.387   0.077  1.00  0.00     0.171 C 
HETATM    9  O1  UNL     1      -0.851  -0.910   0.765  1.00  0.00    -0.379 OA
ENDBRANCH   4   6
TORSDOF 1
