REMARK  8 active torsions:
REMARK  status: ('A' for Active; 'I' for Inactive)
REMARK    1  A    between atoms: N1_2  and  C2_4 
REMARK    2  A    between atoms: C2_4  and  C3_5 
REMARK    3  A    between atoms: C2_4  and  C6_18 
REMARK    4  A    between atoms: C3_5  and  O1_6 
REMARK    5  A    between atoms: C3_5  and  C4_8 
REMARK    6  A    between atoms: C4_8  and  N2_9 
REMARK    7  A    between atoms: C4_8  and  C5_13 
REMARK    8  A    between atoms: C5_13  and  N3_14 
ROOT
HETATM    1  C3  UNL     1      -0.841  -0.988   0.671  1.00  0.00     0.195 C 
ENDROOT
BRANCH   1   2
HETATM    2  C2  UNL     1       0.205   0.059   0.748  1.00  0.00     0.017 C 
BRANCH   2   3
HETATM    3  N1  UNL     1      -0.171   1.207   1.483  1.00  0.00    -0.398 N 
HETATM    4  C1  UNL     1       0.772   2.246   1.593  1.00  0.00     0.145 C 
ATOM      5  H1  UNL     1      -1.091   1.279   1.917  1.00  0.00     0.158 HD
ENDBRANCH   2   3
BRANCH   2   6
HETATM    6  C6  UNL     1       1.058   0.175  -0.436  1.00  0.00     0.038 A 
HETATM    7  C7  UNL     1       1.390  -1.129  -1.166  1.00  0.00     0.016 A 
HETATM    8  C8  UNL     1       2.464  -0.345  -0.463  1.00  0.00    -0.008 A 
HETATM    9  C9  UNL     1       3.424   0.372  -1.381  1.00  0.00     0.011 C 
ENDBRANCH   2   6
ENDBRANCH   1   2
BRANCH   1  10
HETATM   10  O1  UNL     1      -1.047  -1.488   2.044  1.00  0.00    -0.388 OA
ATOM     11  H1  UNL     1      -1.718  -2.159   1.995  1.00  0.00     0.210 HD
ENDBRANCH   1  10
BRANCH   1  12
HETATM   12  C4  UNL     1      -2.201  -0.685   0.207  1.00  0.00     0.242 C 
BRANCH  12  13
HETATM   13  N2  UNL     1      -2.978  -1.951   0.222  1.00  0.00    -0.071 N 
ATOM     14  H23 UNL     1      -2.533  -2.695  -0.315  1.00  0.00     0.274 HD
ATOM     15  H22 UNL     1      -2.964  -2.414   1.131  1.00  0.00     0.274 HD
ATOM     16  H21 UNL     1      -3.923  -1.741  -0.100  1.00  0.00     0.274 HD
ENDBRANCH  12  13
BRANCH  12  17
HETATM   17  C5  UNL     1      -2.416   0.006  -1.082  1.00  0.00     0.265 C 
BRANCH  17  18
HETATM   18  N3  UNL     1      -1.871   1.317  -1.143  1.00  0.00    -0.077 N 
ATOM     19  H33 UNL     1      -2.223   1.885  -0.372  1.00  0.00     0.274 HD
ATOM     20  H32 UNL     1      -0.878   1.301  -0.909  1.00  0.00     0.274 HD
ATOM     21  H31 UNL     1      -2.019   1.794  -2.032  1.00  0.00     0.274 HD
ENDBRANCH  17  18
ENDBRANCH  12  17
ENDBRANCH   1  12
TORSDOF 8
