REMARK  6 active torsions:
REMARK  status: ('A' for Active; 'I' for Inactive)
REMARK    1  A    between atoms: C5_10  and  N3_11 
REMARK    2  A    between atoms: N3_11  and  C6_13 
REMARK    3  A    between atoms: C6_13  and  C7_14 
REMARK    4  A    between atoms: C7_14  and  C8_15 
REMARK    5  A    between atoms: C8_15  and  O1_16 
REMARK    6  A    between atoms: O1_16  and  N4_17 
ROOT
HETATM    1  C1  UNL     1      -3.729  -0.508  -0.474  1.00  0.00     0.014 C 
HETATM    2  C2  UNL     1      -2.566  -0.405   0.521  1.00  0.00     0.029 C 
HETATM    3  C3  UNL     1      -2.353   1.030   0.906  1.00  0.00     0.127 C 
HETATM    4  N1  UNL     1      -1.871   1.544  -0.346  1.00  0.00    -0.378 N 
ATOM      5  H1  UNL     1      -1.905   2.528  -0.613  1.00  0.00     0.160 HD
HETATM    6  C4  UNL     1      -1.345   0.520  -1.160  1.00  0.00     0.093 C 
HETATM    7  N2  UNL     1      -0.925   0.558  -2.364  1.00  0.00    -0.387 N 
ATOM      8  H21 UNL     1      -0.544  -0.183  -2.953  1.00  0.00     0.157 HD
ATOM      9  H22 UNL     1      -0.917   1.395  -2.947  1.00  0.00     0.157 HD
HETATM   10  C5  UNL     1      -1.357  -0.746  -0.279  1.00  0.00     0.149 C 
ENDROOT
BRANCH  10  11
HETATM   11  N3  UNL     1      -0.123  -0.908   0.303  1.00  0.00    -0.410 N 
ATOM     12  H3  UNL     1       0.184  -1.838   0.588  1.00  0.00     0.154 HD
BRANCH  11  13
HETATM   13  C6  UNL     1       0.767   0.260   0.521  1.00  0.00     0.116 C 
BRANCH  13  14
HETATM   14  C7  UNL     1       2.133  -0.398   0.608  1.00  0.00     0.048 C 
BRANCH  14  15
HETATM   15  C8  UNL     1       3.255   0.589   0.732  1.00  0.00     0.202 C 
BRANCH  15  16
HETATM   16  O1  UNL     1       4.323  -0.341   0.991  1.00  0.00    -0.287 OA
BRANCH  16  17
HETATM   17  N4  UNL     1       5.102  -0.310  -0.152  1.00  0.00    -0.311 N 
ATOM     18  H42 UNL     1       4.942   0.253  -0.987  1.00  0.00     0.184 HD
ATOM     19  H41 UNL     1       5.859  -0.969   0.032  1.00  0.00     0.184 HD
ENDBRANCH  16  17
ENDBRANCH  15  16
ENDBRANCH  14  15
ENDBRANCH  13  14
ENDBRANCH  11  13
ENDBRANCH  10  11
TORSDOF 6
