REMARK  5 active torsions:
REMARK  status: ('A' for Active; 'I' for Inactive)
REMARK    1  A    between atoms: C5_6  and  O2_7 
REMARK    2  A    between atoms: C8_13  and  N2_14 
REMARK    3  A    between atoms: C9_17  and  O3_18 
REMARK    4  A    between atoms: C12_23  and  C13_24 
REMARK    5  A    between atoms: N3_25  and  O4_27 
ROOT
HETATM    1  C1  UNL     1       3.708   1.891   0.065  1.00  0.00     0.036 C 
HETATM    2  C2  UNL     1       2.253   1.894   0.161  1.00  0.00    -0.020 C 
HETATM    3  C3  UNL     1       1.370   0.980  -0.058  1.00  0.00    -0.017 C 
HETATM    4  C4  UNL     1      -0.083   1.278   0.129  1.00  0.00     0.112 A 
HETATM    5  O1  UNL     1      -0.772   2.318  -0.244  1.00  0.00    -0.285 OA
HETATM    6  C5  UNL     1      -2.059   2.180   0.072  1.00  0.00     0.197 A 
HETATM    7  C6  UNL     1      -2.141   0.949   0.684  1.00  0.00     0.081 A 
HETATM    8  C7  UNL     1      -0.946   0.371   0.759  1.00  0.00     0.081 A 
HETATM    9  N1  UNL     1      -1.541  -0.728   1.490  1.00  0.00    -0.354 N 
ATOM     10  H1  UNL     1      -1.174  -1.515   2.026  1.00  0.00     0.162 HD
HETATM   11  C8  UNL     1      -2.852  -0.262   1.156  1.00  0.00     0.170 C 
HETATM   12  C9  UNL     1      -3.261  -1.065  -0.151  1.00  0.00     0.233 C 
HETATM   13  S1  UNL     1      -2.037  -0.874  -1.426  1.00  0.00    -0.133 SA
HETATM   14  C10 UNL     1      -0.475  -1.759  -1.254  1.00  0.00     0.077 C 
HETATM   15  C11 UNL     1       0.655  -0.849  -1.620  1.00  0.00     0.025 C 
HETATM   16  C12 UNL     1       1.632  -0.431  -0.542  1.00  0.00     0.062 C 
ENDROOT
BRANCH  16  17
HETATM   17  C13 UNL     1       2.995  -0.733  -0.891  1.00  0.00     0.096 C 
HETATM   18  N3  UNL     1       3.687  -1.693  -0.315  1.00  0.00    -0.284 N 
ATOM     19  H3  UNL     1       3.229  -2.244   0.411  1.00  0.00     0.192 HD
BRANCH  18  20
HETATM   20  O4  UNL     1       4.969  -1.994  -0.626  1.00  0.00    -0.291 OA
ATOM     21  H4  UNL     1       5.468  -2.687  -0.210  1.00  0.00     0.244 HD
ENDBRANCH  18  20
ENDBRANCH  16  17
BRANCH   6  22
HETATM   22  O2  UNL     1      -3.061   3.112  -0.186  1.00  0.00    -0.340 OA
ATOM     23  H2  UNL     1      -3.979   3.014   0.039  1.00  0.00     0.220 HD
ENDBRANCH   6  22
BRANCH  12  24
HETATM   24  O3  UNL     1      -3.400  -2.372   0.222  1.00  0.00    -0.380 OA
ATOM     25  H3  UNL     1      -3.645  -2.853  -0.560  1.00  0.00     0.211 HD
ENDBRANCH  12  24
BRANCH  11  26
HETATM   26  N2  UNL     1      -3.879  -0.212   2.068  1.00  0.00    -0.399 N 
ATOM     27  H22 UNL     1      -4.150   0.704   2.425  1.00  0.00     0.152 HD
ATOM     28  H21 UNL     1      -4.369  -1.046   2.393  1.00  0.00     0.152 HD
ENDBRANCH  11  26
TORSDOF 5
