REMARK  13 active torsions:
REMARK  status: ('A' for Active; 'I' for Inactive)
REMARK    1  A    between atoms: C2_2  and  C4_4 
REMARK    2  A    between atoms: C4_4  and  O2_6 
REMARK    3  A    between atoms: O2_6  and  C5_7 
REMARK    4  A    between atoms: C5_7  and  C6_8 
REMARK    5  A    between atoms: C5_7  and  C18_26 
REMARK    6  A    between atoms: C6_8  and  C8_11 
REMARK       I    between atoms: C8_11  and  N2_13 
REMARK    7  A    between atoms: C12_17  and  C13_18 
REMARK       I    between atoms: C13_18  and  N3_20 
REMARK    8  A    between atoms: N3_20  and  C14_22 
REMARK    9  A    between atoms: C18_26  and  N4_27 
REMARK   10  A    between atoms: C18_26  and  C24_39 
REMARK       I    between atoms: N4_27  and  C19_29 
REMARK   11  A    between atoms: C19_29  and  C20_31 
REMARK   12  A    between atoms: C20_31  and  C21_32 
REMARK   13  A    between atoms: C21_32  and  N5_35 
ROOT
HETATM    1  C6  UNL     1       0.431   0.478  -1.328  1.00  0.00     0.216 C 
HETATM    2  C7  UNL     1       0.269   0.075  -2.738  1.00  0.00     0.076 C 
HETATM    3  N1  UNL     1       0.171  -0.229  -3.865  1.00  0.00    -0.196 NA
ENDROOT
BRANCH   1   4
HETATM    4  C5  UNL     1      -0.797   1.074  -0.779  1.00  0.00     0.181 C 
BRANCH   4   5
HETATM    5  O2  UNL     1      -1.296   2.197  -1.434  1.00  0.00    -0.312 OA
BRANCH   5   6
HETATM    6  C4  UNL     1      -1.561   3.418  -0.879  1.00  0.00     0.262 C 
HETATM    7  O1  UNL     1      -1.350   3.565   0.375  1.00  0.00    -0.265 OA
BRANCH   6   8
HETATM    8  C2  UNL     1      -2.080   4.575  -1.665  1.00  0.00     0.077 C 
HETATM    9  C1  UNL     1      -1.088   4.943  -2.772  1.00  0.00     0.020 C 
HETATM   10  C3  UNL     1      -2.261   5.741  -0.726  1.00  0.00     0.020 C 
ENDBRANCH   6   8
ENDBRANCH   5   6
ENDBRANCH   4   5
BRANCH   4  11
HETATM   11  C18 UNL     1      -1.922   0.123  -0.457  1.00  0.00     0.119 C 
BRANCH  11  12
HETATM   12  N4  UNL     1      -1.391  -1.037   0.284  1.00  0.00    -0.353 N 
HETATM   13  C19 UNL     1      -1.660  -1.221   1.670  1.00  0.00     0.220 C 
HETATM   14  O5  UNL     1      -2.373  -0.348   2.235  1.00  0.00    -0.274 OA
ATOM     15  H4  UNL     1      -0.818  -1.723  -0.208  1.00  0.00     0.163 HD
BRANCH  13  16
HETATM   16  C20 UNL     1      -1.131  -2.383   2.423  1.00  0.00     0.140 C 
BRANCH  16  17
HETATM   17  C21 UNL     1      -1.577  -2.249   3.863  1.00  0.00     0.124 C 
HETATM   18  C22 UNL     1      -1.098  -3.375   4.733  1.00  0.00     0.046 C 
HETATM   19  C23 UNL     1      -3.070  -2.158   3.937  1.00  0.00     0.046 C 
BRANCH  17  20
HETATM   20  N5  UNL     1      -0.957  -1.028   4.368  1.00  0.00    -0.071 N 
ATOM     21  H53 UNL     1       0.056  -1.010   4.253  1.00  0.00     0.275 HD
ATOM     22  H52 UNL     1      -1.161  -0.205   3.801  1.00  0.00     0.275 HD
ATOM     23  H51 UNL     1      -1.258  -0.938   5.339  1.00  0.00     0.275 HD
ENDBRANCH  17  20
ENDBRANCH  16  17
ENDBRANCH  13  16
ENDBRANCH  11  12
BRANCH  11  24
HETATM   24  C24 UNL     1      -2.752  -0.329  -1.597  1.00  0.00     0.011 C 
HETATM   25  C25 UNL     1      -3.463   0.729  -2.386  1.00  0.00     0.007 C 
HETATM   26  C26 UNL     1      -4.472   0.131  -3.313  1.00  0.00     0.000 C 
HETATM   27  C27 UNL     1      -4.411  -1.366  -3.450  1.00  0.00     0.000 C 
HETATM   28  C28 UNL     1      -4.441  -2.069  -2.112  1.00  0.00     0.000 C 
HETATM   29  C29 UNL     1      -3.899  -1.197  -1.013  1.00  0.00     0.007 C 
ENDBRANCH  11  24
ENDBRANCH   4  11
ENDBRANCH   1   4
BRANCH   1  30
HETATM   30  C8  UNL     1       1.579   1.394  -1.265  1.00  0.00     0.241 C 
HETATM   31  O3  UNL     1       1.420   2.616  -1.043  1.00  0.00    -0.272 OA
HETATM   32  N2  UNL     1       2.937   0.981  -1.451  1.00  0.00    -0.337 N 
HETATM   33  C9  UNL     1       4.109   1.851  -1.425  1.00  0.00     0.127 C 
HETATM   34  C12 UNL     1       3.356  -0.367  -1.684  1.00  0.00     0.179 C 
HETATM   35  C10 UNL     1       5.131   1.108  -2.216  1.00  0.00     0.022 C 
HETATM   36  C11 UNL     1       4.529  -0.215  -2.637  1.00  0.00     0.037 C 
BRANCH  34  37
HETATM   37  C13 UNL     1       3.754  -1.100  -0.455  1.00  0.00     0.241 C 
HETATM   38  O4  UNL     1       4.173  -2.301  -0.590  1.00  0.00    -0.271 OA
HETATM   39  N3  UNL     1       3.701  -0.560   0.839  1.00  0.00    -0.351 N 
ATOM     40  H3  UNL     1       3.367   0.396   0.965  1.00  0.00     0.163 HD
BRANCH  39  41
HETATM   41  C14 UNL     1       4.109  -1.325   2.005  1.00  0.00     0.022 C 
HETATM   42  C15 UNL     1       3.951  -0.553   3.284  1.00  0.00     0.037 C 
HETATM   43  C16 UNL     1       3.348  -2.628   2.121  1.00  0.00     0.037 C 
HETATM   44  C17 UNL     1       5.594  -1.694   1.903  1.00  0.00     0.037 C 
ENDBRANCH  39  41
ENDBRANCH  34  37
ENDBRANCH   1  30
TORSDOF 13
