REMARK  21 active torsions:
REMARK  status: ('A' for Active; 'I' for Inactive)
REMARK    1  A    between atoms: C2_2  and  C4_4 
REMARK    2  A    between atoms: C4_4  and  C5_5 
REMARK    3  A    between atoms: C5_5  and  N1_6 
REMARK    4  A    between atoms: C5_5  and  C15_22 
REMARK    5  A    between atoms: N1_6  and  C6_8 
REMARK    6  A    between atoms: C6_8  and  O1_9 
REMARK    7  A    between atoms: C6_8  and  C7_11 
REMARK    8  A    between atoms: C7_11  and  C8_12 
REMARK    9  A    between atoms: C7_11  and  C10_15 
REMARK   10  A    between atoms: C10_15  and  O3_17 
REMARK   11  A    between atoms: O3_17  and  C11_18 
REMARK   12  A    between atoms: C15_22  and  O4_23 
REMARK   13  A    between atoms: C15_22  and  N3_25 
REMARK   14  A    between atoms: C19_29  and  C20_30 
REMARK       I    between atoms: C20_30  and  N4_32 
REMARK   15  A    between atoms: N4_32  and  C21_34 
REMARK   16  A    between atoms: C21_34  and  C22_35 
REMARK   17  A    between atoms: C21_34  and  C29_42 
REMARK   18  A    between atoms: C22_35  and  C23_36 
REMARK   19  A    between atoms: C29_42  and  O6_43 
REMARK   20  A    between atoms: C29_42  and  C30_45 
REMARK       I    between atoms: C30_45  and  N5_47 
REMARK   21  A    between atoms: N5_47  and  C31_49 
ROOT
HETATM    1  C8  UNL     1       6.136   1.665   0.368  1.00  0.00     0.147 C 
HETATM    2  C9  UNL     1       6.541   2.078  -0.962  1.00  0.00     0.060 C 
HETATM    3  N2  UNL     1       6.897   2.429  -2.023  1.00  0.00    -0.197 NA
ENDROOT
BRANCH   1   4
HETATM    4  C7  UNL     1       5.984   0.199   0.575  1.00  0.00     0.173 C 
BRANCH   4   5
HETATM    5  C6  UNL     1       4.981  -0.519  -0.192  1.00  0.00     0.131 C 
BRANCH   5   6
HETATM    6  N1  UNL     1       4.440  -0.267  -1.452  1.00  0.00    -0.337 N 
ATOM      7  H1  UNL     1       4.752   0.551  -1.975  1.00  0.00     0.168 HD
BRANCH   6   8
HETATM    8  C5  UNL     1       3.397  -1.184  -2.062  1.00  0.00     0.081 C 
BRANCH   8   9
HETATM    9  C4  UNL     1       3.980  -1.829  -3.205  1.00  0.00     0.011 C 
BRANCH   9  10
HETATM   10  C2  UNL     1       3.317  -2.881  -3.990  1.00  0.00     0.002 C 
HETATM   11  C1  UNL     1       2.956  -4.107  -3.156  1.00  0.00     0.013 C 
HETATM   12  C3  UNL     1       4.432  -3.434  -4.944  1.00  0.00     0.013 C 
ENDBRANCH   9  10
ENDBRANCH   8   9
BRANCH   8  13
HETATM   13  C15 UNL     1       2.123  -0.551  -1.884  1.00  0.00     0.166 C 
BRANCH  13  14
HETATM   14  O4  UNL     1       1.993  -0.216  -0.583  1.00  0.00    -0.344 OA
ATOM     15  H4  UNL     1       1.149   0.203  -0.465  1.00  0.00     0.219 HD
ENDBRANCH  13  14
BRANCH  13  16
HETATM   16  N3  UNL     1       1.018  -0.187  -2.624  1.00  0.00    -0.347 N 
HETATM   17  C16 UNL     1       0.962  -0.224  -4.103  1.00  0.00     0.126 C 
HETATM   18  C17 UNL     1      -0.184  -1.201  -4.248  1.00  0.00     0.022 C 
HETATM   19  C18 UNL     1      -1.087  -0.913  -3.038  1.00  0.00     0.037 C 
HETATM   20  C19 UNL     1      -0.311   0.240  -2.378  1.00  0.00     0.178 C 
BRANCH  20  21
HETATM   21  C20 UNL     1      -0.843   0.626  -1.115  1.00  0.00     0.241 C 
HETATM   22  O5  UNL     1      -0.365   0.692   0.025  1.00  0.00    -0.271 OA
HETATM   23  N4  UNL     1      -2.255   1.042  -1.115  1.00  0.00    -0.352 N 
ATOM     24  H4  UNL     1      -2.772   1.033  -1.994  1.00  0.00     0.163 HD
BRANCH  23  25
HETATM   25  C21 UNL     1      -2.928   1.460   0.081  1.00  0.00     0.122 C 
BRANCH  25  26
HETATM   26  C22 UNL     1      -4.245   0.775   0.290  1.00  0.00     0.033 C 
BRANCH  26  27
HETATM   27  C23 UNL     1      -4.188  -0.705   0.404  1.00  0.00    -0.013 C 
HETATM   28  C24 UNL     1      -3.368  -1.243   1.531  1.00  0.00     0.005 C 
HETATM   29  C25 UNL     1      -3.375  -2.763   1.385  1.00  0.00     0.000 C 
HETATM   30  C26 UNL     1      -4.772  -3.315   1.530  1.00  0.00     0.000 C 
HETATM   31  C27 UNL     1      -5.608  -2.759   0.401  1.00  0.00     0.000 C 
HETATM   32  C28 UNL     1      -5.602  -1.259   0.503  1.00  0.00     0.005 C 
ENDBRANCH  26  27
ENDBRANCH  25  26
BRANCH  25  33
HETATM   33  C29 UNL     1      -3.243   2.971   0.015  1.00  0.00     0.232 C 
BRANCH  33  34
HETATM   34  O6  UNL     1      -4.055   3.259  -1.052  1.00  0.00    -0.384 OA
ATOM     35  H6  UNL     1      -4.249   4.188  -1.093  1.00  0.00     0.210 HD
ENDBRANCH  33  34
BRANCH  33  36
HETATM   36  C30 UNL     1      -3.903   3.420   1.256  1.00  0.00     0.248 C 
HETATM   37  O7  UNL     1      -3.306   3.265   2.332  1.00  0.00    -0.271 OA
HETATM   38  N5  UNL     1      -5.197   4.027   1.294  1.00  0.00    -0.354 N 
ATOM     39  H5  UNL     1      -5.699   4.161   0.416  1.00  0.00     0.162 HD
BRANCH  38  40
HETATM   40  C31 UNL     1      -5.818   4.455   2.510  1.00  0.00     0.084 A 
HETATM   41  C32 UNL     1      -7.291   4.142   2.673  1.00  0.00     0.027 A 
HETATM   42  C33 UNL     1      -6.814   5.534   2.593  1.00  0.00     0.027 A 
ENDBRANCH  38  40
ENDBRANCH  33  36
ENDBRANCH  25  33
ENDBRANCH  23  25
ENDBRANCH  20  21
ENDBRANCH  13  16
ENDBRANCH   8  13
ENDBRANCH   6   8
ENDBRANCH   5   6
BRANCH   5  43
HETATM   43  O1  UNL     1       4.504  -1.593   0.402  1.00  0.00    -0.349 OA
ATOM     44  H1  UNL     1       4.873  -1.765   1.261  1.00  0.00     0.219 HD
ENDBRANCH   5  43
ENDBRANCH   4   5
BRANCH   4  45
HETATM   45  C10 UNL     1       5.637   0.029   2.033  1.00  0.00     0.272 C 
HETATM   46  O2  UNL     1       6.440  -0.526   2.802  1.00  0.00    -0.264 OA
BRANCH  45  47
HETATM   47  O3  UNL     1       4.440   0.487   2.505  1.00  0.00    -0.311 OA
BRANCH  47  48
HETATM   48  C11 UNL     1       4.006   0.386   3.845  1.00  0.00     0.060 C 
HETATM   49  C12 UNL     1       2.634   1.023   3.926  1.00  0.00     0.045 C 
HETATM   50  C13 UNL     1       3.907  -1.031   4.317  1.00  0.00     0.045 C 
HETATM   51  C14 UNL     1       4.945   1.134   4.785  1.00  0.00     0.045 C 
ENDBRANCH  47  48
ENDBRANCH  45  47
ENDBRANCH   4  45
ENDBRANCH   1   4
TORSDOF 21
