REMARK  3 active torsions:
REMARK  status: ('A' for Active; 'I' for Inactive)
REMARK    1  A    between atoms: C2_2  and  C4_4 
REMARK    2  A    between atoms: C4_4  and  C5_5 
REMARK    3  A    between atoms: N1_9  and  C9_10 
ROOT
HETATM    1  C5  UNL     1      -0.814  -0.315  -0.292  1.00  0.00     0.080 C 
HETATM    2  C6  UNL     1      -1.210  -1.749  -0.677  1.00  0.00     0.026 C 
HETATM    3  C7  UNL     1      -0.120  -2.645  -0.134  1.00  0.00     0.021 C 
HETATM    4  C8  UNL     1       0.517  -1.736   0.933  1.00  0.00     0.118 C 
HETATM    5  N1  UNL     1       0.426  -0.480   0.314  1.00  0.00    -0.401 N 
ENDROOT
BRANCH   5   6
HETATM    6  C9  UNL     1       1.296   0.547   0.569  1.00  0.00     0.111 C 
HETATM    7  C10 UNL     1       1.830   1.291  -0.670  1.00  0.00     0.059 C 
HETATM    8  C11 UNL     1       3.176   1.737  -0.149  1.00  0.00     0.124 C 
HETATM    9  C12 UNL     1       4.184   0.659  -0.546  1.00  0.00     0.034 C 
HETATM   10  O1  UNL     1       3.164   1.495   1.245  1.00  0.00    -0.379 OA
HETATM   11  C13 UNL     1       3.575  -0.493   0.268  1.00  0.00     0.036 C 
HETATM   12  C14 UNL     1       2.614   0.186   1.204  1.00  0.00     0.144 C 
ENDBRANCH   5   6
BRANCH   1  13
HETATM   13  C4  UNL     1      -1.920   0.254   0.512  1.00  0.00     0.028 C 
BRANCH  13  14
HETATM   14  C2  UNL     1      -3.216   0.290  -0.265  1.00  0.00    -0.021 C 
HETATM   15  C1  UNL     1      -3.058   1.151  -1.522  1.00  0.00     0.009 C 
HETATM   16  C3  UNL     1      -4.290   0.908   0.613  1.00  0.00     0.009 C 
ENDBRANCH  13  14
ENDBRANCH   1  13
TORSDOF 3
