REMARK  9 active torsions:
REMARK  status: ('A' for Active; 'I' for Inactive)
REMARK    1  A    between atoms: C1_2  and  O2_3 
REMARK    2  A    between atoms: C1_2  and  C6_14 
REMARK    3  A    between atoms: O2_3  and  C2_4 
REMARK    4  A    between atoms: C2_4  and  C3_5 
REMARK    5  A    between atoms: C6_14  and  C7_15 
REMARK    6  A    between atoms: C7_15  and  C8_16 
REMARK    7  A    between atoms: C12_20  and  N3_21 
REMARK    8  A    between atoms: N4_25  and  N5_27 
REMARK    9  A    between atoms: N5_27  and  C14_29 
ROOT
HETATM    1  C6  UNL     1      -0.798  -0.927   0.114  1.00  0.00     0.105 C 
HETATM    2  N4  UNL     1      -0.443  -1.734   1.057  1.00  0.00    -0.284 N 
ATOM      3  H4  UNL     1       0.557  -1.865   1.206  1.00  0.00     0.187 HD
ENDROOT
BRANCH   1   4
HETATM    4  C1  UNL     1       0.263  -0.284  -0.644  1.00  0.00     0.307 C 
HETATM    5  O1  UNL     1       0.056   0.523  -1.590  1.00  0.00    -0.258 OA
BRANCH   4   6
HETATM    6  O2  UNL     1       1.613  -0.523  -0.369  1.00  0.00    -0.313 OA
BRANCH   6   7
HETATM    7  C2  UNL     1       2.623   0.116  -1.124  1.00  0.00     0.241 C 
BRANCH   7   8
HETATM    8  C3  UNL     1       3.998  -0.294  -0.648  1.00  0.00     0.406 C 
HETATM    9  N1  UNL     1       4.124   0.081   0.731  1.00  0.00    -0.042 N 
HETATM   10  C4  UNL     1       5.240   1.006   0.812  1.00  0.00     0.262 C 
ATOM     11  H12 UNL     1       3.262   0.455   1.127  1.00  0.00     0.279 HD
ATOM     12  H11 UNL     1       4.217  -0.718   1.358  1.00  0.00     0.279 HD
HETATM   13  C5  UNL     1       5.245   1.602  -0.592  1.00  0.00     0.262 C 
HETATM   14  N2  UNL     1       4.984   0.449  -1.401  1.00  0.00    -0.042 N 
ATOM     15  H22 UNL     1       5.816  -0.088  -1.646  1.00  0.00     0.279 HD
ATOM     16  H21 UNL     1       4.705   0.664  -2.358  1.00  0.00     0.279 HD
ENDBRANCH   7   8
ENDBRANCH   6   7
ENDBRANCH   4   6
ENDBRANCH   1   4
BRANCH   1  17
HETATM   17  C7  UNL     1      -2.213  -0.695  -0.148  1.00  0.00     0.103 C 
BRANCH  17  18
HETATM   18  C8  UNL     1      -2.666   0.705   0.005  1.00  0.00    -0.050 A 
HETATM   19  C9  UNL     1      -2.943   1.184   1.264  1.00  0.00     0.007 A 
HETATM   20  C10 UNL     1      -3.379   2.473   1.487  1.00  0.00     0.003 A 
HETATM   21  C11 UNL     1      -3.556   3.345   0.436  1.00  0.00     0.036 A 
HETATM   22  C12 UNL     1      -3.285   2.888  -0.836  1.00  0.00     0.103 A 
HETATM   23  C13 UNL     1      -2.844   1.577  -1.039  1.00  0.00     0.043 A 
BRANCH  22  24
HETATM   24  N3  UNL     1      -3.458   3.766  -1.946  1.00  0.00    -0.116 N 
HETATM   25  O3  UNL     1      -3.216   3.370  -3.126  1.00  0.00    -0.532 OA
HETATM   26  O4  UNL     1      -3.890   5.042  -1.713  1.00  0.00    -0.532 OA
ENDBRANCH  22  24
ENDBRANCH  17  18
ENDBRANCH   1  17
BRANCH   2  27
HETATM   27  N5  UNL     1      -1.297  -2.431   1.877  1.00  0.00    -0.130 N 
ATOM     28  H5  UNL     1      -1.656  -1.993   2.725  1.00  0.00     0.205 HD
BRANCH  27  29
HETATM   29  C14 UNL     1      -1.645  -3.628   1.583  1.00  0.00     0.722 A 
HETATM   30  N6  UNL     1      -1.237  -4.301   0.498  1.00  0.00    -0.115 N 
HETATM   31  N7  UNL     1      -1.803  -5.496   0.538  1.00  0.00     0.006 NA
ATOM     32  H6  UNL     1      -0.606  -3.955  -0.225  1.00  0.00     0.202 HD
HETATM   33  N8  UNL     1      -2.563  -5.609   1.616  1.00  0.00     0.006 NA
HETATM   34  N9  UNL     1      -2.464  -4.452   2.262  1.00  0.00    -0.115 N 
ATOM     35  H9  UNL     1      -2.936  -4.224   3.137  1.00  0.00     0.202 HD
ENDBRANCH  27  29
ENDBRANCH   2  27
TORSDOF 9
