REMARK  3 active torsions:
REMARK  status: ('A' for Active; 'I' for Inactive)
REMARK    1  A    between atoms: S1_2  and  C2_3 
REMARK    2  A    between atoms: C3_8  and  N3_9 
REMARK    3  A    between atoms: N3_9  and  N4_10 
ROOT
HETATM    1  N4  UNL     1       0.350   1.016  -0.041  1.00  0.00    -0.195 N 
HETATM    2  C4  UNL     1       0.054   2.449   0.166  1.00  0.00     0.067 C 
HETATM    3  C5  UNL     1       0.592   3.342  -0.623  1.00  0.00    -0.060 C 
HETATM    4  C6  UNL     1       0.309   4.785  -0.425  1.00  0.00     0.045 C 
HETATM    5  C7  UNL     1       1.469   3.046  -1.810  1.00  0.00     0.045 C 
HETATM    6  C8  UNL     1      -0.934   2.669   1.242  1.00  0.00     0.139 C 
HETATM    7 CL1  UNL     1      -1.145   4.248   1.900  1.00  0.00    -0.118 Cl
HETATM    8  C9  UNL     1      -2.264   2.015   0.771  1.00  0.00     0.066 C 
HETATM    9  C10 UNL     1      -1.967   0.560   0.542  1.00  0.00    -0.019 C 
HETATM   10  C11 UNL     1      -0.806   0.146   0.188  1.00  0.00     0.059 C 
HETATM   11  C12 UNL     1      -0.568  -1.309  -0.013  1.00  0.00     0.069 C 
HETATM   12  C13 UNL     1       0.161  -1.820   1.210  1.00  0.00     0.020 C 
HETATM   13  C14 UNL     1      -1.806  -2.108  -0.208  1.00  0.00     0.064 C 
HETATM   14  C15 UNL     1      -1.750  -2.648  -1.652  1.00  0.00     0.046 C 
HETATM   15  C16 UNL     1      -1.808  -3.379   0.654  1.00  0.00     0.046 C 
HETATM   16  O1  UNL     1      -2.994  -1.483  -0.076  1.00  0.00    -0.365 OA
HETATM   17  C17 UNL     1      -3.119  -0.415   0.749  1.00  0.00     0.080 C 
HETATM   18  C18 UNL     1      -3.297  -0.703   2.197  1.00  0.00     0.051 C 
HETATM   19  C19 UNL     1      -4.374   0.348   0.292  1.00  0.00     0.051 C 
ENDROOT
BRANCH   1  20
HETATM   20  N3  UNL     1       1.502   0.563  -0.359  1.00  0.00    -0.291 NA
BRANCH  20  21
HETATM   21  C3  UNL     1       2.579   0.131  -0.672  1.00  0.00     0.263 A 
HETATM   22  N2  UNL     1       2.941  -0.592  -1.785  1.00  0.00    -0.265 N 
HETATM   23  N1  UNL     1       4.125  -0.947  -1.919  1.00  0.00    -0.285 N 
ATOM     24  H2  UNL     1       2.246  -0.834  -2.492  1.00  0.00     0.190 HD
HETATM   25  C2  UNL     1       5.051  -0.654  -1.029  1.00  0.00     0.130 A 
ATOM     26  H1  UNL     1       4.388  -1.483  -2.746  1.00  0.00     0.188 HD
HETATM   27  S2  UNL     1       4.146   0.212   0.110  1.00  0.00    -0.009 SA
BRANCH  25  28
HETATM   28  S1  UNL     1       6.811  -1.072  -1.038  1.00  0.00    -0.108 SA
HETATM   29  C1  UNL     1       7.080  -2.663  -0.224  1.00  0.00     0.097 C 
ENDBRANCH  25  28
ENDBRANCH  20  21
ENDBRANCH   1  20
TORSDOF 3
