REMARK  1 active torsions:
REMARK  status: ('A' for Active; 'I' for Inactive)
REMARK    1  A    between atoms: C4_4  and  N1_5 
ROOT
HETATM    1  C1  UNL     1      -2.551   0.022  -0.188  1.00  0.00     0.000 C 
HETATM    2  C2  UNL     1      -1.914   1.249   0.394  1.00  0.00     0.002 C 
HETATM    3  C3  UNL     1      -0.427   1.188   0.499  1.00  0.00     0.021 C 
HETATM    4  C4  UNL     1       0.161  -0.157   0.193  1.00  0.00     0.076 C 
HETATM    5  C7  UNL     1      -0.634  -1.303   0.762  1.00  0.00     0.021 C 
HETATM    6  C8  UNL     1      -2.089  -1.258   0.435  1.00  0.00     0.002 C 
ENDROOT
BRANCH   4   7
HETATM    7  N1  UNL     1       1.496  -0.304   0.710  1.00  0.00    -0.229 NA
HETATM    8  C5  UNL     1       2.435  -0.863  -0.242  1.00  0.00     0.127 A 
HETATM    9  C6  UNL     1       3.202   0.406   0.014  1.00  0.00     0.145 A 
HETATM   10  N2  UNL     1       2.213   0.839   0.979  1.00  0.00    -0.163 NA
ENDBRANCH   4   7
TORSDOF 1
