REMARK  3 active torsions:
REMARK  status: ('A' for Active; 'I' for Inactive)
REMARK       I    between atoms: C1_4  and  N3_6 
REMARK    1  A    between atoms: N3_6  and  O1_8 
REMARK    2  A    between atoms: O1_8  and  C2_9 
REMARK    3  A    between atoms: C2_9  and  C3_10 
ROOT
HETATM    1  C3  UNL     1       0.069  -0.237   0.961  1.00  0.00     0.020 C 
HETATM    2  C4  UNL     1      -0.367   1.061   0.363  1.00  0.00    -0.007 C 
HETATM    3  C5  UNL     1      -1.424   1.735   1.222  1.00  0.00     0.010 C 
HETATM    4  C6  UNL     1      -2.605   0.803   1.376  1.00  0.00    -0.013 C 
HETATM    5  C7  UNL     1      -3.177   0.554  -0.004  1.00  0.00     0.009 C 
HETATM    6  C8  UNL     1      -2.139  -0.061  -0.914  1.00  0.00    -0.013 C 
HETATM    7  C9  UNL     1      -0.971   0.871  -1.007  1.00  0.00     0.010 C 
HETATM    8  C10 UNL     1      -1.731  -1.378  -0.319  1.00  0.00     0.010 C 
HETATM    9  C11 UNL     1      -1.123  -1.158   1.058  1.00  0.00    -0.007 C 
HETATM   10  C12 UNL     1      -2.176  -0.550   1.926  1.00  0.00     0.010 C 
ENDROOT
BRANCH   1  11
HETATM   11  C2  UNL     1       1.122  -0.839   0.060  1.00  0.00     0.206 C 
BRANCH  11  12
HETATM   12  O1  UNL     1       2.175   0.048  -0.012  1.00  0.00    -0.278 OA
BRANCH  12  13
HETATM   13  N3  UNL     1       3.179  -0.373  -0.787  1.00  0.00    -0.239 N 
HETATM   14  C1  UNL     1       4.503  -0.308  -0.311  1.00  0.00     0.205 C 
HETATM   15  N1  UNL     1       5.191  -1.378  -0.097  1.00  0.00    -0.372 N 
HETATM   16  N2  UNL     1       5.147   0.937  -0.042  1.00  0.00    -0.062 NA
ATOM     17  H12 UNL     1       6.150  -1.331   0.248  1.00  0.00     0.158 HD
ATOM     18  H11 UNL     1       4.731  -2.268  -0.289  1.00  0.00     0.158 HD
ATOM     19  H3  UNL     1       2.987  -0.740  -1.719  1.00  0.00     0.197 HD
ENDBRANCH  12  13
ENDBRANCH  11  12
ENDBRANCH   1  11
TORSDOF 3
