REMARK  11 active torsions:
REMARK  status: ('A' for Active; 'I' for Inactive)
REMARK    1  A    between atoms: N1_1  and  C1_5 
REMARK    2  A    between atoms: C1_5  and  C2_6 
REMARK    3  A    between atoms: C2_6  and  C3_7 
REMARK    4  A    between atoms: C3_7  and  N2_8 
REMARK    5  A    between atoms: N3_11  and  C6_12 
REMARK    6  A    between atoms: C6_12  and  C7_13 
REMARK    7  A    between atoms: C7_13  and  C8_14 
REMARK    8  A    between atoms: C8_14  and  C9_15 
REMARK    9  A    between atoms: C9_15  and  C10_16 
REMARK   10  A    between atoms: C10_16  and  N5_18 
REMARK   11  A    between atoms: N5_18  and  N6_19 
ROOT
HETATM    1  N2  UNL     1       2.381   0.110   0.727  1.00  0.00     0.091 N 
HETATM    2  C4  UNL     1       1.458   1.166   0.430  1.00  0.00     0.302 C 
HETATM    3  C5  UNL     1       0.293   0.755  -0.404  1.00  0.00     0.302 C 
HETATM    4  N3  UNL     1      -0.490  -0.321   0.199  1.00  0.00     0.091 N 
HETATM    5  C11 UNL     1       0.392  -1.164   0.991  1.00  0.00     0.302 C 
HETATM    6  C12 UNL     1       1.749  -1.140   0.312  1.00  0.00     0.302 C 
ENDROOT
BRANCH   4   7
HETATM    7  C6  UNL     1      -1.059  -1.127  -0.851  1.00  0.00     0.272 C 
BRANCH   7   8
HETATM    8  C7  UNL     1      -2.086  -2.064  -0.285  1.00  0.00     0.031 C 
BRANCH   8   9
HETATM    9  C8  UNL     1      -3.161  -1.209   0.399  1.00  0.00     0.010 C 
BRANCH   9  10
HETATM   10  C9  UNL     1      -3.717  -0.275  -0.630  1.00  0.00     0.091 C 
BRANCH  10  11
HETATM   11  C10 UNL     1      -4.819   0.572  -0.035  1.00  0.00     0.189 C 
HETATM   12  N4  UNL     1      -4.921   1.932  -0.489  1.00  0.00    -0.070 NA
BRANCH  11  13
HETATM   13  N5  UNL     1      -5.586   0.109   0.753  1.00  0.00    -0.322 NA
BRANCH  13  14
HETATM   14  N6  UNL     1      -6.451  -0.302   1.602  1.00  0.00    -0.279 N 
ATOM     15  H62 UNL     1      -6.715   0.674   1.468  1.00  0.00     0.191 HD
ATOM     16  H61 UNL     1      -7.107  -0.698   2.276  1.00  0.00     0.191 HD
ENDBRANCH  13  14
ENDBRANCH  11  13
ENDBRANCH  10  11
ENDBRANCH   9  10
ENDBRANCH   8   9
ENDBRANCH   7   8
ENDBRANCH   4   7
BRANCH   1  17
HETATM   17  C3  UNL     1       3.613   0.218  -0.044  1.00  0.00     0.274 C 
BRANCH  17  18
HETATM   18  C2  UNL     1       4.439   1.395   0.358  1.00  0.00     0.057 C 
BRANCH  18  19
HETATM   19  C1  UNL     1       5.683   1.448  -0.486  1.00  0.00     0.231 C 
BRANCH  19  20
HETATM   20  N1  UNL     1       6.536   0.303  -0.366  1.00  0.00    -0.079 N 
ATOM     21  H13 UNL     1       6.778   0.143   0.612  1.00  0.00     0.274 HD
ATOM     22  H12 UNL     1       6.012  -0.551  -0.560  1.00  0.00     0.274 HD
ATOM     23  H11 UNL     1       7.380   0.339  -0.938  1.00  0.00     0.274 HD
ENDBRANCH  19  20
ENDBRANCH  18  19
ENDBRANCH  17  18
ENDBRANCH   1  17
TORSDOF 11
