REMARK  8 active torsions:
REMARK  status: ('A' for Active; 'I' for Inactive)
REMARK    1  A    between atoms: N2_7  and  C4_8 
REMARK    2  A    between atoms: C4_8  and  C5_9 
REMARK    3  A    between atoms: C5_9  and  C6_10 
REMARK    4  A    between atoms: C6_10  and  N3_11 
REMARK    5  A    between atoms: N3_11  and  C7_14 
REMARK    6  A    between atoms: C7_14  and  C8_15 
REMARK    7  A    between atoms: C8_15  and  C9_16 
REMARK    8  A    between atoms: C9_16  and  N4_17 
ROOT
HETATM    1  N3  UNL     1       0.795  -0.451  -0.962  1.00  0.00    -0.075 N 
ATOM      2  H31 UNL     1       0.407   0.431  -1.297  1.00  0.00     0.277 HD
ATOM      3  H32 UNL     1       1.056  -0.175  -0.015  1.00  0.00     0.277 HD
ENDROOT
BRANCH   1   4
HETATM    4  C6  UNL     1       1.957  -0.812  -1.721  1.00  0.00     0.234 C 
BRANCH   4   5
HETATM    5  C5  UNL     1       2.759  -1.903  -1.063  1.00  0.00     0.047 C 
BRANCH   5   6
HETATM    6  C4  UNL     1       3.264  -1.588   0.294  1.00  0.00     0.129 C 
BRANCH   6   7
HETATM    7  N2  UNL     1       4.151  -0.481   0.432  1.00  0.00    -0.333 N 
HETATM    8  C1  UNL     1       5.595  -0.558   0.299  1.00  0.00     0.318 C 
HETATM    9  O1  UNL     1       6.267  -1.614   0.293  1.00  0.00    -0.247 OA
HETATM   10  N1  UNL     1       6.048   0.782   0.182  1.00  0.00    -0.341 N 
HETATM   11  C2  UNL     1       5.062   1.671   0.782  1.00  0.00     0.144 C 
ATOM     12  H1  UNL     1       6.923   1.075  -0.252  1.00  0.00     0.164 HD
HETATM   13  C3  UNL     1       3.774   0.873   0.755  1.00  0.00     0.147 C 
ENDBRANCH   6   7
ENDBRANCH   5   6
ENDBRANCH   4   5
ENDBRANCH   1   4
BRANCH   1  14
HETATM   14  C7  UNL     1      -0.209  -1.460  -0.931  1.00  0.00     0.237 C 
BRANCH  14  15
HETATM   15  C8  UNL     1      -1.436  -1.097  -0.131  1.00  0.00     0.072 C 
BRANCH  15  16
HETATM   16  C9  UNL     1      -2.130   0.124  -0.627  1.00  0.00     0.070 C 
BRANCH  16  17
HETATM   17  N4  UNL     1      -3.286   0.518   0.051  1.00  0.00    -0.344 N 
HETATM   18  C10 UNL     1      -4.438  -0.268  -0.038  1.00  0.00     0.112 C 
HETATM   19  C11 UNL     1      -5.438  -0.088   1.066  1.00  0.00     0.105 C 
HETATM   20  N5  UNL     1      -5.281   1.062   1.857  1.00  0.00    -0.373 N 
HETATM   21  C12 UNL     1      -4.450   2.110   1.439  1.00  0.00     0.105 C 
ATOM     22  H5  UNL     1      -5.777   1.135   2.745  1.00  0.00     0.164 HD
HETATM   23  C13 UNL     1      -3.454   1.873   0.381  1.00  0.00     0.112 C 
ENDBRANCH  16  17
ENDBRANCH  15  16
ENDBRANCH  14  15
ENDBRANCH   1  14
TORSDOF 8
