REMARK  12 active torsions:
REMARK  status: ('A' for Active; 'I' for Inactive)
REMARK    1  A    between atoms: C2_2  and  N1_4 
REMARK    2  A    between atoms: N1_4  and  C4_6 
REMARK    3  A    between atoms: C4_6  and  C5_7 
REMARK    4  A    between atoms: C4_6  and  C6_10 
REMARK    5  A    between atoms: C5_7  and  O1_8 
REMARK    6  A    between atoms: C6_10  and  N3_14 
REMARK    7  A    between atoms: N3_14  and  C7_16 
REMARK    8  A    between atoms: C7_16  and  C8_17 
REMARK    9  A    between atoms: C7_16  and  C11_20 
REMARK   10  A    between atoms: C11_20  and  N4_21 
REMARK   11  A    between atoms: C11_20  and  C12_25 
REMARK   12  A    between atoms: C12_25  and  C13_26 
ROOT
HETATM    1  C7  UNL     1      -0.425  -1.867  -0.222  1.00  0.00     0.117 C 
ENDROOT
BRANCH   1   2
HETATM    2  N3  UNL     1       0.570  -1.480  -1.160  1.00  0.00    -0.371 N 
ATOM      3  H3  UNL     1       0.763  -2.158  -1.897  1.00  0.00     0.161 HD
BRANCH   2   4
HETATM    4  C6  UNL     1       1.329  -0.292  -1.218  1.00  0.00     0.096 C 
HETATM    5  N2  UNL     1       1.361   0.319  -2.354  1.00  0.00    -0.387 N 
ATOM      6  H22 UNL     1       1.910   1.178  -2.396  1.00  0.00     0.157 HD
ATOM      7  H21 UNL     1       0.822  -0.068  -3.129  1.00  0.00     0.157 HD
BRANCH   4   8
HETATM    8  C4  UNL     1       2.126   0.280  -0.072  1.00  0.00     0.168 C 
BRANCH   8   9
HETATM    9  N1  UNL     1       2.359   1.638  -0.347  1.00  0.00    -0.406 N 
ATOM     10  H1  UNL     1       2.016   2.002  -1.236  1.00  0.00     0.154 HD
BRANCH   9  11
HETATM   11  C2  UNL     1       3.017   2.523   0.491  1.00  0.00     0.069 C 
HETATM   12  C1  UNL     1       4.483   2.313   0.766  1.00  0.00     0.031 C 
HETATM   13  C3  UNL     1       2.887   3.955  -0.096  1.00  0.00     0.031 C 
ENDBRANCH   9  11
ENDBRANCH   8   9
BRANCH   8  14
HETATM   14  C5  UNL     1       3.432  -0.490   0.048  1.00  0.00     0.196 C 
BRANCH  14  15
HETATM   15  O1  UNL     1       3.031  -1.838   0.259  1.00  0.00    -0.398 OA
ATOM     16  H1  UNL     1       3.847  -2.319   0.334  1.00  0.00     0.209 HD
ENDBRANCH  14  15
ENDBRANCH   8  14
ENDBRANCH   4   8
ENDBRANCH   2   4
ENDBRANCH   1   2
BRANCH   1  17
HETATM   17  C8  UNL     1      -0.807  -3.347  -0.500  1.00  0.00     0.002 C 
HETATM   18  C9  UNL     1       0.417  -4.209  -0.346  1.00  0.00     0.011 C 
HETATM   19  C10 UNL     1      -1.490  -3.510  -1.815  1.00  0.00     0.011 C 
ENDBRANCH   1  17
BRANCH   1  20
HETATM   20  C11 UNL     1      -1.687  -1.075  -0.122  1.00  0.00     0.210 C 
BRANCH  20  21
HETATM   21  N4  UNL     1      -2.496  -1.752   0.912  1.00  0.00    -0.073 N 
ATOM     22  H43 UNL     1      -2.648  -2.744   0.730  1.00  0.00     0.274 HD
ATOM     23  H42 UNL     1      -2.012  -1.866   1.802  1.00  0.00     0.274 HD
ATOM     24  H41 UNL     1      -3.358  -1.211   0.980  1.00  0.00     0.274 HD
ENDBRANCH  20  21
BRANCH  20  25
HETATM   25  C12 UNL     1      -1.485   0.348   0.222  1.00  0.00     0.073 C 
BRANCH  25  26
HETATM   26  C13 UNL     1      -2.770   1.099   0.348  1.00  0.00    -0.056 A 
HETATM   27  C14 UNL     1      -3.361   1.740  -0.717  1.00  0.00     0.007 A 
HETATM   28  C15 UNL     1      -4.566   2.433  -0.547  1.00  0.00     0.001 A 
HETATM   29  C16 UNL     1      -5.164   2.471   0.699  1.00  0.00     0.000 A 
HETATM   30  C17 UNL     1      -4.576   1.827   1.780  1.00  0.00     0.001 A 
HETATM   31  C18 UNL     1      -3.374   1.145   1.577  1.00  0.00     0.007 A 
ENDBRANCH  25  26
ENDBRANCH  20  25
ENDBRANCH   1  20
TORSDOF 12
