REMARK  9 active torsions:
REMARK  status: ('A' for Active; 'I' for Inactive)
REMARK    1  A    between atoms: C2_2  and  O1_3 
REMARK    2  A    between atoms: O1_3  and  C3_4 
REMARK    3  A    between atoms: C3_4  and  C4_5 
REMARK    4  A    between atoms: N1_8  and  C7_9 
REMARK    5  A    between atoms: C9_15  and  N4_16 
REMARK    6  A    between atoms: C10_18  and  C11_19 
REMARK    7  A    between atoms: C12_20  and  C13_21 
REMARK    8  A    between atoms: C17_29  and  C18_30 
REMARK    9  A    between atoms: C18_30  and  C21_33 
ROOT
HETATM    1  C7  UNL     1      -0.292  -0.498  -0.938  1.00  0.00     0.122 A 
HETATM    2  N2  UNL     1      -0.164  -1.894  -0.994  1.00  0.00    -0.338 N 
ATOM      3  H2  UNL     1      -0.919  -2.434  -1.416  1.00  0.00     0.168 HD
HETATM    4  C8  UNL     1       0.883  -2.539  -0.529  1.00  0.00     0.183 A 
HETATM    5  N3  UNL     1       1.843  -1.797   0.009  1.00  0.00    -0.338 N 
ATOM      6  H3  UNL     1       2.665  -2.273   0.380  1.00  0.00     0.168 HD
HETATM    7  C9  UNL     1       1.798  -0.461   0.095  1.00  0.00     0.117 A 
HETATM    8  C17 UNL     1       0.703   0.257  -0.389  1.00  0.00     0.047 A 
ENDROOT
BRANCH   1   9
HETATM    9  N1  UNL     1      -1.600  -0.163  -1.312  1.00  0.00    -0.323 N 
HETATM   10  C6  UNL     1      -2.532  -0.074  -0.239  1.00  0.00     0.103 C 
HETATM   11  C4  UNL     1      -3.899   0.407  -0.433  1.00  0.00     0.083 C 
HETATM   12  C5  UNL     1      -4.116   1.860   0.013  1.00  0.00     0.046 C 
HETATM   13  N7  UNL     1      -4.551   0.256  -1.678  1.00  0.00    -0.345 N 
HETATM   14  C24 UNL     1      -4.284  -0.574  -2.767  1.00  0.00     0.223 C 
ATOM     15  H7  UNL     1      -5.362   0.862  -1.802  1.00  0.00     0.163 HD
HETATM   16  C23 UNL     1      -2.938  -1.023  -3.196  1.00  0.00     0.148 C 
HETATM   17  O2  UNL     1      -5.289  -0.954  -3.418  1.00  0.00    -0.273 OA
HETATM   18  C22 UNL     1      -1.855  -0.107  -2.689  1.00  0.00     0.080 C 
BRANCH  11  19
HETATM   19  C3  UNL     1      -4.806  -0.373   0.572  1.00  0.00     0.203 C 
BRANCH  19  20
HETATM   20  O1  UNL     1      -6.084   0.179   0.576  1.00  0.00    -0.389 OA
BRANCH  20  21
HETATM   21  C2  UNL     1      -6.850  -0.543   1.473  1.00  0.00     0.163 C 
HETATM   22  C1  UNL     1      -8.281  -0.051   1.572  1.00  0.00     0.033 C 
ENDBRANCH  20  21
ENDBRANCH  19  20
ENDBRANCH  11  19
ENDBRANCH   1   9
BRANCH   8  23
HETATM   23  C18 UNL     1       0.711   1.683  -0.416  1.00  0.00     0.085 C 
HETATM   24  C19 UNL     1       1.906   2.172   0.498  1.00  0.00     0.029 C 
HETATM   25  C20 UNL     1      -0.393   2.523   0.045  1.00  0.00     0.029 C 
BRANCH  23  26
HETATM   26  C21 UNL     1       1.145   2.323  -1.773  1.00  0.00     0.399 C 
HETATM   27  F1  UNL     1       1.078   3.745  -1.561  1.00  0.00    -0.170 F 
HETATM   28  F2  UNL     1       2.510   2.153  -1.974  1.00  0.00    -0.170 F 
HETATM   29  F3  UNL     1       0.451   2.113  -2.852  1.00  0.00    -0.170 F 
ENDBRANCH  23  26
ENDBRANCH   8  23
BRANCH   7  30
HETATM   30  N4  UNL     1       2.821   0.026   0.688  1.00  0.00    -0.351 N 
HETATM   31  C10 UNL     1       3.956  -0.462   1.268  1.00  0.00     0.105 C 
ATOM     32  H4  UNL     1       2.777   1.044   0.741  1.00  0.00     0.166 HD
BRANCH  31  33
HETATM   33  C11 UNL     1       5.126  -0.995   0.635  1.00  0.00     0.027 A 
HETATM   34  C12 UNL     1       6.208  -1.463   1.426  1.00  0.00     0.039 A 
HETATM   35  N5  UNL     1       7.136  -1.894   0.583  1.00  0.00    -0.304 N 
HETATM   36  N6  UNL     1       6.766  -1.752  -0.662  1.00  0.00    -0.304 N 
ATOM     37  H5  UNL     1       8.031  -2.289   0.872  1.00  0.00     0.186 HD
HETATM   38  C15 UNL     1       5.508  -1.189  -0.645  1.00  0.00     0.035 A 
ATOM     39  H6  UNL     1       7.305  -2.009  -1.489  1.00  0.00     0.186 HD
HETATM   40  C16 UNL     1       4.850  -0.913  -1.958  1.00  0.00     0.070 C 
BRANCH  34  41
HETATM   41  C13 UNL     1       6.289  -1.466   2.922  1.00  0.00     0.055 C 
HETATM   42  C14 UNL     1       6.573  -0.091   3.486  1.00  0.00     0.011 C 
ENDBRANCH  34  41
ENDBRANCH  31  33
ENDBRANCH   7  30
TORSDOF 9
