REMARK  10 active torsions:
REMARK  status: ('A' for Active; 'I' for Inactive)
REMARK    1  A    between atoms: C2_2  and  C3_3 
REMARK    2  A    between atoms: C3_3  and  N1_4 
REMARK    3  A    between atoms: N1_4  and  C4_7 
REMARK    4  A    between atoms: C4_7  and  C5_8 
REMARK    5  A    between atoms: C5_8  and  O1_9 
REMARK    6  A    between atoms: C5_8  and  C6_11 
REMARK    7  A    between atoms: C6_11  and  N2_12 
REMARK    8  A    between atoms: N2_12  and  C7_15 
REMARK    9  A    between atoms: C7_15  and  C8_16 
REMARK   10  A    between atoms: C8_16  and  O2_17 
ROOT
HETATM    1  C5  UNL     1       0.193   0.490   0.291  1.00  0.00     0.169 C 
ENDROOT
BRANCH   1   2
HETATM    2  C4  UNL     1      -1.273   0.501  -0.100  1.00  0.00     0.265 C 
BRANCH   2   3
HETATM    3  N1  UNL     1      -1.794  -0.817  -0.139  1.00  0.00    -0.070 N 
ATOM      4  H12 UNL     1      -1.491  -1.348   0.677  1.00  0.00     0.277 HD
ATOM      5  H11 UNL     1      -1.342  -1.362  -0.874  1.00  0.00     0.277 HD
BRANCH   3   6
HETATM    6  C3  UNL     1      -3.222  -0.867  -0.276  1.00  0.00     0.259 C 
BRANCH   6   7
HETATM    7  C2  UNL     1      -3.908  -0.424   0.940  1.00  0.00    -0.010 C 
HETATM    8  C1  UNL     1      -4.756   0.588   0.970  1.00  0.00     0.008 C 
ENDBRANCH   6   7
ENDBRANCH   3   6
ENDBRANCH   2   3
ENDBRANCH   1   2
BRANCH   1   9
HETATM    9  O1  UNL     1       0.400   0.013   1.607  1.00  0.00    -0.392 OA
ATOM     10  H1  UNL     1       1.318   0.006   1.852  1.00  0.00     0.210 HD
ENDBRANCH   1   9
BRANCH   1  11
HETATM   11  C6  UNL     1       0.848  -0.615  -0.564  1.00  0.00     0.265 C 
BRANCH  11  12
HETATM   12  N2  UNL     1       2.264  -0.742  -0.276  1.00  0.00    -0.071 N 
ATOM     13  H22 UNL     1       2.450  -0.881   0.717  1.00  0.00     0.277 HD
ATOM     14  H21 UNL     1       2.655  -1.621  -0.616  1.00  0.00     0.277 HD
BRANCH  12  15
HETATM   15  C7  UNL     1       2.940   0.399  -0.805  1.00  0.00     0.258 C 
BRANCH  15  16
HETATM   16  C8  UNL     1       4.450   0.357  -0.589  1.00  0.00     0.191 C 
BRANCH  16  17
HETATM   17  O2  UNL     1       4.803   0.301   0.740  1.00  0.00    -0.399 OA
ATOM     18  H2  UNL     1       5.743   0.275   0.874  1.00  0.00     0.209 HD
ENDBRANCH  16  17
ENDBRANCH  15  16
ENDBRANCH  12  15
ENDBRANCH  11  12
ENDBRANCH   1  11
TORSDOF 10
