REMARK  9 active torsions:
REMARK  status: ('A' for Active; 'I' for Inactive)
REMARK    1  A    between atoms: O1_2  and  C2_3 
REMARK    2  A    between atoms: C2_3  and  C3_4 
REMARK    3  A    between atoms: C7_8  and  O2_9 
REMARK    4  A    between atoms: C8_11  and  O3_12 
REMARK    5  A    between atoms: C23_29  and  C24_30 
REMARK    6  A    between atoms: C24_30  and  C25_31 
REMARK    7  A    between atoms: C25_31  and  C26_32 
REMARK    8  A    between atoms: C26_32  and  C28_34 
REMARK    9  A    between atoms: C28_34  and  C29_35 
ROOT
HETATM    1  C3  UNL     1       0.235  -0.928   0.482  1.00  0.00     0.016 C 
HETATM    2  C4  UNL     1       0.129  -0.042   1.707  1.00  0.00    -0.070 C 
HETATM    3  C5  UNL     1       0.147  -0.750   3.060  1.00  0.00     0.044 C 
HETATM    4  C6  UNL     1      -0.816   1.076   1.743  1.00  0.00     0.039 C 
HETATM    5  C7  UNL     1      -2.240   0.990   2.021  1.00  0.00     0.082 C 
HETATM    6  C8  UNL     1      -3.011   1.422   0.799  1.00  0.00     0.129 C 
HETATM    7  C9  UNL     1      -4.456   1.235   0.849  1.00  0.00     0.016 C 
HETATM    8  C10 UNL     1      -4.889   1.252  -0.407  1.00  0.00    -0.003 C 
HETATM    9  C11 UNL     1      -3.725   1.453  -1.354  1.00  0.00     0.070 C 
HETATM   10  C12 UNL     1      -3.680   2.955  -1.625  1.00  0.00     0.036 C 
HETATM   11  C13 UNL     1      -3.885   0.816  -2.612  1.00  0.00     0.073 C 
HETATM   12  N1  UNL     1      -4.007   0.280  -3.626  1.00  0.00    -0.196 NA
HETATM   13  C14 UNL     1      -2.520   1.008  -0.509  1.00  0.00     0.061 C 
HETATM   14  C15 UNL     1      -2.033  -0.380  -0.753  1.00  0.00    -0.004 C 
HETATM   15  C16 UNL     1      -2.973  -1.481  -0.499  1.00  0.00     0.011 C 
HETATM   16  C17 UNL     1      -0.566  -0.607  -0.700  1.00  0.00     0.005 C 
HETATM   17  C18 UNL     1      -0.243  -1.585  -1.816  1.00  0.00     0.007 C 
HETATM   18  C19 UNL     1       1.068  -2.149  -2.020  1.00  0.00     0.010 C 
HETATM   19  C20 UNL     1       2.098  -1.972  -0.957  1.00  0.00    -0.040 C 
HETATM   20  C21 UNL     1       3.327  -1.579  -1.813  1.00  0.00     0.015 C 
HETATM   21  C22 UNL     1       2.642  -3.203  -0.305  1.00  0.00     0.015 C 
HETATM   22  C23 UNL     1       1.689  -0.863   0.003  1.00  0.00     0.031 C 
ENDROOT
BRANCH   6  23
HETATM   23  O3  UNL     1      -2.869   2.851   0.781  1.00  0.00    -0.378 OA
ATOM     24  H3  UNL     1      -3.355   3.123   0.011  1.00  0.00     0.211 HD
ENDBRANCH   6  23
BRANCH   5  25
HETATM   25  O2  UNL     1      -2.755  -0.097   2.681  1.00  0.00    -0.361 OA
ATOM     26  H2  UNL     1      -3.686  -0.153   2.863  1.00  0.00     0.217 HD
ENDBRANCH   5  25
BRANCH   1  27
HETATM   27  C2  UNL     1      -0.156  -2.244   1.079  1.00  0.00     0.182 C 
BRANCH  27  28
HETATM   28  O1  UNL     1      -0.272  -3.375   0.358  1.00  0.00    -0.395 OA
HETATM   29  C1  UNL     1      -0.676  -4.376   1.276  1.00  0.00     0.201 C 
ENDBRANCH  27  28
ENDBRANCH   1  27
BRANCH  22  30
HETATM   30  C24 UNL     1       2.221   0.344  -0.569  1.00  0.00    -0.020 C 
BRANCH  30  31
HETATM   31  C25 UNL     1       2.369   1.671  -0.064  1.00  0.00    -0.001 C 
BRANCH  31  32
HETATM   32  C26 UNL     1       3.515   2.362   0.166  1.00  0.00    -0.078 C 
HETATM   33  C27 UNL     1       4.777   1.633  -0.151  1.00  0.00     0.044 C 
BRANCH  32  34
HETATM   34  C28 UNL     1       3.574   3.718   0.686  1.00  0.00     0.103 C 
BRANCH  34  35
HETATM   35  C29 UNL     1       4.255   4.608  -0.283  1.00  0.00     0.235 C 
HETATM   36  O4  UNL     1       4.432   5.795  -0.086  1.00  0.00    -0.307 OA
ENDBRANCH  34  35
ENDBRANCH  32  34
ENDBRANCH  31  32
ENDBRANCH  30  31
ENDBRANCH  22  30
TORSDOF 9
