REMARK  0 active torsions:
REMARK  status: ('A' for Active; 'I' for Inactive)
ROOT
HETATM    1  C1  UNL     1       1.627  -1.144   0.837  1.00  0.00     0.005 C 
HETATM    2  C2  UNL     1       1.689   0.002  -0.175  1.00  0.00     0.006 C 
HETATM    3  C3  UNL     1       0.298   0.198  -0.679  1.00  0.00    -0.006 C 
HETATM    4  C4  UNL     1      -0.607   0.874   0.357  1.00  0.00    -0.009 C 
HETATM    5  C5  UNL     1      -0.154   0.281   1.662  1.00  0.00     0.010 C 
HETATM    6  C6  UNL     1       0.161  -1.144   1.165  1.00  0.00    -0.010 C 
HETATM    7  C7  UNL     1      -0.455  -1.055  -0.205  1.00  0.00    -0.006 C 
HETATM    8  C8  UNL     1      -1.659  -0.152  -0.078  1.00  0.00     0.010 C 
ENDROOT
TORSDOF 0
