REMARK  17 active torsions:
REMARK  status: ('A' for Active; 'I' for Inactive)
REMARK    1  A    between atoms: C2_2  and  S1_4 
REMARK    2  A    between atoms: S1_4  and  C4_5 
REMARK    3  A    between atoms: C4_5  and  C5_6 
REMARK    4  A    between atoms: C5_6  and  C6_7 
REMARK    5  A    between atoms: C5_6  and  N4_17 
REMARK    6  A    between atoms: C5_6  and  C24_35 
REMARK    7  A    between atoms: C6_7  and  C7_8 
REMARK    8  A    between atoms: C7_8  and  C8_9 
REMARK    9  A    between atoms: C8_9  and  C9_10 
REMARK   10  A    between atoms: C9_10  and  C10_11 
REMARK   11  A    between atoms: C10_11  and  N1_12 
REMARK       I    between atoms: N4_17  and  C12_19 
REMARK       I    between atoms: C12_19  and  N5_21 
REMARK   12  A    between atoms: N5_21  and  C13_23 
REMARK       I    between atoms: C24_35  and  N6_37 
REMARK   13  A    between atoms: N6_37  and  C25_39 
REMARK   14  A    between atoms: C25_39  and  C26_40 
REMARK   15  A    between atoms: C26_40  and  O4_41 
REMARK   16  A    between atoms: C26_40  and  C27_43 
REMARK   17  A    between atoms: C27_43  and  N7_44 
ROOT
HETATM    1  C5  UNL     1      -0.315   1.006   1.095  1.00  0.00     0.123 C 
ENDROOT
BRANCH   1   2
HETATM    2  C4  UNL     1      -0.687   0.022   2.233  1.00  0.00     0.115 C 
BRANCH   2   3
HETATM    3  S1  UNL     1      -1.353   1.004   3.609  1.00  0.00    -0.162 SA
BRANCH   3   4
HETATM    4  C2  UNL     1      -1.807  -0.068   4.984  1.00  0.00     0.039 C 
HETATM    5  C1  UNL     1      -0.514  -0.677   5.520  1.00  0.00     0.021 C 
HETATM    6  C3  UNL     1      -2.615  -1.227   4.425  1.00  0.00     0.021 C 
ENDBRANCH   3   4
ENDBRANCH   2   3
ENDBRANCH   1   2
BRANCH   1   7
HETATM    7  C6  UNL     1       0.719   1.917   1.718  1.00  0.00     0.042 C 
BRANCH   7   8
HETATM    8  C7  UNL     1       1.242   2.957   0.807  1.00  0.00     0.003 C 
BRANCH   8   9
HETATM    9  C8  UNL     1       2.260   3.797   1.539  1.00  0.00     0.002 C 
BRANCH   9  10
HETATM   10  C9  UNL     1       3.441   3.013   2.045  1.00  0.00     0.020 C 
BRANCH  10  11
HETATM   11  C10 UNL     1       4.408   3.966   2.761  1.00  0.00     0.122 C 
BRANCH  11  12
HETATM   12  N1  UNL     1       5.516   3.159   3.222  1.00  0.00    -0.367 N 
HETATM   13  C11 UNL     1       5.486   2.399   4.251  1.00  0.00     0.196 C 
HETATM   14  N2  UNL     1       4.372   2.221   5.106  1.00  0.00    -0.067 NA
HETATM   15  N3  UNL     1       6.666   1.666   4.572  1.00  0.00    -0.067 NA
ATOM     16  H1  UNL     1       6.384   3.198   2.688  1.00  0.00     0.161 HD
ENDBRANCH  11  12
ENDBRANCH  10  11
ENDBRANCH   9  10
ENDBRANCH   8   9
ENDBRANCH   7   8
ENDBRANCH   1   7
BRANCH   1  17
HETATM   17  N4  UNL     1       0.210   0.246   0.030  1.00  0.00    -0.324 N 
HETATM   18  C12 UNL     1       1.328  -0.615   0.019  1.00  0.00     0.317 C 
HETATM   19  O1  UNL     1       2.002  -0.788   1.049  1.00  0.00    -0.247 OA
HETATM   20  N5  UNL     1       1.691  -1.287  -1.157  1.00  0.00    -0.338 N 
ATOM     21  H5  UNL     1       1.145  -1.151  -2.008  1.00  0.00     0.164 HD
ATOM     22  H4  UNL     1      -0.288   0.330  -0.856  1.00  0.00     0.165 HD
BRANCH  20  23
HETATM   23  C13 UNL     1       2.830  -2.168  -1.171  1.00  0.00     0.096 C 
HETATM   24  C14 UNL     1       3.845  -1.662  -2.183  1.00  0.00     0.010 C 
HETATM   25  C15 UNL     1       3.123  -1.531  -3.492  1.00  0.00     0.007 C 
HETATM   26  C23 UNL     1       4.991  -2.614  -2.355  1.00  0.00     0.020 C 
HETATM   27  C16 UNL     1       2.444  -2.757  -3.972  1.00  0.00     0.001 C 
HETATM   28  C17 UNL     1       1.901  -3.672  -2.954  1.00  0.00     0.009 C 
HETATM   29  C18 UNL     1       2.458  -3.565  -1.584  1.00  0.00     0.039 C 
HETATM   30  C19 UNL     1       3.633  -4.461  -1.320  1.00  0.00     0.137 C 
HETATM   31  O2  UNL     1       3.934  -5.363  -2.336  1.00  0.00    -0.384 OA
HETATM   32  C21 UNL     1       4.959  -3.781  -1.423  1.00  0.00     0.004 C 
HETATM   33  C20 UNL     1       5.283  -5.086  -2.116  1.00  0.00     0.179 C 
HETATM   34  C22 UNL     1       5.723  -3.629  -0.135  1.00  0.00     0.020 C 
ENDBRANCH  20  23
ENDBRANCH   1  17
BRANCH   1  35
HETATM   35  C24 UNL     1      -1.557   1.696   0.778  1.00  0.00     0.246 C 
HETATM   36  O3  UNL     1      -2.123   2.475   1.642  1.00  0.00    -0.271 OA
HETATM   37  N6  UNL     1      -2.244   1.599  -0.436  1.00  0.00    -0.356 N 
ATOM     38  H6  UNL     1      -1.865   1.004  -1.173  1.00  0.00     0.162 HD
BRANCH  37  39
HETATM   39  C25 UNL     1      -3.498   2.330  -0.681  1.00  0.00     0.156 C 
BRANCH  39  40
HETATM   40  C26 UNL     1      -4.056   2.077  -2.045  1.00  0.00     0.164 C 
BRANCH  40  41
HETATM   41  O4  UNL     1      -3.094   2.500  -2.968  1.00  0.00    -0.392 OA
ATOM     42  H4  UNL     1      -3.449   2.339  -3.835  1.00  0.00     0.210 HD
ENDBRANCH  40  41
BRANCH  40  43
HETATM   43  C27 UNL     1      -4.363   0.645  -2.315  1.00  0.00     0.305 C 
BRANCH  43  44
HETATM   44  N7  UNL     1      -5.330   0.037  -1.460  1.00  0.00     0.095 N 
HETATM   45  C28 UNL     1      -5.474  -1.362  -1.857  1.00  0.00     0.298 C 
HETATM   46  C29 UNL     1      -6.321  -1.531  -3.091  1.00  0.00     0.198 C 
HETATM   47  O5  UNL     1      -7.587  -1.017  -2.820  1.00  0.00    -0.388 OA
HETATM   48  C30 UNL     1      -7.450   0.360  -2.644  1.00  0.00     0.198 C 
HETATM   49  C31 UNL     1      -6.616   0.686  -1.427  1.00  0.00     0.298 C 
ENDBRANCH  43  44
ENDBRANCH  40  43
ENDBRANCH  39  40
ENDBRANCH  37  39
ENDBRANCH   1  35
TORSDOF 17
