REMARK  9 active torsions:
REMARK  status: ('A' for Active; 'I' for Inactive)
REMARK    1  A    between atoms: C2_2  and  C4_4 
REMARK    2  A    between atoms: C4_4  and  N1_5 
REMARK    3  A    between atoms: C4_4  and  C21_32 
REMARK       I    between atoms: N1_5  and  C5_7 
REMARK    4  A    between atoms: C5_7  and  C6_9 
REMARK    5  A    between atoms: N2_10  and  C7_11 
REMARK    6  A    between atoms: C7_11  and  O2_12 
REMARK    7  A    between atoms: C7_11  and  C8_14 
REMARK    8  A    between atoms: C8_14  and  N3_15 
REMARK    9  A    between atoms: C8_14  and  C9_19 
ROOT
HETATM    1  C6  UNL     1      -1.081  -1.396  -0.815  1.00  0.00     0.236 C 
HETATM    2  N2  UNL     1      -0.855   0.050  -1.042  1.00  0.00    -0.313 N 
HETATM    3  C15 UNL     1      -0.052   0.320  -2.196  1.00  0.00     0.010 C 
HETATM    4  C16 UNL     1       1.265  -0.308  -2.178  1.00  0.00     0.119 C 
HETATM    5  S1  UNL     1      -0.091  -2.256  -2.355  1.00  0.00    -0.181 SA
HETATM    6  C17 UNL     1      -0.934  -1.089  -4.055  1.00  0.00     0.081 C 
HETATM    7  C18 UNL     1      -0.686   0.225  -3.519  1.00  0.00    -0.000 C 
HETATM    8  C19 UNL     1       0.233   0.959  -4.511  1.00  0.00     0.022 C 
HETATM    9  C20 UNL     1      -1.988   1.010  -3.557  1.00  0.00     0.022 C 
ENDROOT
BRANCH   2  10
HETATM   10  C7  UNL     1      -1.498   0.952  -0.142  1.00  0.00     0.150 C 
BRANCH  10  11
HETATM   11  O2  UNL     1      -2.243   0.337   0.747  1.00  0.00    -0.348 OA
ATOM     12  H2  UNL     1      -2.671   0.937   1.346  1.00  0.00     0.219 HD
ENDBRANCH  10  11
BRANCH  10  13
HETATM   13  C8  UNL     1      -1.554   2.350   0.057  1.00  0.00     0.261 C 
BRANCH  13  14
HETATM   14  N3  UNL     1      -0.643   3.118  -0.737  1.00  0.00    -0.067 N 
ATOM     15  H33 UNL     1       0.310   2.782  -0.599  1.00  0.00     0.275 HD
ATOM     16  H32 UNL     1      -0.769   2.899  -1.725  1.00  0.00     0.275 HD
ATOM     17  H31 UNL     1      -0.683   4.127  -0.593  1.00  0.00     0.275 HD
ENDBRANCH  13  14
BRANCH  13  18
HETATM   18  C9  UNL     1      -1.558   2.950   1.414  1.00  0.00     0.024 C 
HETATM   19  C10 UNL     1      -2.665   2.591   2.329  1.00  0.00     0.007 C 
HETATM   20  C11 UNL     1      -2.693   3.644   3.420  1.00  0.00     0.000 C 
HETATM   21  C12 UNL     1      -1.472   3.482   4.246  1.00  0.00     0.000 C 
HETATM   22  C13 UNL     1      -0.214   3.138   3.558  1.00  0.00     0.000 C 
HETATM   23  C14 UNL     1      -0.203   2.967   2.100  1.00  0.00     0.007 C 
ENDBRANCH  13  18
ENDBRANCH  10  13
ENDBRANCH   2  10
BRANCH   1  24
HETATM   24  C5  UNL     1      -0.607  -1.928   0.438  1.00  0.00     0.251 C 
HETATM   25  N1  UNL     1       0.147  -1.356   1.467  1.00  0.00    -0.344 N 
ATOM     26  H1  UNL     1       0.430  -0.382   1.361  1.00  0.00     0.163 HD
HETATM   27  O1  UNL     1      -0.928  -3.160   0.657  1.00  0.00    -0.270 OA
BRANCH  25  28
HETATM   28  C4  UNL     1       0.555  -2.047   2.671  1.00  0.00     0.189 C 
BRANCH  28  29
HETATM   29  C2  UNL     1       2.079  -1.946   2.751  1.00  0.00     0.010 C 
HETATM   30  C1  UNL     1       2.726  -2.582   1.545  1.00  0.00     0.012 C 
HETATM   31  C3  UNL     1       2.573  -2.554   4.045  1.00  0.00     0.012 C 
ENDBRANCH  28  29
BRANCH  28  32
HETATM   32  C21 UNL     1      -0.092  -1.413   3.840  1.00  0.00     0.197 C 
HETATM   33  O3  UNL     1      -0.861  -0.429   3.731  1.00  0.00    -0.646 OA
HETATM   34  O4  UNL     1       0.152  -1.921   5.137  1.00  0.00    -0.646 OA
ENDBRANCH  28  32
ENDBRANCH  25  28
ENDBRANCH   1  24
TORSDOF 9
