REMARK  8 active torsions:
REMARK  status: ('A' for Active; 'I' for Inactive)
REMARK    1  A    between atoms: C2_2  and  C3_3 
REMARK    2  A    between atoms: C3_3  and  N1_4 
REMARK       I    between atoms: N1_4  and  C4_6 
REMARK    3  A    between atoms: C4_6  and  C5_8 
REMARK    4  A    between atoms: C5_8  and  C6_10 
REMARK    5  A    between atoms: C7_11  and  C8_12 
REMARK    6  A    between atoms: C14_19  and  C15_20 
REMARK       I    between atoms: C15_20  and  N3_22 
REMARK    7  A    between atoms: N3_22  and  C16_24 
REMARK    8  A    between atoms: C22_30  and  C23_31 
ROOT
HETATM    1  C6  UNL     1      -1.021   2.144  -1.399  1.00  0.00     0.090 C 
HETATM    2  C7  UNL     1       0.011   1.770  -0.437  1.00  0.00     0.043 C 
HETATM    3  C8  UNL     1       1.256   2.445  -0.148  1.00  0.00     0.051 C 
HETATM    4  C9  UNL     1       0.965   3.711   0.639  1.00  0.00     0.245 C 
HETATM    5  N2  UNL     1       0.308   2.775   1.570  1.00  0.00    -0.055 N 
HETATM    6  C10 UNL     1       0.154   3.309   2.851  1.00  0.00     0.274 C 
HETATM    7  C11 UNL     1       1.484   1.950   1.301  1.00  0.00     0.205 C 
HETATM    8  C12 UNL     1       1.340   0.547   1.615  1.00  0.00     0.048 C 
HETATM    9  C13 UNL     1       2.212   0.310   2.847  1.00  0.00     0.017 C 
HETATM   10  C14 UNL     1      -0.031  -0.049   1.834  1.00  0.00     0.000 C 
HETATM   11  C20 UNL     1      -1.160   0.765   1.376  1.00  0.00     0.059 C 
HETATM   12  C21 UNL     1      -1.950   0.410   0.165  1.00  0.00     0.031 C 
HETATM   13  C22 UNL     1      -2.233   1.713  -0.593  1.00  0.00     0.053 C 
HETATM   14  C24 UNL     1      -1.974   2.730   0.563  1.00  0.00     0.060 C 
HETATM   15  C25 UNL     1      -0.670   2.083   0.901  1.00  0.00     0.143 C 
ENDROOT
BRANCH   1  16
HETATM   16  C5  UNL     1      -0.987   1.261  -2.614  1.00  0.00     0.222 C 
HETATM   17  O2  UNL     1      -1.883   0.423  -2.890  1.00  0.00    -0.287 OA
BRANCH  16  18
HETATM   18  C4  UNL     1       0.128   1.344  -3.559  1.00  0.00     0.288 C 
HETATM   19  N1  UNL     1       0.194   0.510  -4.704  1.00  0.00    -0.351 N 
ATOM     20  H1  UNL     1      -0.558  -0.161  -4.863  1.00  0.00     0.163 HD
HETATM   21  O1  UNL     1       1.049   2.149  -3.382  1.00  0.00    -0.264 OA
BRANCH  19  22
HETATM   22  C3  UNL     1       1.268   0.568  -5.645  1.00  0.00     0.149 C 
BRANCH  22  23
HETATM   23  C2  UNL     1       1.315   1.938  -6.225  1.00  0.00    -0.018 C 
HETATM   24  C1  UNL     1       2.353   2.729  -6.127  1.00  0.00     0.008 C 
ENDBRANCH  22  23
ENDBRANCH  19  22
ENDBRANCH  16  18
ENDBRANCH   1  16
BRANCH  13  25
HETATM   25  C23 UNL     1      -3.516   1.879  -1.168  1.00  0.00     0.240 C 
HETATM   26  N4  UNL     1      -4.671   1.386  -0.504  1.00  0.00    -0.061 NA
HETATM   27  O4  UNL     1      -3.692   2.456  -2.265  1.00  0.00    -0.276 OA
ENDBRANCH  13  25
BRANCH  10  28
HETATM   28  C15 UNL     1      -0.087  -1.503   1.611  1.00  0.00     0.245 C 
HETATM   29  O3  UNL     1      -0.495  -2.270   2.557  1.00  0.00    -0.268 OA
HETATM   30  N3  UNL     1       0.278  -2.159   0.416  1.00  0.00    -0.349 N 
ATOM     31  H3  UNL     1       0.608  -1.587  -0.361  1.00  0.00     0.163 HD
BRANCH  30  32
HETATM   32  C16 UNL     1       0.214  -3.576   0.225  1.00  0.00     0.022 C 
HETATM   33  C17 UNL     1      -1.213  -4.107   0.401  1.00  0.00     0.037 C 
HETATM   34  C18 UNL     1       1.143  -4.338   1.144  1.00  0.00     0.037 C 
HETATM   35  C19 UNL     1       0.603  -3.975  -1.193  1.00  0.00     0.037 C 
ENDBRANCH  30  32
ENDBRANCH  10  28
TORSDOF 8
