REMARK  19 active torsions:
REMARK  status: ('A' for Active; 'I' for Inactive)
REMARK       I    between atoms: N1_2  and  C2_4 
REMARK    1  A    between atoms: C2_4  and  C3_6 
REMARK    2  A    between atoms: C3_6  and  C6_9 
REMARK    3  A    between atoms: C6_9  and  N2_10 
REMARK    4  A    between atoms: C6_9  and  C7_14 
REMARK       I    between atoms: C7_14  and  N3_16 
REMARK    5  A    between atoms: N3_16  and  C9_18 
REMARK    6  A    between atoms: C10_19  and  C11_20 
REMARK    7  A    between atoms: C10_19  and  C18_30 
REMARK    8  A    between atoms: C11_20  and  C12_21 
REMARK    9  A    between atoms: C12_21  and  C13_22 
REMARK   10  A    between atoms: C18_30  and  C19_31 
REMARK   11  A    between atoms: C18_30  and  N5_38 
REMARK   12  A    between atoms: C19_31  and  C20_32 
REMARK       I    between atoms: N5_38  and  C26_40 
REMARK   13  A    between atoms: C26_40  and  C27_42 
REMARK   14  A    between atoms: C27_42  and  C28_43 
REMARK       I    between atoms: C28_43  and  N6_45 
REMARK   15  A    between atoms: N6_45  and  C29_47 
REMARK   16  A    between atoms: C29_47  and  C30_48 
REMARK   17  A    between atoms: C30_48  and  C31_49 
REMARK   18  A    between atoms: C31_49  and  C32_50 
REMARK   19  A    between atoms: C32_50  and  N7_51 
ROOT
HETATM    1  C18 UNL     1      -0.496  -0.342   0.378  1.00  0.00     0.115 C 
ENDROOT
BRANCH   1   2
HETATM    2  C10 UNL     1       0.234  -0.025  -0.906  1.00  0.00    -0.042 C 
HETATM    3  C9  UNL     1       1.247  -0.944  -1.378  1.00  0.00     0.098 C 
BRANCH   3   4
HETATM    4  N3  UNL     1       2.609  -1.040  -1.135  1.00  0.00    -0.330 N 
HETATM    5  C7  UNL     1       3.056  -1.789  -0.019  1.00  0.00     0.255 C 
HETATM    6  O2  UNL     1       2.260  -2.295   0.847  1.00  0.00    -0.271 OA
HETATM    7  C8  UNL     1       3.649  -0.478  -1.992  1.00  0.00     0.158 C 
BRANCH   5   8
HETATM    8  C6  UNL     1       4.502  -2.079   0.290  1.00  0.00     0.291 C 
BRANCH   8   9
HETATM    9  C3  UNL     1       4.855  -3.523  -0.032  1.00  0.00     0.070 C 
HETATM   10  C4  UNL     1       4.009  -4.463   0.855  1.00  0.00     0.028 C 
HETATM   11  C5  UNL     1       4.594  -3.858  -1.482  1.00  0.00     0.028 C 
BRANCH   9  12
HETATM   12  C2  UNL     1       6.250  -3.840   0.292  1.00  0.00     0.227 C 
HETATM   13  N1  UNL     1       6.851  -3.902   1.554  1.00  0.00    -0.365 N 
HETATM   14  C1  UNL     1       8.249  -4.225   1.728  1.00  0.00     0.149 C 
ATOM     15  H1  UNL     1       6.283  -3.713   2.380  1.00  0.00     0.161 HD
HETATM   16  O1  UNL     1       7.021  -4.095  -0.704  1.00  0.00    -0.273 OA
ENDBRANCH   9  12
ENDBRANCH   8   9
BRANCH   8  17
HETATM   17  N2  UNL     1       4.710  -1.936   1.746  1.00  0.00    -0.065 N 
ATOM     18  H23 UNL     1       4.194  -2.618   2.303  1.00  0.00     0.275 HD
ATOM     19  H22 UNL     1       5.643  -2.209   2.055  1.00  0.00     0.275 HD
ATOM     20  H21 UNL     1       4.473  -0.968   1.962  1.00  0.00     0.275 HD
ENDBRANCH   8  17
ENDBRANCH   5   8
ENDBRANCH   3   4
BRANCH   2  21
HETATM   21  C11 UNL     1       0.394   1.437  -1.152  1.00  0.00     0.038 C 
BRANCH  21  22
HETATM   22  C12 UNL     1       1.493   2.191  -0.567  1.00  0.00     0.009 C 
BRANCH  22  23
HETATM   23  C13 UNL     1       1.389   3.665  -1.045  1.00  0.00    -0.011 C 
HETATM   24  C14 UNL     1       1.478   3.723  -2.542  1.00  0.00     0.032 C 
HETATM   25  C15 UNL     1       1.899   5.110  -2.956  1.00  0.00     0.232 C 
HETATM   26  N4  UNL     1       1.468   6.047  -1.934  1.00  0.00    -0.075 N 
HETATM   27  C16 UNL     1       2.306   5.904  -0.733  1.00  0.00     0.232 C 
ATOM     28  H42 UNL     1       1.454   7.007  -2.278  1.00  0.00     0.277 HD
ATOM     29  H41 UNL     1       0.475   5.950  -1.721  1.00  0.00     0.277 HD
HETATM   30  C17 UNL     1       2.601   4.428  -0.494  1.00  0.00     0.032 C 
ENDBRANCH  22  23
ENDBRANCH  21  22
ENDBRANCH   2  21
ENDBRANCH   1   2
BRANCH   1  31
HETATM   31  C19 UNL     1      -1.224  -1.671   0.285  1.00  0.00     0.034 C 
BRANCH  31  32
HETATM   32  C20 UNL     1      -1.944  -2.067   1.543  1.00  0.00    -0.012 C 
HETATM   33  C21 UNL     1      -2.622  -3.413   1.218  1.00  0.00     0.005 C 
HETATM   34  C22 UNL     1      -1.790  -4.572   1.662  1.00  0.00     0.000 C 
HETATM   35  C23 UNL     1      -1.648  -4.606   3.165  1.00  0.00     0.000 C 
HETATM   36  C24 UNL     1      -1.744  -3.189   3.687  1.00  0.00     0.000 C 
HETATM   37  C25 UNL     1      -0.979  -2.309   2.696  1.00  0.00     0.005 C 
ENDBRANCH  31  32
ENDBRANCH   1  31
BRANCH   1  38
HETATM   38  N5  UNL     1      -1.455   0.686   0.714  1.00  0.00    -0.350 N 
HETATM   39  C26 UNL     1      -2.771   0.861   0.331  1.00  0.00     0.262 C 
HETATM   40  O3  UNL     1      -3.319   0.076  -0.468  1.00  0.00    -0.270 OA
ATOM     41  H5  UNL     1      -1.099   1.406   1.342  1.00  0.00     0.163 HD
BRANCH  39  42
HETATM   42  C27 UNL     1      -3.604   1.961   0.840  1.00  0.00     0.221 C 
HETATM   43  C33 UNL     1      -3.552   2.156   2.317  1.00  0.00     0.058 C 
HETATM   44  C34 UNL     1      -4.317   1.184   3.131  1.00  0.00     0.006 C 
HETATM   45  C35 UNL     1      -5.449   0.592   2.307  1.00  0.00     0.026 C 
HETATM   46  C36 UNL     1      -5.851   1.687   1.323  1.00  0.00     0.170 C 
HETATM   47  O5  UNL     1      -4.888   1.784   0.337  1.00  0.00    -0.361 OA
BRANCH  42  48
HETATM   48  C28 UNL     1      -3.141   3.248   0.244  1.00  0.00     0.262 C 
HETATM   49  O4  UNL     1      -2.041   3.684   0.652  1.00  0.00    -0.270 OA
HETATM   50  N6  UNL     1      -3.859   3.960  -0.719  1.00  0.00    -0.358 N 
ATOM     51  H6  UNL     1      -4.757   3.607  -1.049  1.00  0.00     0.162 HD
BRANCH  50  52
HETATM   52  C29 UNL     1      -3.330   5.198  -1.249  1.00  0.00     0.122 C 
BRANCH  52  53
HETATM   53  C30 UNL     1      -4.221   5.832  -2.254  1.00  0.00     0.021 C 
BRANCH  53  54
HETATM   54  C31 UNL     1      -4.568   5.033  -3.453  1.00  0.00     0.029 C 
BRANCH  54  55
HETATM   55  C32 UNL     1      -3.455   4.595  -4.333  1.00  0.00     0.229 C 
BRANCH  55  56
HETATM   56  N7  UNL     1      -2.473   3.739  -3.742  1.00  0.00    -0.079 N 
ATOM     57  H73 UNL     1      -2.095   4.179  -2.903  1.00  0.00     0.274 HD
ATOM     58  H72 UNL     1      -2.930   2.923  -3.334  1.00  0.00     0.274 HD
ATOM     59  H71 UNL     1      -1.708   3.438  -4.346  1.00  0.00     0.274 HD
ENDBRANCH  55  56
ENDBRANCH  54  55
ENDBRANCH  53  54
ENDBRANCH  52  53
ENDBRANCH  50  52
ENDBRANCH  42  48
ENDBRANCH  39  42
ENDBRANCH   1  38
TORSDOF 19
