REMARK  9 active torsions:
REMARK  status: ('A' for Active; 'I' for Inactive)
REMARK    1  A    between atoms: C2_2  and  C3_3 
REMARK    2  A    between atoms: C2_2  and  C28_36 
REMARK    3  A    between atoms: C4_4  and  C5_5 
REMARK    4  A    between atoms: C5_5  and  N1_6 
REMARK    5  A    between atoms: C13_15  and  N3_16 
REMARK    6  A    between atoms: N3_16  and  C14_19 
REMARK    7  A    between atoms: C14_19  and  N4_20 
REMARK    8  A    between atoms: C25_31  and  O1_32 
REMARK    9  A    between atoms: C28_36  and  O2_37 
ROOT
HETATM    1  N1  UNL     1       0.476   0.302   0.596  1.00  0.00    -0.027 N 
HETATM    2  C6  UNL     1       1.827  -0.136   0.895  1.00  0.00     0.281 C 
HETATM    3  C7  UNL     1       0.085   0.768  -0.670  1.00  0.00     0.211 C 
HETATM    4  C8  UNL     1       0.556   0.174  -1.963  1.00  0.00     0.047 C 
HETATM    5  C9  UNL     1      -0.022  -1.085  -2.426  1.00  0.00     0.059 C 
HETATM    6  C10 UNL     1      -1.367  -1.612  -2.455  1.00  0.00     0.066 C 
HETATM    7  N2  UNL     1      -1.934  -1.608  -1.249  1.00  0.00    -0.380 N 
HETATM    8  C11 UNL     1      -3.293  -2.133  -1.109  1.00  0.00     0.150 C 
HETATM    9  C12 UNL     1      -1.011  -1.010  -0.499  1.00  0.00     0.122 C 
HETATM   10  C13 UNL     1       0.105  -1.825  -1.097  1.00  0.00     0.232 C 
HETATM   11  C19 UNL     1      -0.497  -0.743   0.833  1.00  0.00     0.143 C 
HETATM   12  C20 UNL     1      -1.314  -0.819   2.022  1.00  0.00     0.019 C 
HETATM   13  C21 UNL     1      -2.210   0.224   2.488  1.00  0.00    -0.018 A 
HETATM   14  C22 UNL     1      -2.029   0.786   3.911  1.00  0.00     0.020 C 
HETATM   15  C23 UNL     1      -3.725   0.168   2.190  1.00  0.00     0.021 A 
HETATM   16  C24 UNL     1      -2.724   1.041   1.404  1.00  0.00     0.028 A 
HETATM   17  C25 UNL     1      -2.459   0.814   0.029  1.00  0.00     0.136 C 
HETATM   18  C26 UNL     1      -1.354   0.392  -0.798  1.00  0.00     0.045 C 
HETATM   19  C27 UNL     1      -1.732   1.028  -2.063  1.00  0.00     0.023 C 
ENDROOT
BRANCH   1  20
HETATM   20  C5  UNL     1       0.495   1.520   1.377  1.00  0.00     0.337 C 
BRANCH  20  21
HETATM   21  C4  UNL     1       1.789   2.182   0.933  1.00  0.00    -0.078 C 
HETATM   22  C3  UNL     1       2.849   2.696   0.583  1.00  0.00    -0.098 C 
BRANCH  22  23
HETATM   23  C2  UNL     1       4.104   3.277   0.176  1.00  0.00     0.084 C 
HETATM   24  C1  UNL     1       4.313   3.181  -1.339  1.00  0.00     0.025 C 
BRANCH  23  25
HETATM   25  C28 UNL     1       5.293   2.561   0.800  1.00  0.00     0.180 C 
BRANCH  25  26
HETATM   26  O2  UNL     1       5.244   2.564   2.184  1.00  0.00    -0.400 OA
ATOM     27  H2  UNL     1       5.986   2.117   2.574  1.00  0.00     0.209 HD
ENDBRANCH  25  26
ENDBRANCH  23  25
ENDBRANCH  22  23
ENDBRANCH  20  21
ENDBRANCH   1  20
BRANCH  17  28
HETATM   28  O1  UNL     1      -3.091   2.043  -0.511  1.00  0.00    -0.394 OA
ATOM     29  H1  UNL     1      -2.914   1.891  -1.432  1.00  0.00     0.210 HD
ENDBRANCH  17  28
BRANCH  10  30
HETATM   30  N3  UNL     1      -0.152  -3.226  -1.191  1.00  0.00    -0.043 N 
ATOM     31  H32 UNL     1      -0.230  -3.639  -0.262  1.00  0.00     0.279 HD
ATOM     32  H31 UNL     1      -1.097  -3.395  -1.535  1.00  0.00     0.279 HD
BRANCH  30  33
HETATM   33  C14 UNL     1       0.810  -3.944  -1.984  1.00  0.00     0.474 C 
BRANCH  33  34
HETATM   34  N4  UNL     1       2.139  -4.010  -1.509  1.00  0.00    -0.024 N 
HETATM   35  C15 UNL     1       3.054  -3.242  -2.324  1.00  0.00     0.281 C 
HETATM   36  C16 UNL     1       2.657  -5.365  -1.430  1.00  0.00     0.202 A 
HETATM   37  C17 UNL     1       2.876  -5.350  -0.120  1.00  0.00     0.026 A 
HETATM   38  C18 UNL     1       2.368  -3.976  -0.095  1.00  0.00     0.273 A 
ENDBRANCH  33  34
ENDBRANCH  30  33
ENDBRANCH  10  30
TORSDOF 9
