REMARK  15 active torsions:
REMARK  status: ('A' for Active; 'I' for Inactive)
REMARK    1  A    between atoms: C2_2  and  C3_3 
REMARK    2  A    between atoms: C4_4  and  C5_5 
REMARK    3  A    between atoms: C5_5  and  O1_6 
REMARK    4  A    between atoms: C5_5  and  C22_31 
REMARK    5  A    between atoms: O1_6  and  C6_7 
REMARK    6  A    between atoms: C6_7  and  C7_8 
REMARK    7  A    between atoms: C7_8  and  O3_10 
REMARK    8  A    between atoms: O3_10  and  C8_11 
REMARK    9  A    between atoms: C16_20  and  O5_21 
REMARK   10  A    between atoms: C25_34  and  C26_35 
REMARK   11  A    between atoms: C26_35  and  O7_36 
REMARK   12  A    between atoms: O7_36  and  C27_37 
REMARK   13  A    between atoms: C27_37  and  C28_39 
REMARK   14  A    between atoms: C28_39  and  C29_40 
REMARK   15  A    between atoms: C29_40  and  C30_41 
ROOT
HETATM    1  C7  UNL     1       3.104  -1.389  -1.601  1.00  0.00     0.283 C 
HETATM    2  O2  UNL     1       3.943  -2.289  -1.839  1.00  0.00    -0.263 OA
ENDROOT
BRANCH   1   3
HETATM    3  C6  UNL     1       1.995  -1.076  -2.546  1.00  0.00     0.279 C 
BRANCH   3   4
HETATM    4  O1  UNL     1       1.238  -0.042  -2.054  1.00  0.00    -0.372 OA
BRANCH   4   5
HETATM    5  C5  UNL     1       0.185   0.341  -2.834  1.00  0.00     0.148 C 
BRANCH   5   6
HETATM    6  C4  UNL     1      -1.073   0.256  -1.998  1.00  0.00     0.006 C 
HETATM    7  C3  UNL     1      -1.990  -0.611  -2.280  1.00  0.00     0.005 C 
BRANCH   7   8
HETATM    8  C2  UNL     1      -3.263  -0.812  -1.563  1.00  0.00    -0.064 C 
HETATM    9  C1  UNL     1      -3.611   0.021  -0.394  1.00  0.00     0.048 C 
HETATM   10  C25 UNL     1      -4.052  -1.745  -2.013  1.00  0.00     0.006 C 
BRANCH  10  11
HETATM   11  C26 UNL     1      -5.354  -2.130  -1.488  1.00  0.00     0.206 C 
BRANCH  11  12
HETATM   12  O7  UNL     1      -5.729  -1.369  -0.381  1.00  0.00    -0.318 OA
BRANCH  12  13
HETATM   13  C27 UNL     1      -6.929  -1.555   0.286  1.00  0.00     0.259 C 
HETATM   14  O8  UNL     1      -7.716  -2.452  -0.126  1.00  0.00    -0.265 OA
BRANCH  13  15
HETATM   15  C28 UNL     1      -7.316  -0.749   1.447  1.00  0.00     0.112 C 
BRANCH  15  16
HETATM   16  C29 UNL     1      -8.039   0.510   1.196  1.00  0.00     0.018 C 
BRANCH  16  17
HETATM   17  C30 UNL     1      -9.337   0.478   0.502  1.00  0.00    -0.051 C 
HETATM   18  C31 UNL     1     -10.399  -0.344   1.186  1.00  0.00     0.014 C 
HETATM   19  C32 UNL     1      -9.886   1.930   0.583  1.00  0.00     0.014 C 
HETATM   20  C33 UNL     1      -9.219   0.192  -0.969  1.00  0.00     0.014 C 
ENDBRANCH  16  17
ENDBRANCH  15  16
ENDBRANCH  13  15
ENDBRANCH  12  13
ENDBRANCH  11  12
ENDBRANCH  10  11
ENDBRANCH   7   8
ENDBRANCH   5   6
BRANCH   5  21
HETATM   21  C22 UNL     1       0.310   1.841  -3.148  1.00  0.00     0.010 C 
HETATM   22  C23 UNL     1       0.423   2.592  -1.850  1.00  0.00     0.012 C 
HETATM   23  C24 UNL     1       1.496   2.114  -4.038  1.00  0.00     0.012 C 
ENDBRANCH   5  21
ENDBRANCH   4   5
ENDBRANCH   3   4
ENDBRANCH   1   3
BRANCH   1  24
HETATM   24  O3  UNL     1       3.221  -0.683  -0.443  1.00  0.00    -0.313 OA
BRANCH  24  25
HETATM   25  C8  UNL     1       4.237  -0.887   0.539  1.00  0.00     0.148 C 
HETATM   26  C9  UNL     1       3.441  -1.295   1.769  1.00  0.00     0.112 C 
HETATM   27  C10 UNL     1       4.092  -0.602   2.864  1.00  0.00     0.139 C 
HETATM   28  O4  UNL     1       4.020  -0.849   4.052  1.00  0.00    -0.297 OA
HETATM   29  C11 UNL     1       4.957   0.570   2.380  1.00  0.00     0.036 C 
HETATM   30  C12 UNL     1       4.265   1.739   2.964  1.00  0.00     0.025 C 
HETATM   31  C13 UNL     1       6.275   0.242   2.856  1.00  0.00     0.059 C 
HETATM   32  C20 UNL     1       4.942   0.381   0.908  1.00  0.00     0.006 C 
HETATM   33  C14 UNL     1       7.540   0.927   2.649  1.00  0.00    -0.003 C 
HETATM   34  C18 UNL     1       6.782  -0.699   1.661  1.00  0.00     0.101 C 
HETATM   35  C15 UNL     1       7.983   1.759   1.697  1.00  0.00     0.072 C 
HETATM   36  C19 UNL     1       8.421  -0.182   3.247  1.00  0.00     0.244 C 
HETATM   37  C16 UNL     1       6.800   1.799   0.717  1.00  0.00     0.129 C 
HETATM   38  C17 UNL     1       6.516   0.258   0.675  1.00  0.00     0.050 C 
HETATM   39  N1  UNL     1       7.804  -1.293   2.477  1.00  0.00    -0.352 N 
HETATM   40  O6  UNL     1       9.290  -0.025   4.057  1.00  0.00    -0.268 OA
ATOM     41  H1  UNL     1       8.056  -2.280   2.519  1.00  0.00     0.163 HD
HETATM   42  C21 UNL     1       4.334   1.482   0.165  1.00  0.00     0.020 C 
BRANCH  37  43
HETATM   43  O5  UNL     1       7.181   2.265  -0.529  1.00  0.00    -0.395 OA
ATOM     44  H5  UNL     1       6.450   2.290  -1.135  1.00  0.00     0.210 HD
ENDBRANCH  37  43
ENDBRANCH  24  25
ENDBRANCH   1  24
TORSDOF 15
