REMARK  2 active torsions:
REMARK  status: ('A' for Active; 'I' for Inactive)
REMARK    1  A    between atoms: C10_14  and  O1_15 
REMARK    2  A    between atoms: C10_14  and  C11_17 
ROOT
HETATM    1  C1  UNL     1       0.764   2.273   1.694  1.00  0.00     0.020 C 
HETATM    2  C2  UNL     1      -0.356   1.921   0.734  1.00  0.00     0.011 A 
HETATM    3  C3  UNL     1      -1.349   2.919   1.068  1.00  0.00     0.058 A 
HETATM    4  C4  UNL     1      -1.669   1.494   0.982  1.00  0.00     0.113 A 
HETATM    5  F1  UNL     1      -2.996   1.626   0.784  1.00  0.00    -0.242 F 
HETATM    6  C5  UNL     1      -1.524   0.335   1.852  1.00  0.00     0.051 C 
HETATM    7  C6  UNL     1      -1.142  -0.855   1.036  1.00  0.00     0.030 C 
HETATM    8  C7  UNL     1       0.333  -1.027   1.181  1.00  0.00     0.201 C 
HETATM    9  N1  UNL     1       0.875  -2.391   1.022  1.00  0.00    -0.063 N 
ATOM     10  H11 UNL     1       0.445  -3.227   1.418  1.00  0.00     0.278 HD
ATOM     11  H12 UNL     1       1.728  -2.723   1.472  1.00  0.00     0.278 HD
HETATM   12  C8  UNL     1       0.784  -2.007  -0.409  1.00  0.00     0.232 C 
HETATM   13  C9  UNL     1       1.198  -0.630   0.136  1.00  0.00     0.095 C 
HETATM   14  C10 UNL     1       1.141   0.494  -0.782  1.00  0.00     0.159 C 
HETATM   15  C12 UNL     1       0.117   1.550  -0.634  1.00  0.00     0.041 C 
HETATM   16  C13 UNL     1       0.536   2.891  -1.234  1.00  0.00     0.025 C 
HETATM   17  C14 UNL     1      -1.028   1.159  -1.568  1.00  0.00    -0.002 C 
HETATM   18 BR1  UNL     1      -2.149   2.670  -2.104  1.00  0.00    -0.055 Br
HETATM   19  C15 UNL     1      -1.708  -0.099  -1.407  1.00  0.00    -0.004 C 
HETATM   20  C16 UNL     1      -1.548  -1.057  -0.334  1.00  0.00     0.053 C 
HETATM   21  C17 UNL     1      -0.615  -2.216  -0.781  1.00  0.00     0.161 C 
HETATM   22  C18 UNL     1      -1.112  -3.504  -0.086  1.00  0.00     0.043 C 
HETATM   23  C19 UNL     1      -0.550  -4.629  -0.912  1.00  0.00     0.030 C 
HETATM   24  C20 UNL     1      -0.297  -3.939  -2.238  1.00  0.00     0.233 C 
HETATM   25  N2  UNL     1      -0.875  -2.645  -2.125  1.00  0.00    -0.064 N 
ATOM     26  H21 UNL     1      -0.547  -1.988  -2.833  1.00  0.00     0.278 HD
ATOM     27  H22 UNL     1      -1.863  -2.616  -2.379  1.00  0.00     0.278 HD
ENDROOT
BRANCH  14  28
HETATM   28  O1  UNL     1       0.861  -0.195  -2.026  1.00  0.00    -0.379 OA
ATOM     29  H1  UNL     1       0.824   0.540  -2.626  1.00  0.00     0.211 HD
ENDBRANCH  14  28
BRANCH  14  30
HETATM   30  C11 UNL     1       2.559   0.878  -1.144  1.00  0.00     0.279 C 
HETATM   31  F2  UNL     1       2.731   1.889  -2.014  1.00  0.00    -0.174 F 
HETATM   32  F3  UNL     1       3.452   0.950  -0.113  1.00  0.00    -0.174 F 
ENDBRANCH  14  30
TORSDOF 2
