REMARK  2 active torsions:
REMARK  status: ('A' for Active; 'I' for Inactive)
REMARK    1  A    between atoms: C2_2  and  N1_3 
REMARK       I    between atoms: N1_3  and  C3_5 
REMARK    2  A    between atoms: C3_5  and  C4_7 
ROOT
HETATM    1  C4  UNL     1       1.274  -0.706   0.906  1.00  0.00     0.087 C 
HETATM    2  C5  UNL     1       0.181  -0.396   1.860  1.00  0.00     0.004 C 
HETATM    3  C6  UNL     1      -1.242  -0.574   1.460  1.00  0.00     0.011 C 
HETATM    4  C7  UNL     1      -0.836  -2.015   1.097  1.00  0.00    -0.004 A 
HETATM    5  C8  UNL     1       0.164  -1.881   2.137  1.00  0.00     0.000 A 
HETATM    6  C9  UNL     1       0.599  -2.089   0.779  1.00  0.00     0.008 A 
ENDROOT
BRANCH   1   7
HETATM    7  C3  UNL     1       1.433   0.017  -0.331  1.00  0.00     0.222 C 
HETATM    8  N1  UNL     1       0.508   0.061  -1.404  1.00  0.00    -0.361 N 
ATOM      9  H1  UNL     1      -0.360  -0.466  -1.306  1.00  0.00     0.162 HD
HETATM   10  O1  UNL     1       2.502   0.692  -0.507  1.00  0.00    -0.273 OA
BRANCH   8  11
HETATM   11  C2  UNL     1       0.710   0.794  -2.613  1.00  0.00     0.118 C 
HETATM   12  C1  UNL     1       0.883   2.275  -2.392  1.00  0.00     0.026 C 
ENDBRANCH   8  11
ENDBRANCH   1   7
TORSDOF 2
