REMARK  11 active torsions:
REMARK  status: ('A' for Active; 'I' for Inactive)
REMARK    1  A    between atoms: C2_2  and  C3_3 
REMARK    2  A    between atoms: C3_3  and  C4_4 
REMARK    3  A    between atoms: C4_4  and  O1_5 
REMARK    4  A    between atoms: O1_5  and  C5_6 
REMARK    5  A    between atoms: C9_11  and  O2_12 
REMARK    6  A    between atoms: O2_12  and  C10_13 
REMARK    7  A    between atoms: C10_13  and  C11_14 
REMARK    8  A    between atoms: C11_14  and  O3_15 
REMARK    9  A    between atoms: O3_15  and  C12_16 
REMARK   10  A    between atoms: C12_16  and  N2_17 
REMARK   11  A    between atoms: C14_21  and  C15_22 
ROOT
HETATM    1  C5  UNL     1       0.253  -0.064  -0.492  1.00  0.00     0.147 A 
HETATM    2  C6  UNL     1      -0.665  -0.946  -1.014  1.00  0.00     0.075 A 
HETATM    3  C7  UNL     1      -0.787  -0.896  -2.417  1.00  0.00    -0.006 A 
HETATM    4  C8  UNL     1      -0.023  -0.013  -3.172  1.00  0.00     0.024 A 
HETATM    5  N1  UNL     1       0.845   0.810  -2.578  1.00  0.00    -0.328 N 
HETATM    6  C9  UNL     1       1.006   0.809  -1.256  1.00  0.00     0.181 A 
HETATM    7  C17 UNL     1       1.310   1.444  -3.818  1.00  0.00     0.137 A 
HETATM    8  C18 UNL     1       0.350   0.536  -4.513  1.00  0.00     0.078 A 
HETATM    9  C19 UNL     1      -1.678  -1.773  -3.193  1.00  0.00     0.044 C 
HETATM   10  C20 UNL     1      -1.914  -3.013  -2.345  1.00  0.00     0.023 C 
HETATM   11  C21 UNL     1      -3.090  -2.827  -1.598  1.00  0.00     0.038 A 
HETATM   12  C22 UNL     1      -4.339  -3.028  -1.700  1.00  0.00    -0.007 A 
HETATM   13  C23 UNL     1      -4.202  -2.299  -0.466  1.00  0.00     0.145 A 
HETATM   14  C24 UNL     1      -2.822  -1.802   0.112  1.00  0.00     0.106 A 
HETATM   15  C25 UNL     1      -3.187  -1.521   0.699  1.00  0.00     0.017 A 
HETATM   16  C26 UNL     1      -3.517  -2.246  -0.447  1.00  0.00     0.105 A 
HETATM   17  N5  UNL     1      -4.624  -3.392   0.408  1.00  0.00    -0.279 N 
HETATM   18  C27 UNL     1      -4.734  -4.545   0.822  1.00  0.00     0.135 C 
HETATM   19  S1  UNL     1      -5.669  -2.074   0.449  1.00  0.00     0.249 S 
HETATM   20  O5  UNL     1      -6.857  -2.706   0.398  1.00  0.00    -0.204 OA
HETATM   21  O6  UNL     1      -5.404  -0.807   1.052  1.00  0.00    -0.204 OA
HETATM   22  N6  UNL     1      -1.397  -1.851  -0.187  1.00  0.00    -0.370 N 
ATOM     23  H6  UNL     1      -0.867  -2.611   0.239  1.00  0.00     0.161 HD
ENDROOT
BRANCH   6  24
HETATM   24  O2  UNL     1       1.842   1.590  -0.551  1.00  0.00    -0.331 OA
BRANCH  24  25
HETATM   25  C10 UNL     1       2.800   2.508  -0.796  1.00  0.00     0.203 C 
BRANCH  25  26
HETATM   26  C11 UNL     1       3.388   3.046   0.540  1.00  0.00     0.196 C 
BRANCH  26  27
HETATM   27  O3  UNL     1       2.350   3.638   1.264  1.00  0.00    -0.370 OA
BRANCH  27  28
HETATM   28  C12 UNL     1       2.808   3.997   2.506  1.00  0.00     0.298 C 
BRANCH  28  29
HETATM   29  N2  UNL     1       1.781   4.682   3.278  1.00  0.00    -0.329 N 
HETATM   30  C13 UNL     1       1.655   6.022   3.294  1.00  0.00     0.185 A 
HETATM   31  N3  UNL     1       0.601   6.330   4.064  1.00  0.00    -0.347 N 
HETATM   32  C14 UNL     1       0.030   5.209   4.556  1.00  0.00     0.114 A 
ATOM     33  H3  UNL     1       0.276   7.278   4.252  1.00  0.00     0.167 HD
HETATM   34  C16 UNL     1       0.812   4.169   4.034  1.00  0.00     0.129 A 
BRANCH  32  35
HETATM   35  C15 UNL     1      -1.123   5.163   5.419  1.00  0.00     0.282 C 
HETATM   36  N4  UNL     1      -1.723   3.978   5.848  1.00  0.00    -0.056 NA
HETATM   37  O4  UNL     1      -1.627   6.248   5.814  1.00  0.00    -0.269 OA
ENDBRANCH  32  35
ENDBRANCH  28  29
ENDBRANCH  27  28
ENDBRANCH  26  27
ENDBRANCH  25  26
ENDBRANCH  24  25
ENDBRANCH   6  24
BRANCH   1  38
HETATM   38  O1  UNL     1       0.446  -0.048   0.910  1.00  0.00    -0.345 OA
BRANCH  38  39
HETATM   39  C4  UNL     1       1.418  -0.841   1.487  1.00  0.00     0.176 C 
BRANCH  39  40
HETATM   40  C3  UNL     1       1.530  -0.637   2.955  1.00  0.00     0.026 C 
BRANCH  40  41
HETATM   41  C2  UNL     1       0.341  -0.895   3.802  1.00  0.00    -0.002 C 
HETATM   42  C1  UNL     1      -0.854  -0.060   3.590  1.00  0.00     0.005 C 
ENDBRANCH  40  41
ENDBRANCH  39  40
ENDBRANCH  38  39
ENDBRANCH   1  38
TORSDOF 11
