REMARK  9 active torsions:
REMARK  status: ('A' for Active; 'I' for Inactive)
REMARK    1  A    between atoms: C3_3  and  O1_4 
REMARK    2  A    between atoms: C7_11  and  C8_12 
REMARK    3  A    between atoms: C11_16  and  O5_17 
REMARK    4  A    between atoms: C11_16  and  C12_19 
REMARK    5  A    between atoms: C15_22  and  O6_23 
REMARK    6  A    between atoms: C16_25  and  O7_26 
REMARK    7  A    between atoms: C17_28  and  C18_29 
REMARK    8  A    between atoms: C22_33  and  O8_34 
REMARK    9  A    between atoms: C23_36  and  O9_37 
ROOT
HETATM    1  C1  UNL     1       3.580   3.774   0.772  1.00  0.00     0.020 C 
HETATM    2  C2  UNL     1       3.383   2.818  -0.122  1.00  0.00    -0.024 C 
HETATM    3  C3  UNL     1       4.409   2.081  -0.912  1.00  0.00     0.290 C 
HETATM    4  O2  UNL     1       3.916   0.813  -0.961  1.00  0.00    -0.327 OA
HETATM    5  C4  UNL     1       2.502   0.925  -1.106  1.00  0.00     0.275 C 
HETATM    6  O3  UNL     1       2.034  -0.259  -0.651  1.00  0.00    -0.346 OA
HETATM    7  C5  UNL     1       0.741  -0.613  -1.140  1.00  0.00     0.098 C 
HETATM    8  C6  UNL     1       0.920  -0.792  -2.640  1.00  0.00     0.050 C 
HETATM    9  C7  UNL     1       0.378  -1.900  -0.573  1.00  0.00     0.188 C 
HETATM   10  O4  UNL     1      -0.172  -2.067   0.592  1.00  0.00    -0.339 OA
HETATM   11  C11 UNL     1      -1.221  -1.595   1.209  1.00  0.00     0.200 C 
HETATM   12  C15 UNL     1      -1.859  -0.328   0.902  1.00  0.00     0.151 C 
HETATM   13  C16 UNL     1      -2.317  -0.317  -0.525  1.00  0.00     0.169 C 
HETATM   14  C17 UNL     1      -1.402   0.820  -0.747  1.00  0.00     0.014 C 
HETATM   15  C21 UNL     1       0.011   0.612  -0.891  1.00  0.00     0.073 C 
HETATM   16  C22 UNL     1       0.268   1.079   0.515  1.00  0.00     0.103 C 
HETATM   17  C23 UNL     1       1.013   2.325   0.453  1.00  0.00     0.167 C 
HETATM   18  C24 UNL     1       2.102   2.212  -0.590  1.00  0.00     0.106 C 
HETATM   19  C25 UNL     1      -1.189   0.950   0.701  1.00  0.00     0.040 C 
HETATM   20  C26 UNL     1      -1.744   2.051   1.520  1.00  0.00     0.023 C 
ENDROOT
BRANCH  11  21
HETATM   21  O5  UNL     1      -0.919  -1.571   2.605  1.00  0.00    -0.363 OA
ATOM     22  H5  UNL     1      -1.682  -1.227   3.054  1.00  0.00     0.213 HD
ENDBRANCH  11  21
BRANCH  11  23
HETATM   23  C12 UNL     1      -2.217  -2.736   1.113  1.00  0.00     0.043 C 
HETATM   24  C13 UNL     1      -3.533  -2.594   1.737  1.00  0.00     0.015 C 
HETATM   25  C14 UNL     1      -1.560  -3.969   1.776  1.00  0.00     0.015 C 
ENDBRANCH  11  23
BRANCH  12  26
HETATM   26  O6  UNL     1      -2.931  -0.183   1.791  1.00  0.00    -0.381 OA
ATOM     27  H6  UNL     1      -3.349   0.646   1.590  1.00  0.00     0.211 HD
ENDBRANCH  12  26
BRANCH   9  28
HETATM   28  C8  UNL     1       1.674  -2.706  -0.483  1.00  0.00    -0.061 C 
HETATM   29  C9  UNL     1       2.146  -3.041   0.738  1.00  0.00     0.016 C 
HETATM   30  C10 UNL     1       2.480  -3.166  -1.613  1.00  0.00     0.045 C 
ENDBRANCH   9  28
BRANCH  13  31
HETATM   31  O7  UNL     1      -3.660   0.009  -0.666  1.00  0.00    -0.391 OA
ATOM     32  H7  UNL     1      -3.950   0.016  -1.571  1.00  0.00     0.210 HD
ENDBRANCH  13  31
BRANCH  14  33
HETATM   33  C18 UNL     1      -2.027   1.837  -1.600  1.00  0.00    -0.010 C 
HETATM   34  C19 UNL     1      -3.248   2.546  -1.242  1.00  0.00     0.010 C 
HETATM   35  C20 UNL     1      -2.362   1.120  -2.939  1.00  0.00     0.010 C 
ENDBRANCH  14  33
BRANCH  16  36
HETATM   36  O8  UNL     1       0.917   0.287   1.424  1.00  0.00    -0.386 OA
ATOM     37  H8  UNL     1       1.079   0.582   2.312  1.00  0.00     0.210 HD
ENDBRANCH  16  36
BRANCH  17  38
HETATM   38  O9  UNL     1       0.365   3.512   0.237  1.00  0.00    -0.392 OA
ATOM     39  H9  UNL     1       0.852   4.327   0.196  1.00  0.00     0.210 HD
ENDBRANCH  17  38
BRANCH   3  40
HETATM   40  O1  UNL     1       5.613   2.171  -0.230  1.00  0.00    -0.367 OA
ATOM     41  H1  UNL     1       6.267   1.701  -0.734  1.00  0.00     0.213 HD
ENDBRANCH   3  40
TORSDOF 9
