REMARK  1 active torsions:
REMARK  status: ('A' for Active; 'I' for Inactive)
REMARK    1  A    between atoms: C2_7  and  C3_8 
ROOT
HETATM    1  C3  UNL     1       0.886   1.009   0.044  1.00  0.00     0.244 A 
HETATM    2  C4  UNL     1       0.075   1.042  -0.304  1.00  0.00     0.244 A 
HETATM    3  N3  UNL     1       0.417   1.280   0.849  1.00  0.00     0.010 N 
HETATM    4  C5  UNL     1       0.490   1.614   2.221  1.00  0.00     0.208 C 
HETATM    5  C6  UNL     1       1.375   2.694   2.022  1.00  0.00     0.062 C 
HETATM    6  C7  UNL     1       0.788   2.477   0.737  1.00  0.00     0.263 C 
HETATM    7  N4  UNL     1       0.182   3.512   0.360  1.00  0.00    -0.384 N 
ATOM      8  H4  UNL     1       0.219   4.370   0.910  1.00  0.00     0.156 HD
HETATM    9  C8  UNL     1      -0.577   3.453  -0.889  1.00  0.00     0.116 C 
HETATM   10  C9  UNL     1      -1.734   2.572  -0.655  1.00  0.00     0.021 C 
HETATM   11  C10 UNL     1      -1.287   1.137  -0.757  1.00  0.00     0.038 C 
ENDROOT
BRANCH   1  12
HETATM   12  C2  UNL     1       2.008   0.131   0.344  1.00  0.00     0.153 C 
HETATM   13  N2  UNL     1       1.709  -1.085   1.048  1.00  0.00    -0.347 N 
HETATM   14  C1  UNL     1       2.895  -1.855   0.798  1.00  0.00     0.213 C 
ATOM     15  H2  UNL     1       0.877  -1.335   1.582  1.00  0.00     0.163 HD
HETATM   16  N1  UNL     1       3.349  -2.790   1.558  1.00  0.00    -0.365 N 
HETATM   17  O1  UNL     1       3.411  -1.375  -0.400  1.00  0.00    -0.320 OA
ATOM     18  H12 UNL     1       2.970  -3.142   2.437  1.00  0.00     0.159 HD
ATOM     19  H11 UNL     1       4.191  -3.337   1.380  1.00  0.00     0.159 HD
HETATM   20  C11 UNL     1       2.595  -0.361  -0.940  1.00  0.00     0.206 C 
ENDBRANCH   1  12
TORSDOF 1
