REMARK  18 active torsions:
REMARK  status: ('A' for Active; 'I' for Inactive)
REMARK    1  A    between atoms: C2_2  and  C3_3 
REMARK    2  A    between atoms: C3_3  and  C4_4 
REMARK    3  A    between atoms: C4_4  and  C5_5 
REMARK    4  A    between atoms: C5_5  and  C6_6 
REMARK    5  A    between atoms: C6_6  and  C7_7 
REMARK    6  A    between atoms: C7_7  and  C8_8 
REMARK    7  A    between atoms: C10_10  and  O1_11 
REMARK    8  A    between atoms: C12_14  and  O2_15 
REMARK    9  A    between atoms: C16_21  and  C17_22 
REMARK   10  A    between atoms: C17_22  and  O4_23 
REMARK   11  A    between atoms: C17_22  and  C18_25 
REMARK   12  A    between atoms: C17_22  and  C19_28 
REMARK   13  A    between atoms: C18_25  and  O5_26 
REMARK   14  A    between atoms: C19_28  and  C20_29 
REMARK   15  A    between atoms: C20_29  and  O6_30 
REMARK   16  A    between atoms: C25_38  and  C26_39 
REMARK   17  A    between atoms: C26_39  and  O9_42 
REMARK   18  A    between atoms: C29_44  and  C30_45 
ROOT
HETATM    1  C30 UNL     1       1.874  -1.787   0.485  1.00  0.00     0.143 C 
HETATM    2  C31 UNL     1       3.142  -2.267  -0.009  1.00  0.00     0.060 C 
HETATM    3  N1  UNL     1       4.149  -2.673  -0.391  1.00  0.00    -0.197 NA
ENDROOT
BRANCH   1   4
HETATM    4  C29 UNL     1       1.627  -0.333   0.557  1.00  0.00     0.053 C 
HETATM    5  C22 UNL     1       0.236  -0.121   1.114  1.00  0.00     0.101 C 
HETATM    6  C21 UNL     1      -0.687   0.876   0.635  1.00  0.00     0.189 C 
HETATM    7  C23 UNL     1      -0.441  -1.442   1.520  1.00  0.00     0.050 C 
HETATM    8  O8  UNL     1       0.422   0.452   2.409  1.00  0.00    -0.370 OA
HETATM    9  C15 UNL     1      -0.509   2.311   1.080  1.00  0.00     0.163 C 
HETATM   10  O7  UNL     1      -1.941   0.638   1.266  1.00  0.00    -0.347 OA
HETATM   11  C14 UNL     1       1.021   2.538   1.293  1.00  0.00     0.051 C 
HETATM   12  O3  UNL     1      -1.145   2.435   2.299  1.00  0.00    -0.350 OA
HETATM   13  C13 UNL     1       1.478   3.032   0.010  1.00  0.00     0.071 C 
HETATM   14  C24 UNL     1       1.407   1.438   2.077  1.00  0.00     0.137 C 
HETATM   15  C12 UNL     1       2.651   2.543  -0.718  1.00  0.00     0.139 C 
HETATM   16  C11 UNL     1       2.612   2.937  -2.187  1.00  0.00     0.093 C 
HETATM   17  N2  UNL     1       2.963   1.175  -0.733  1.00  0.00    -0.340 N 
HETATM   18  C10 UNL     1       2.145   1.928  -3.138  1.00  0.00     0.123 C 
HETATM   19  C9  UNL     1       2.486   0.539  -3.105  1.00  0.00     0.042 C 
HETATM   20  C8  UNL     1       1.742  -0.386  -2.086  1.00  0.00     0.035 C 
HETATM   21  C32 UNL     1       1.869   0.303  -0.816  1.00  0.00     0.008 C 
HETATM   22  C33 UNL     1       4.291   1.051  -1.037  1.00  0.00     0.124 C 
HETATM   23  C25 UNL     1       2.406   0.375   1.634  1.00  0.00     0.067 C 
HETATM   24  C16 UNL     1      -2.048   1.374   2.384  1.00  0.00     0.297 C 
BRANCH  15  25
HETATM   25  O2  UNL     1       3.784   3.263  -0.225  1.00  0.00    -0.370 OA
ATOM     26  H2  UNL     1       3.808   3.017   0.692  1.00  0.00     0.212 HD
ENDBRANCH  15  25
BRANCH  18  27
HETATM   27  O1  UNL     1       2.585   2.406  -4.420  1.00  0.00    -0.395 OA
ATOM     28  H1  UNL     1       2.359   3.328  -4.442  1.00  0.00     0.210 HD
ENDBRANCH  18  27
BRANCH  20  29
HETATM   29  C7  UNL     1       0.466  -0.567  -2.854  1.00  0.00     0.010 C 
BRANCH  29  30
HETATM   30  C6  UNL     1      -0.644  -1.408  -2.451  1.00  0.00     0.001 C 
BRANCH  30  31
HETATM   31  C5  UNL     1      -1.752  -1.310  -3.477  1.00  0.00     0.000 C 
BRANCH  31  32
HETATM   32  C4  UNL     1      -1.415  -1.743  -4.852  1.00  0.00     0.000 C 
BRANCH  32  33
HETATM   33  C3  UNL     1      -2.599  -1.630  -5.799  1.00  0.00    -0.000 C 
BRANCH  33  34
HETATM   34  C2  UNL     1      -3.098  -0.209  -5.898  1.00  0.00    -0.005 C 
HETATM   35  C1  UNL     1      -4.273  -0.092  -6.839  1.00  0.00     0.005 C 
ENDBRANCH  33  34
ENDBRANCH  32  33
ENDBRANCH  31  32
ENDBRANCH  30  31
ENDBRANCH  29  30
ENDBRANCH  20  29
BRANCH  23  36
HETATM   36  C26 UNL     1       2.874  -0.217   2.877  1.00  0.00     0.058 C 
HETATM   37  C27 UNL     1       3.814  -1.314   3.051  1.00  0.00     0.046 C 
HETATM   38  C28 UNL     1       3.745   0.934   3.524  1.00  0.00     0.046 C 
BRANCH  36  39
HETATM   39  O9  UNL     1       1.942  -0.370   3.924  1.00  0.00    -0.390 OA
ATOM     40  H9  UNL     1       2.248  -0.757   4.736  1.00  0.00     0.210 HD
ENDBRANCH  36  39
ENDBRANCH  23  36
BRANCH  24  41
HETATM   41  C17 UNL     1      -3.408   1.890   2.719  1.00  0.00     0.130 C 
BRANCH  41  42
HETATM   42  O4  UNL     1      -3.245   2.562   3.980  1.00  0.00    -0.383 OA
ATOM     43  H4  UNL     1      -4.111   2.890   4.193  1.00  0.00     0.210 HD
ENDBRANCH  41  42
BRANCH  41  44
HETATM   44  C18 UNL     1      -3.973   2.900   1.749  1.00  0.00     0.207 C 
BRANCH  44  45
HETATM   45  O5  UNL     1      -3.114   3.975   1.679  1.00  0.00    -0.398 OA
ATOM     46  H5  UNL     1      -3.469   4.610   1.069  1.00  0.00     0.209 HD
ENDBRANCH  44  45
ENDBRANCH  41  44
BRANCH  41  47
HETATM   47  C19 UNL     1      -4.381   0.798   3.023  1.00  0.00     0.071 C 
BRANCH  47  48
HETATM   48  C20 UNL     1      -4.663  -0.189   1.950  1.00  0.00     0.167 C 
BRANCH  48  49
HETATM   49  O6  UNL     1      -5.632  -1.138   2.390  1.00  0.00    -0.401 OA
ATOM     50  H6  UNL     1      -5.812  -1.769   1.704  1.00  0.00     0.209 HD
ENDBRANCH  48  49
ENDBRANCH  47  48
ENDBRANCH  41  47
ENDBRANCH  24  41
ENDBRANCH   1   4
TORSDOF 18
