REMARK  14 active torsions:
REMARK  status: ('A' for Active; 'I' for Inactive)
REMARK    1  A    between atoms: C2_2  and  O1_4 
REMARK    2  A    between atoms: O1_4  and  C4_5 
REMARK    3  A    between atoms: C4_5  and  N1_7 
REMARK    4  A    between atoms: C4_5  and  C17_44 
REMARK       I    between atoms: N1_7  and  C6_9 
REMARK    5  A    between atoms: C6_9  and  C7_11 
REMARK    6  A    between atoms: C7_11  and  O3_12 
REMARK    7  A    between atoms: C7_11  and  C8_14 
REMARK    8  A    between atoms: C10_20  and  C11_21 
REMARK    9  A    between atoms: C14_26  and  N5_27 
REMARK   10  A    between atoms: N5_27  and  O4_28 
REMARK   11  A    between atoms: N5_27  and  O5_30 
REMARK   12  A    between atoms: N6_33  and  N7_35 
REMARK   13  A    between atoms: N8_38  and  O6_39 
REMARK   14  A    between atoms: C17_44  and  O7_46 
ROOT
HETATM    1  C8  UNL     1       1.689  -0.884   1.586  1.00  0.00     0.110 A 
HETATM    2  N2  UNL     1       2.173  -0.975   2.870  1.00  0.00    -0.296 N 
ATOM      3  H2  UNL     1       2.414  -1.881   3.273  1.00  0.00     0.187 HD
HETATM    4  N3  UNL     1       2.340   0.290   3.668  1.00  0.00    -0.283 N 
ATOM      5  H3  UNL     1       2.694   0.293   4.625  1.00  0.00     0.188 HD
HETATM    6  C9  UNL     1       1.990   1.406   3.029  1.00  0.00     0.145 A 
HETATM    7  C10 UNL     1       1.898   2.686   3.339  1.00  0.00     0.060 C 
HETATM    8  N4  UNL     1       1.397   3.608   2.267  1.00  0.00    -0.340 N 
ATOM      9  H4  UNL     1       1.416   4.591   2.539  1.00  0.00     0.167 HD
HETATM   10  C14 UNL     1       0.922   3.407   1.006  1.00  0.00     0.184 C 
HETATM   11  C15 UNL     1       0.615   2.363   0.009  1.00  0.00     0.192 C 
HETATM   12  N6  UNL     1      -0.071   2.585  -0.995  1.00  0.00    -0.287 N 
ATOM     13  H6  UNL     1      -0.397   3.549  -1.058  1.00  0.00     0.188 HD
HETATM   14  N8  UNL     1       0.950   0.865  -0.079  1.00  0.00    -0.184 N 
HETATM   15  C16 UNL     1       1.415   0.368   1.174  1.00  0.00     0.164 A 
HETATM   16  N9  UNL     1       1.584   1.220   1.865  1.00  0.00    -0.322 N 
ATOM     17  H9  UNL     1       1.336   2.104   1.420  1.00  0.00     0.169 HD
ENDROOT
BRANCH   1  18
HETATM   18  C7  UNL     1       1.378  -1.809   0.523  1.00  0.00     0.265 C 
BRANCH  18  19
HETATM   19  C6  UNL     1      -0.113  -2.144   0.365  1.00  0.00     0.255 C 
HETATM   20  N1  UNL     1      -0.663  -2.758  -0.734  1.00  0.00    -0.325 N 
ATOM     21  H1  UNL     1      -0.044  -3.006  -1.506  1.00  0.00     0.165 HD
HETATM   22  O2  UNL     1      -0.789  -1.799   1.358  1.00  0.00    -0.270 OA
BRANCH  20  23
HETATM   23  C4  UNL     1      -2.050  -3.069  -0.858  1.00  0.00     0.159 C 
HETATM   24  C5  UNL     1      -2.936  -1.860  -0.635  1.00  0.00     0.074 C 
BRANCH  23  25
HETATM   25  O1  UNL     1      -2.263  -3.450  -2.218  1.00  0.00    -0.354 OA
BRANCH  25  26
HETATM   26  C2  UNL     1      -1.880  -2.407  -3.020  1.00  0.00     0.116 C 
HETATM   27  C1  UNL     1      -3.122  -1.928  -3.781  1.00  0.00     0.039 C 
HETATM   28  C3  UNL     1      -0.891  -2.909  -4.052  1.00  0.00     0.039 C 
ENDBRANCH  25  26
ENDBRANCH  23  25
BRANCH  23  29
HETATM   29  C17 UNL     1      -2.564  -4.202  -0.023  1.00  0.00     0.169 C 
HETATM   30  C18 UNL     1      -4.086  -4.247  -0.261  1.00  0.00     0.044 C 
BRANCH  29  31
HETATM   31  O7  UNL     1      -2.428  -4.047   1.343  1.00  0.00    -0.391 OA
ATOM     32  H7  UNL     1      -2.754  -4.765   1.872  1.00  0.00     0.210 HD
ENDBRANCH  29  31
ENDBRANCH  23  29
ENDBRANCH  20  23
ENDBRANCH  18  19
BRANCH  18  33
HETATM   33  O3  UNL     1       1.545  -2.914   1.355  1.00  0.00    -0.380 OA
ATOM     34  H3  UNL     1       2.467  -2.707   1.453  1.00  0.00     0.211 HD
ENDBRANCH  18  33
ENDBRANCH   1  18
BRANCH  14  35
HETATM   35  O6  UNL     1       0.948   0.033  -0.894  1.00  0.00    -0.279 OA
ATOM     36  H6  UNL     1       1.155  -0.893  -0.948  1.00  0.00     0.245 HD
ENDBRANCH  14  35
BRANCH   7  37
HETATM   37  C11 UNL     1       2.273   2.736   4.620  1.00  0.00     0.031 C 
HETATM   38  C12 UNL     1       1.196   3.625   5.275  1.00  0.00     0.016 C 
HETATM   39  C13 UNL     1       3.493   3.584   5.003  1.00  0.00     0.016 C 
ENDBRANCH   7  37
BRANCH  10  40
HETATM   40  N5  UNL     1       0.590   4.664   0.439  1.00  0.00    -0.015 NA
BRANCH  40  41
HETATM   41  O4  UNL     1       0.431   5.602   1.362  1.00  0.00    -0.283 OA
ATOM     42  H4  UNL     1       0.209   6.444   0.982  1.00  0.00     0.240 HD
ENDBRANCH  40  41
BRANCH  40  43
HETATM   43  O5  UNL     1       1.645   5.037  -0.348  1.00  0.00    -0.283 OA
ATOM     44  H5  UNL     1       1.423   5.879  -0.728  1.00  0.00     0.240 HD
ENDBRANCH  40  43
ENDBRANCH  10  40
BRANCH  12  45
HETATM   45  N7  UNL     1      -0.462   1.843  -1.986  1.00  0.00    -0.343 N 
ATOM     46  H72 UNL     1      -0.125   0.884  -1.903  1.00  0.00     0.176 HD
ATOM     47  H71 UNL     1      -1.028   2.026  -2.814  1.00  0.00     0.176 HD
ENDBRANCH  12  45
TORSDOF 14
