REMARK  3 active torsions:
REMARK  status: ('A' for Active; 'I' for Inactive)
REMARK    1  A    between atoms: C7_7  and  C8_8 
REMARK    2  A    between atoms: C11_12  and  N1_13 
REMARK       I    between atoms: N1_13  and  C12_15 
REMARK    3  A    between atoms: C12_15  and  C13_17 
REMARK       I    between atoms: C13_17  and  N2_19 
ROOT
HETATM    1  C1  UNL     1      -1.754  -0.231  -3.676  1.00  0.00     0.012 C 
HETATM    2  C2  UNL     1      -1.868  -0.583  -2.545  1.00  0.00    -0.112 C 
HETATM    3  C3  UNL     1      -2.017  -0.988  -1.170  1.00  0.00     0.071 C 
HETATM    4  C4  UNL     1      -1.181  -2.241  -0.862  1.00  0.00     0.023 C 
HETATM    5  C5  UNL     1      -0.720  -2.060   0.555  1.00  0.00    -0.001 C 
HETATM    6  C6  UNL     1       0.437  -1.068   0.692  1.00  0.00     0.024 C 
HETATM    7  C7  UNL     1      -0.324  -0.541   1.912  1.00  0.00     0.058 C 
HETATM    8  C9  UNL     1      -1.527  -0.866   1.088  1.00  0.00     0.008 C 
HETATM    9  C10 UNL     1      -1.435  -0.022  -0.177  1.00  0.00     0.029 C 
HETATM   10  C11 UNL     1       0.092  -0.056  -0.350  1.00  0.00     0.095 C 
ENDROOT
BRANCH  10  11
HETATM   11  N1  UNL     1       0.692   1.225  -0.185  1.00  0.00    -0.347 N 
HETATM   12  C12 UNL     1       1.447   1.836  -1.221  1.00  0.00     0.309 C 
HETATM   13  O2  UNL     1       1.618   1.257  -2.347  1.00  0.00    -0.262 OA
ATOM     14  H1  UNL     1       0.576   1.717   0.701  1.00  0.00     0.163 HD
BRANCH  12  15
HETATM   15  C13 UNL     1       2.062   3.141  -1.061  1.00  0.00     0.308 C 
HETATM   16  O3  UNL     1       1.900   3.728   0.055  1.00  0.00    -0.262 OA
HETATM   17  N2  UNL     1       2.815   3.766  -2.076  1.00  0.00    -0.357 N 
HETATM   18  C14 UNL     1       3.405   5.071  -1.855  1.00  0.00     0.149 C 
ATOM     19  H2  UNL     1       2.945   3.296  -2.972  1.00  0.00     0.162 HD
ENDBRANCH  12  15
ENDBRANCH  10  11
BRANCH   7  20
HETATM   20  C8  UNL     1      -0.247  -1.444   3.090  1.00  0.00     0.236 C 
HETATM   21  O1  UNL     1      -1.279  -1.906   3.561  1.00  0.00    -0.306 OA
ENDBRANCH   7  20
TORSDOF 3
