REMARK  17 active torsions:
REMARK  status: ('A' for Active; 'I' for Inactive)
REMARK    1  A    between atoms: C4_4  and  C5_5 
REMARK       I    between atoms: C5_5  and  N1_7 
REMARK    2  A    between atoms: N1_7  and  C6_9 
REMARK    3  A    between atoms: C6_9  and  C7_10 
REMARK       I    between atoms: C7_10  and  N2_12 
REMARK    4  A    between atoms: N2_12  and  C8_14 
REMARK    5  A    between atoms: C8_14  and  C9_15 
REMARK    6  A    between atoms: C9_15  and  C10_16 
REMARK    7  A    between atoms: C15_21  and  N3_22 
REMARK    8  A    between atoms: N3_22  and  C16_24 
REMARK    9  A    between atoms: C16_24  and  C17_25 
REMARK   10  A    between atoms: C17_25  and  C18_26 
REMARK   11  A    between atoms: C18_26  and  C19_27 
REMARK   12  A    between atoms: C19_27  and  C20_28 
REMARK   13  A    between atoms: C20_28  and  C21_29 
REMARK   14  A    between atoms: C23_33  and  N5_34 
REMARK   15  A    between atoms: N5_34  and  C24_36 
REMARK   16  A    between atoms: C24_36  and  C25_37 
REMARK   17  A    between atoms: C25_37  and  O3_38 
ROOT
HETATM    1  C1  UNL     1       3.062   2.990   0.545  1.00  0.00     0.018 C 
HETATM    2  C2  UNL     1       2.316   2.052   0.435  1.00  0.00    -0.074 C 
HETATM    3  C3  UNL     1       1.402   0.948   0.310  1.00  0.00     0.060 A 
HETATM    4  C4  UNL     1       1.830  -0.356   0.335  1.00  0.00     0.053 A 
HETATM    5  C12 UNL     1       0.897  -1.394   0.221  1.00  0.00     0.020 A 
HETATM    6  C13 UNL     1      -0.440  -1.145   0.085  1.00  0.00     0.018 A 
HETATM    7  C14 UNL     1      -0.895   0.148   0.055  1.00  0.00     0.037 A 
HETATM    8  C15 UNL     1      -2.246   0.407  -0.106  1.00  0.00     0.129 A 
HETATM    9  N4  UNL     1      -2.573   1.706  -0.148  1.00  0.00    -0.176 N 
ATOM     10  H4  UNL     1      -3.555   1.956  -0.265  1.00  0.00     0.186 HD
HETATM   11  C23 UNL     1      -1.656   2.708  -0.042  1.00  0.00     0.683 A 
HETATM   12  N6  UNL     1      -0.353   2.463   0.117  1.00  0.00    -0.189 N 
ATOM     13  H6  UNL     1       0.322   3.224   0.197  1.00  0.00     0.184 HD
HETATM   14  C26 UNL     1       0.036   1.181   0.168  1.00  0.00     0.083 A 
ENDROOT
BRANCH   4  15
HETATM   15  C5  UNL     1       3.211  -0.698   0.525  1.00  0.00     0.253 C 
HETATM   16  O1  UNL     1       3.878  -1.152  -0.456  1.00  0.00    -0.268 OA
HETATM   17  N1  UNL     1       3.845  -0.553   1.778  1.00  0.00    -0.348 N 
ATOM     18  H1  UNL     1       3.305  -0.184   2.560  1.00  0.00     0.163 HD
BRANCH  17  19
HETATM   19  C6  UNL     1       5.206  -0.901   1.993  1.00  0.00     0.225 C 
BRANCH  19  20
HETATM   20  C7  UNL     1       6.226  -0.138   1.256  1.00  0.00     0.235 C 
HETATM   21  O2  UNL     1       5.916   0.791   0.482  1.00  0.00    -0.272 OA
HETATM   22  N2  UNL     1       7.572  -0.477   1.446  1.00  0.00    -0.360 N 
ATOM     23  H2  UNL     1       7.793  -1.251   2.072  1.00  0.00     0.162 HD
BRANCH  22  24
HETATM   24  C8  UNL     1       8.651   0.209   0.806  1.00  0.00     0.122 C 
BRANCH  24  25
HETATM   25  C9  UNL     1       8.583   0.130  -0.672  1.00  0.00     0.019 C 
BRANCH  25  26
HETATM   26  C10 UNL     1       8.641  -1.322  -1.104  1.00  0.00    -0.003 C 
HETATM   27  C11 UNL     1       8.578  -1.401  -2.625  1.00  0.00     0.005 C 
ENDBRANCH  25  26
ENDBRANCH  24  25
ENDBRANCH  22  24
ENDBRANCH  19  20
ENDBRANCH  17  19
ENDBRANCH   4  15
BRANCH   8  28
HETATM   28  N3  UNL     1      -3.101  -0.561  -0.209  1.00  0.00    -0.375 N 
ATOM     29  H3  UNL     1      -2.743  -1.515  -0.166  1.00  0.00     0.161 HD
BRANCH  28  30
HETATM   30  C16 UNL     1      -4.517  -0.388  -0.379  1.00  0.00     0.121 C 
BRANCH  30  31
HETATM   31  C17 UNL     1      -5.109  -1.552  -1.127  1.00  0.00     0.020 C 
BRANCH  31  32
HETATM   32  C18 UNL     1      -6.562  -1.454  -1.378  1.00  0.00     0.002 C 
BRANCH  32  33
HETATM   33  C19 UNL     1      -7.473  -1.383  -0.200  1.00  0.00     0.000 C 
BRANCH  33  34
HETATM   34  C20 UNL     1      -7.399  -2.627   0.670  1.00  0.00    -0.000 C 
BRANCH  34  35
HETATM   35  C21 UNL     1      -7.790  -3.871  -0.061  1.00  0.00    -0.005 C 
HETATM   36  C22 UNL     1      -9.205  -3.865  -0.592  1.00  0.00     0.005 C 
ENDBRANCH  34  35
ENDBRANCH  33  34
ENDBRANCH  32  33
ENDBRANCH  31  32
ENDBRANCH  30  31
ENDBRANCH  28  30
ENDBRANCH   8  28
BRANCH  11  37
HETATM   37  N5  UNL     1      -2.098   3.877  -0.136  1.00  0.00    -0.203 N 
ATOM     38  H5  UNL     1      -3.107   3.917  -0.280  1.00  0.00     0.183 HD
BRANCH  37  39
HETATM   39  C24 UNL     1      -1.491   5.146  -0.084  1.00  0.00     0.105 C 
BRANCH  39  40
HETATM   40  C25 UNL     1      -2.050   5.926   1.087  1.00  0.00     0.209 C 
BRANCH  40  41
HETATM   41  O3  UNL     1      -1.754   5.217   2.245  1.00  0.00    -0.396 OA
ATOM     42  H3  UNL     1      -2.105   5.706   2.980  1.00  0.00     0.209 HD
ENDBRANCH  40  41
ENDBRANCH  39  40
ENDBRANCH  37  39
ENDBRANCH  11  37
TORSDOF 17
