REMARK  16 active torsions:
REMARK  status: ('A' for Active; 'I' for Inactive)
REMARK    1  A    between atoms: C2_2  and  C3_3 
REMARK    2  A    between atoms: C3_3  and  C4_4 
REMARK    3  A    between atoms: C4_4  and  C5_5 
REMARK    4  A    between atoms: C5_5  and  C6_6 
REMARK    5  A    between atoms: C6_6  and  C7_7 
REMARK    6  A    between atoms: C7_7  and  C8_8 
REMARK    7  A    between atoms: C8_8  and  C9_9 
REMARK    8  A    between atoms: C9_9  and  N5_23 
REMARK    9  A    between atoms: N1_10  and  C10_12 
REMARK   10  A    between atoms: C10_12  and  C11_13 
REMARK   11  A    between atoms: C11_13  and  C12_14 
REMARK   12  A    between atoms: C12_14  and  C13_15 
REMARK   13  A    between atoms: C13_15  and  N2_16 
REMARK       I    between atoms: N2_16  and  C14_18 
REMARK       I    between atoms: N6_26  and  C17_27 
REMARK   14  A    between atoms: C17_27  and  C18_29 
REMARK   15  A    between atoms: C18_29  and  N7_30 
REMARK   16  A    between atoms: C18_29  and  C19_34 
ROOT
HETATM    1  C9  UNL     1      -1.162   0.295   0.533  1.00  0.00     0.075 C 
HETATM    2  N1  UNL     1      -1.412   1.522   0.886  1.00  0.00    -0.380 N 
ATOM      3  H1  UNL     1      -0.636   2.162   1.055  1.00  0.00     0.160 HD
ENDROOT
BRANCH   1   4
HETATM    4  C8  UNL     1      -2.306  -0.586   0.299  1.00  0.00     0.076 C 
BRANCH   4   5
HETATM    5  C7  UNL     1      -2.647  -0.879  -1.116  1.00  0.00     0.007 C 
BRANCH   5   6
HETATM    6  C6  UNL     1      -3.865  -1.776  -1.274  1.00  0.00     0.000 C 
BRANCH   6   7
HETATM    7  C5  UNL     1      -3.626  -3.089  -0.604  1.00  0.00     0.000 C 
BRANCH   7   8
HETATM    8  C4  UNL     1      -4.825  -4.010  -0.769  1.00  0.00     0.000 C 
BRANCH   8   9
HETATM    9  C3  UNL     1      -4.489  -5.308  -0.055  1.00  0.00    -0.000 C 
BRANCH   9  10
HETATM   10  C2  UNL     1      -5.648  -6.297  -0.178  1.00  0.00    -0.005 C 
HETATM   11  C1  UNL     1      -6.885  -5.667   0.454  1.00  0.00     0.005 C 
ENDBRANCH   9  10
ENDBRANCH   8   9
ENDBRANCH   7   8
ENDBRANCH   6   7
ENDBRANCH   5   6
ENDBRANCH   4   5
ENDBRANCH   1   4
BRANCH   1  12
HETATM   12  N5  UNL     1       0.200  -0.060   0.412  1.00  0.00    -0.368 N 
HETATM   13  C15 UNL     1       1.195   0.463   1.361  1.00  0.00     0.144 C 
HETATM   14  C16 UNL     1       2.068  -0.737   1.695  1.00  0.00     0.145 C 
HETATM   15  N6  UNL     1       2.831  -1.132   0.508  1.00  0.00    -0.347 N 
HETATM   16  C17 UNL     1       4.204  -1.396   0.685  1.00  0.00     0.251 C 
HETATM   17  C24 UNL     1       2.087  -1.205  -0.716  1.00  0.00     0.145 C 
HETATM   18  O1  UNL     1       4.641  -1.274   1.887  1.00  0.00    -0.271 OA
HETATM   19  C25 UNL     1       0.629  -0.942  -0.630  1.00  0.00     0.144 C 
BRANCH  16  20
HETATM   20  C18 UNL     1       5.178  -1.790  -0.333  1.00  0.00     0.278 C 
BRANCH  20  21
HETATM   21  N7  UNL     1       4.668  -1.905  -1.669  1.00  0.00    -0.066 N 
ATOM     22  H73 UNL     1       3.872  -2.542  -1.684  1.00  0.00     0.275 HD
ATOM     23  H72 UNL     1       4.210  -1.036  -1.943  1.00  0.00     0.275 HD
ATOM     24  H71 UNL     1       5.347  -2.180  -2.379  1.00  0.00     0.275 HD
ENDBRANCH  20  21
BRANCH  20  25
HETATM   25  C19 UNL     1       6.444  -1.006  -0.391  1.00  0.00     0.028 C 
HETATM   26  C20 UNL     1       7.308  -1.004   0.811  1.00  0.00     0.034 C 
HETATM   27  C21 UNL     1       7.528   0.405   1.337  1.00  0.00     0.232 C 
HETATM   28  N8  UNL     1       8.155   1.253   0.346  1.00  0.00    -0.075 N 
HETATM   29  C22 UNL     1       7.637   1.019  -0.985  1.00  0.00     0.232 C 
ATOM     30  H82 UNL     1       8.079   2.237   0.603  1.00  0.00     0.277 HD
ATOM     31  H81 UNL     1       9.170   1.157   0.368  1.00  0.00     0.277 HD
HETATM   32  C23 UNL     1       6.236   0.426  -0.836  1.00  0.00     0.034 C 
ENDBRANCH  20  25
ENDBRANCH  16  20
ENDBRANCH   1  12
BRANCH   2  33
HETATM   33  C10 UNL     1      -2.769   1.995   1.043  1.00  0.00     0.121 C 
BRANCH  33  34
HETATM   34  C11 UNL     1      -2.770   3.488   1.159  1.00  0.00     0.021 C 
BRANCH  34  35
HETATM   35  C12 UNL     1      -2.167   4.077  -0.093  1.00  0.00     0.021 C 
BRANCH  35  36
HETATM   36  C13 UNL     1      -2.151   5.600  -0.029  1.00  0.00     0.122 C 
BRANCH  36  37
HETATM   37  N2  UNL     1      -3.523   6.079   0.098  1.00  0.00    -0.365 N 
HETATM   38  C14 UNL     1      -3.747   7.473   0.181  1.00  0.00     0.181 C 
HETATM   39  N3  UNL     1      -4.699   7.934   0.894  1.00  0.00    -0.374 N 
HETATM   40  N4  UNL     1      -2.908   8.354  -0.533  1.00  0.00    -0.064 NA
ATOM     41  H32 UNL     1      -5.306   7.297   1.410  1.00  0.00     0.158 HD
ATOM     42  H31 UNL     1      -4.861   8.939   0.954  1.00  0.00     0.158 HD
ATOM     43  H2  UNL     1      -4.304   5.423   0.126  1.00  0.00     0.162 HD
ENDBRANCH  36  37
ENDBRANCH  35  36
ENDBRANCH  34  35
ENDBRANCH  33  34
ENDBRANCH   2  33
TORSDOF 16
