REMARK  15 active torsions:
REMARK  status: ('A' for Active; 'I' for Inactive)
REMARK    1  A    between atoms: C2_2  and  C3_3 
REMARK    2  A    between atoms: C3_3  and  C4_4 
REMARK    3  A    between atoms: C4_4  and  C5_5 
REMARK    4  A    between atoms: C5_5  and  C6_6 
REMARK    5  A    between atoms: C6_6  and  C7_7 
REMARK    6  A    between atoms: C7_7  and  C8_8 
REMARK    7  A    between atoms: C8_8  and  C9_9 
REMARK    8  A    between atoms: C9_9  and  C10_10 
REMARK    9  A    between atoms: C10_10  and  O1_11 
REMARK   10  A    between atoms: O1_11  and  C11_12 
REMARK   11  A    between atoms: C12_13  and  O2_14 
REMARK   12  A    between atoms: C12_13  and  C13_16 
REMARK   13  A    between atoms: C16_22  and  O6_23 
REMARK   14  A    between atoms: O6_23  and  C17_24 
REMARK   15  A    between atoms: C20_29  and  C21_30 
ROOT
HETATM    1  C11 UNL     1       0.392  -1.482   1.580  1.00  0.00     0.184 C 
HETATM    2  C12 UNL     1      -0.382  -2.537   0.937  1.00  0.00     0.233 C 
HETATM    3  C14 UNL     1      -1.829  -2.336   0.691  1.00  0.00     0.178 C 
HETATM    4  O5  UNL     1      -2.376  -3.414   0.873  1.00  0.00    -0.294 OA
HETATM    5  C15 UNL     1      -2.795  -1.288   0.308  1.00  0.00     0.130 C 
HETATM    6  C16 UNL     1      -3.029  -0.453   1.525  1.00  0.00     0.148 C 
HETATM    7  C19 UNL     1      -2.486  -1.104   2.743  1.00  0.00     0.184 C 
HETATM    8  O8  UNL     1      -2.861  -2.070   3.365  1.00  0.00    -0.293 OA
HETATM    9  C20 UNL     1      -1.392  -0.125   2.834  1.00  0.00     0.133 A 
HETATM   10  C22 UNL     1      -0.176  -0.220   2.082  1.00  0.00     0.017 A 
HETATM   11  C23 UNL     1       0.995   0.501   2.799  1.00  0.00     0.020 C 
HETATM   12  C24 UNL     1      -0.779   0.645   1.008  1.00  0.00     0.019 A 
HETATM   13  C25 UNL     1      -0.284   1.950   0.612  1.00  0.00    -0.042 C 
HETATM   14  C26 UNL     1       0.111   3.023   1.499  1.00  0.00     0.015 C 
HETATM   15  C27 UNL     1       0.809   1.821  -0.457  1.00  0.00     0.015 C 
HETATM   16  C28 UNL     1      -1.491   2.518  -0.195  1.00  0.00     0.009 C 
HETATM   17  C29 UNL     1      -2.441   2.986   0.881  1.00  0.00     0.002 C 
HETATM   18  C30 UNL     1      -2.718   1.939   1.944  1.00  0.00     0.015 C 
HETATM   19  C31 UNL     1      -2.055   0.659   1.778  1.00  0.00     0.030 A 
ENDROOT
BRANCH   1  20
HETATM   20  O1  UNL     1       1.439  -1.102   0.685  1.00  0.00    -0.381 OA
BRANCH  20  21
HETATM   21  C10 UNL     1       2.638  -1.595   1.051  1.00  0.00     0.168 C 
BRANCH  21  22
HETATM   22  C9  UNL     1       3.794  -1.240   0.227  1.00  0.00     0.026 C 
BRANCH  22  23
HETATM   23  C8  UNL     1       3.909  -1.607  -1.173  1.00  0.00     0.002 C 
BRANCH  23  24
HETATM   24  C7  UNL     1       2.882  -0.989  -2.137  1.00  0.00     0.000 C 
BRANCH  24  25
HETATM   25  C6  UNL     1       3.146  -1.517  -3.494  1.00  0.00     0.000 C 
BRANCH  25  26
HETATM   26  C5  UNL     1       2.251  -1.133  -4.583  1.00  0.00     0.000 C 
BRANCH  26  27
HETATM   27  C4  UNL     1       2.062   0.226  -5.072  1.00  0.00     0.000 C 
BRANCH  27  28
HETATM   28  C3  UNL     1       1.489   1.254  -4.193  1.00  0.00    -0.000 C 
BRANCH  28  29
HETATM   29  C2  UNL     1       1.339   2.588  -4.960  1.00  0.00    -0.005 C 
HETATM   30  C1  UNL     1       2.664   3.080  -5.455  1.00  0.00     0.005 C 
ENDBRANCH  28  29
ENDBRANCH  27  28
ENDBRANCH  26  27
ENDBRANCH  25  26
ENDBRANCH  24  25
ENDBRANCH  23  24
ENDBRANCH  22  23
ENDBRANCH  21  22
ENDBRANCH  20  21
ENDBRANCH   1  20
BRANCH   2  31
HETATM   31  O2  UNL     1       0.055  -2.688  -0.416  1.00  0.00    -0.370 OA
ATOM     32  H2  UNL     1      -0.449  -3.375  -0.835  1.00  0.00     0.212 HD
ENDBRANCH   2  31
BRANCH   2  33
HETATM   33  C13 UNL     1      -0.068  -3.897   1.469  1.00  0.00     0.220 C 
HETATM   34  O3  UNL     1       0.395  -4.843   0.789  1.00  0.00    -0.645 OA
HETATM   35  O4  UNL     1      -0.302  -4.148   2.834  1.00  0.00    -0.645 OA
ENDBRANCH   2  33
BRANCH   9  36
HETATM   36  C21 UNL     1      -1.330   0.325   4.214  1.00  0.00     0.191 C 
HETATM   37  O9  UNL     1      -0.374  -0.070   4.919  1.00  0.00    -0.647 OA
HETATM   38  O10 UNL     1      -2.197   1.152   4.889  1.00  0.00    -0.647 OA
ENDBRANCH   9  36
BRANCH   6  39
HETATM   39  O6  UNL     1      -4.374  -0.050   1.615  1.00  0.00    -0.301 OA
BRANCH  39  40
HETATM   40  C17 UNL     1      -5.476  -0.837   1.727  1.00  0.00     0.256 C 
HETATM   41  C18 UNL     1      -6.870  -0.313   1.810  1.00  0.00     0.126 C 
HETATM   42  O7  UNL     1      -5.341  -2.063   1.764  1.00  0.00    -0.266 OA
ENDBRANCH  39  40
ENDBRANCH   6  39
TORSDOF 15
