REMARK  6 active torsions:
REMARK  status: ('A' for Active; 'I' for Inactive)
REMARK    1  A    between atoms: C2_2  and  C3_3 
REMARK    2  A    between atoms: C9_10  and  O1_11 
REMARK    3  A    between atoms: C13_16  and  N2_17 
REMARK       I    between atoms: N2_17  and  C14_19 
REMARK    4  A    between atoms: C14_19  and  C15_21 
REMARK    5  A    between atoms: C15_21  and  C16_22 
REMARK    6  A    between atoms: C16_22  and  N3_23 
ROOT
HETATM    1  C3  UNL     1       1.596  -0.504  -5.774  1.00  0.00     0.085 C 
HETATM    2  N1  UNL     1       1.271  -0.203  -4.492  1.00  0.00    -0.382 N 
HETATM    3  C4  UNL     1      -0.063  -0.188  -3.981  1.00  0.00     0.135 C 
HETATM    4  C5  UNL     1       0.087   0.544  -2.749  1.00  0.00     0.015 C 
HETATM    5  C6  UNL     1      -0.852   1.348  -2.046  1.00  0.00     0.021 C 
HETATM    6  C7  UNL     1       0.195   1.955  -1.079  1.00  0.00     0.013 C 
HETATM    7  C8  UNL     1       1.340   2.391  -2.004  1.00  0.00     0.047 C 
HETATM    8  C9  UNL     1       1.096   1.628  -3.224  1.00  0.00     0.088 C 
HETATM    9  C10 UNL     1       2.112   0.567  -3.626  1.00  0.00     0.119 C 
HETATM   10  C11 UNL     1       2.275  -0.129  -2.268  1.00  0.00     0.036 C 
HETATM   11  C12 UNL     1       0.881  -0.188  -1.708  1.00  0.00     0.024 C 
HETATM   12  C13 UNL     1       0.719   0.674  -0.467  1.00  0.00     0.093 C 
ENDROOT
BRANCH  12  13
HETATM   13  N2  UNL     1      -0.159   0.119   0.498  1.00  0.00    -0.356 N 
HETATM   14  C14 UNL     1       0.246   0.031   1.852  1.00  0.00     0.219 C 
HETATM   15  O2  UNL     1       1.373   0.443   2.209  1.00  0.00    -0.274 OA
ATOM     16  H2  UNL     1      -1.081  -0.216   0.217  1.00  0.00     0.162 HD
BRANCH  14  17
HETATM   17  C15 UNL     1      -0.682  -0.563   2.876  1.00  0.00     0.130 C 
BRANCH  17  18
HETATM   18  C16 UNL     1       0.008  -0.497   4.201  1.00  0.00     0.246 C 
BRANCH  18  19
HETATM   19  N3  UNL     1      -0.739  -1.038   5.299  1.00  0.00    -0.070 N 
HETATM   20  C17 UNL     1      -0.740  -2.491   5.254  1.00  0.00     0.272 C 
HETATM   21  C18 UNL     1      -0.198  -0.585   6.561  1.00  0.00     0.237 C 
HETATM   22  C19 UNL     1      -1.275   0.188   7.283  1.00  0.00     0.029 C 
HETATM   23  C20 UNL     1      -2.549  -0.424   6.678  1.00  0.00     0.029 C 
HETATM   24  C21 UNL     1      -2.095  -0.567   5.232  1.00  0.00     0.237 C 
ENDBRANCH  18  19
ENDBRANCH  17  18
ENDBRANCH  14  17
ENDBRANCH  12  13
BRANCH   8  25
HETATM   25  O1  UNL     1       0.583   2.340  -4.272  1.00  0.00    -0.387 OA
ATOM     26  H1  UNL     1       1.199   3.002  -4.562  1.00  0.00     0.210 HD
ENDBRANCH   8  25
BRANCH   1  27
HETATM   27  C2  UNL     1       1.192   0.444  -6.859  1.00  0.00     0.007 C 
HETATM   28  C1  UNL     1       0.397   0.032  -7.809  1.00  0.00     0.012 C 
ENDBRANCH   1  27
TORSDOF 6
