REMARK  3 active torsions:
REMARK  status: ('A' for Active; 'I' for Inactive)
REMARK    1  A    between atoms: C2_2  and  O2_4 
REMARK    2  A    between atoms: O2_4  and  C3_5 
REMARK    3  A    between atoms: C13_17  and  C15_19 
ROOT
HETATM    1  C3  UNL     1      -0.798   0.216  -1.296  1.00  0.00     0.145 C 
HETATM    2  C4  UNL     1      -2.135   0.714  -0.816  1.00  0.00     0.035 C 
HETATM    3  C5  UNL     1      -2.259   1.030   0.692  1.00  0.00     0.022 C 
HETATM    4  C6  UNL     1      -1.180   1.635   1.230  1.00  0.00     0.039 C 
HETATM    5  C7  UNL     1      -0.981   2.913   0.281  1.00  0.00     0.026 C 
HETATM    6  C8  UNL     1       0.018   0.641   0.932  1.00  0.00    -0.023 C 
HETATM    7  C9  UNL     1      -0.177   0.508   2.176  1.00  0.00     0.078 C 
HETATM    8  C10 UNL     1      -1.490   1.125   3.186  1.00  0.00     0.236 C 
HETATM    9  O3  UNL     1      -0.733   2.178   3.577  1.00  0.00    -0.347 OA
HETATM   10  C11 UNL     1      -0.207   2.177   2.341  1.00  0.00     0.177 C 
HETATM   11  C12 UNL     1       1.187   2.240   2.155  1.00  0.00     0.080 C 
HETATM   12  O4  UNL     1       0.105   0.247   2.950  1.00  0.00    -0.315 OA
HETATM   13  C13 UNL     1       0.400   0.562  -0.400  1.00  0.00     0.022 C 
HETATM   14  C14 UNL     1       1.217   1.580  -1.131  1.00  0.00     0.024 C 
ENDROOT
BRANCH   1  15
HETATM   15  O2  UNL     1      -0.918  -1.188  -1.370  1.00  0.00    -0.315 OA
BRANCH  15  16
HETATM   16  C2  UNL     1      -1.085  -1.900  -2.522  1.00  0.00     0.255 C 
HETATM   17  C1  UNL     1      -1.175  -3.382  -2.430  1.00  0.00     0.126 C 
HETATM   18  O1  UNL     1      -1.159  -1.311  -3.621  1.00  0.00    -0.266 OA
ENDBRANCH  15  16
ENDBRANCH   1  15
BRANCH  13  19
HETATM   19  C15 UNL     1       1.361  -0.707  -0.490  1.00  0.00     0.131 C 
HETATM   20 CL1  UNL     1       1.954  -0.942  -2.091  1.00  0.00    -0.129 Cl
ENDBRANCH  13  19
TORSDOF 3
