REMARK  7 active torsions:
REMARK  status: ('A' for Active; 'I' for Inactive)
REMARK    1  A    between atoms: O1_2  and  C2_3 
REMARK    2  A    between atoms: C2_3  and  O2_4 
REMARK    3  A    between atoms: C6_9  and  O3_10 
REMARK    4  A    between atoms: C9_14  and  O4_15 
REMARK    5  A    between atoms: C10_17  and  O5_18 
REMARK    6  A    between atoms: C21_30  and  O7_31 
REMARK    7  A    between atoms: O7_31  and  C22_32 
ROOT
HETATM    1  C2  UNL     1      -2.155   2.451   0.492  1.00  0.00     0.181 C 
HETATM    2  C3  UNL     1      -1.150   1.962  -0.371  1.00  0.00    -0.009 C 
HETATM    3  C4  UNL     1      -1.674   1.947  -1.811  1.00  0.00     0.043 C 
HETATM    4  C5  UNL     1      -2.213   0.617  -2.255  1.00  0.00     0.037 C 
HETATM    5  C6  UNL     1      -1.496  -0.580  -1.694  1.00  0.00     0.130 C 
HETATM    6  C7  UNL     1      -1.077  -0.383  -0.223  1.00  0.00     0.025 C 
HETATM    7  C8  UNL     1      -2.518  -0.276   0.331  1.00  0.00     0.022 C 
HETATM    8  C9  UNL     1      -0.744  -1.660   0.431  1.00  0.00     0.159 C 
HETATM    9  C10 UNL     1       0.530  -2.304   0.445  1.00  0.00     0.159 C 
HETATM   10  C12 UNL     1       1.588  -1.588   1.189  1.00  0.00     0.070 A 
HETATM   11  C13 UNL     1       1.684  -1.791   2.680  1.00  0.00     0.178 A 
HETATM   12  O6  UNL     1       1.764  -0.406   2.678  1.00  0.00    -0.384 OA
HETATM   13  C14 UNL     1       1.646  -0.179   1.268  1.00  0.00     0.136 A 
HETATM   14  C15 UNL     1       0.658   0.899   1.093  1.00  0.00     0.039 C 
HETATM   15  C16 UNL     1       1.484   2.158   1.271  1.00  0.00    -0.041 C 
HETATM   16  C17 UNL     1       0.864   3.335   1.943  1.00  0.00     0.015 C 
HETATM   17  C18 UNL     1       2.636   1.924   2.280  1.00  0.00     0.015 C 
HETATM   18  C19 UNL     1       2.234   2.552   0.024  1.00  0.00     0.012 C 
HETATM   19  C20 UNL     1       1.526   2.298  -1.228  1.00  0.00     0.034 C 
HETATM   20  C21 UNL     1       0.766   0.969  -1.281  1.00  0.00     0.146 C 
HETATM   21  C24 UNL     1      -0.219   0.816  -0.136  1.00  0.00     0.033 C 
ENDROOT
BRANCH   1  22
HETATM   22  O1  UNL     1      -2.449   2.521   1.824  1.00  0.00    -0.336 OA
HETATM   23  C1  UNL     1      -3.530   3.064   2.475  1.00  0.00     0.212 C 
ENDBRANCH   1  22
BRANCH   1  24
HETATM   24  O2  UNL     1      -3.152   3.032  -0.111  1.00  0.00    -0.341 OA
ATOM     25  H2  UNL     1      -2.948   2.983  -1.037  1.00  0.00     0.220 HD
ENDBRANCH   1  24
BRANCH  20  26
HETATM   26  O7  UNL     1       1.767   0.015  -1.394  1.00  0.00    -0.315 OA
BRANCH  26  27
HETATM   27  C22 UNL     1       2.192  -0.526  -2.546  1.00  0.00     0.255 C 
HETATM   28  C23 UNL     1       3.283  -1.562  -2.611  1.00  0.00     0.126 C 
HETATM   29  O8  UNL     1       1.674  -0.171  -3.635  1.00  0.00    -0.266 OA
ENDBRANCH  26  27
ENDBRANCH  20  26
BRANCH   5  30
HETATM   30  O3  UNL     1      -2.504  -1.602  -1.731  1.00  0.00    -0.395 OA
ATOM     31  H3  UNL     1      -2.051  -2.358  -1.377  1.00  0.00     0.210 HD
ENDBRANCH   5  30
BRANCH   8  32
HETATM   32  O4  UNL     1      -1.283  -1.832   1.738  1.00  0.00    -0.392 OA
ATOM     33  H4  UNL     1      -1.068  -2.656   2.160  1.00  0.00     0.210 HD
ENDBRANCH   8  32
BRANCH   9  34
HETATM   34  O5  UNL     1       0.394  -3.539   1.095  1.00  0.00    -0.388 OA
HETATM   35  C11 UNL     1       0.646  -4.623   0.283  1.00  0.00     0.202 C 
ENDBRANCH   9  34
TORSDOF 7
