REMARK  4 active torsions:
REMARK  status: ('A' for Active; 'I' for Inactive)
REMARK       I    between atoms: C1_2  and  N1_3 
REMARK    1  A    between atoms: C1_2  and  C9_12 
REMARK    2  A    between atoms: N1_3  and  C2_5 
REMARK       I    between atoms: N2_19  and  C15_20 
REMARK       I    between atoms: C15_20  and  N3_22 
REMARK    3  A    between atoms: N3_22  and  C16_24 
REMARK    4  A    between atoms: C23_31  and  O4_32 
ROOT
HETATM    1  C9  UNL     1       1.306  -2.355  -1.496  1.00  0.00     0.321 C 
HETATM    2  O2  UNL     1       1.929  -3.537  -1.080  1.00  0.00    -0.350 OA
HETATM    3  C10 UNL     1       2.537  -3.201   0.132  1.00  0.00     0.147 C 
HETATM    4  C11 UNL     1       2.589  -4.386   1.040  1.00  0.00     0.034 C 
HETATM    5  C12 UNL     1       1.821  -4.052   2.277  1.00  0.00     0.005 C 
HETATM    6  C13 UNL     1       1.005  -2.818   1.958  1.00  0.00     0.028 C 
HETATM    7  C14 UNL     1       1.659  -2.145   0.775  1.00  0.00     0.121 C 
HETATM    8  N2  UNL     1       0.720  -1.835  -0.288  1.00  0.00    -0.292 N 
HETATM    9  C15 UNL     1      -0.508  -1.179  -0.135  1.00  0.00     0.321 C 
HETATM   10  O3  UNL     1      -1.214  -1.045  -1.200  1.00  0.00    -0.247 OA
HETATM   11  N3  UNL     1      -1.055  -0.652   1.042  1.00  0.00    -0.338 N 
ATOM     12  H3  UNL     1      -0.530  -0.732   1.913  1.00  0.00     0.164 HD
ENDROOT
BRANCH   1  13
HETATM   13  C1  UNL     1       2.276  -1.460  -2.124  1.00  0.00     0.267 C 
HETATM   14  O1  UNL     1       3.485  -1.872  -2.250  1.00  0.00    -0.269 OA
HETATM   15  N1  UNL     1       1.974  -0.153  -2.609  1.00  0.00    -0.352 N 
ATOM     16  H1  UNL     1       1.025   0.212  -2.527  1.00  0.00     0.163 HD
BRANCH  15  17
HETATM   17  C2  UNL     1       3.017   0.666  -3.223  1.00  0.00     0.089 C 
HETATM   18  C3  UNL     1       2.489   1.234  -4.517  1.00  0.00     0.030 C 
HETATM   19  C4  UNL     1       2.315   2.719  -4.298  1.00  0.00    -0.012 C 
HETATM   20  C5  UNL     1       3.665   3.358  -4.292  1.00  0.00     0.005 C 
HETATM   21  C8  UNL     1       2.026   2.735  -2.785  1.00  0.00     0.011 C 
HETATM   22  C6  UNL     1       4.342   2.684  -3.101  1.00  0.00     0.007 C 
HETATM   23  C7  UNL     1       3.251   1.913  -2.395  1.00  0.00     0.009 C 
ENDBRANCH  15  17
ENDBRANCH   1  13
BRANCH  11  24
HETATM   24  C16 UNL     1      -2.349   0.005   1.055  1.00  0.00     0.094 C 
HETATM   25  C17 UNL     1      -2.275   1.453   1.475  1.00  0.00     0.012 C 
HETATM   26  C18 UNL     1      -1.903   1.645   2.913  1.00  0.00     0.011 C 
HETATM   27  C25 UNL     1      -3.691   2.005   1.273  1.00  0.00     0.044 C 
HETATM   28  C19 UNL     1      -2.917   0.933   3.776  1.00  0.00    -0.011 C 
HETATM   29  C20 UNL     1      -2.901  -0.533   3.431  1.00  0.00     0.011 C 
HETATM   30  C24 UNL     1      -4.314   1.489   3.581  1.00  0.00     0.042 C 
HETATM   31  C21 UNL     1      -3.293  -0.723   1.969  1.00  0.00     0.012 C 
HETATM   32  C22 UNL     1      -4.692  -0.191   1.827  1.00  0.00     0.044 C 
HETATM   33  C23 UNL     1      -4.693   1.303   2.143  1.00  0.00     0.059 C 
BRANCH  33  34
HETATM   34  O4  UNL     1      -5.947   1.811   1.844  1.00  0.00    -0.390 OA
ATOM     35  H4  UNL     1      -5.948   2.740   2.041  1.00  0.00     0.210 HD
ENDBRANCH  33  34
ENDBRANCH  11  24
TORSDOF 4
