REMARK  7 active torsions:
REMARK  status: ('A' for Active; 'I' for Inactive)
REMARK    1  A    between atoms: C2_3  and  N2_4 
REMARK    2  A    between atoms: N2_4  and  C3_5 
REMARK    3  A    between atoms: C3_5  and  N3_7 
REMARK    4  A    between atoms: N3_7  and  C4_9 
REMARK    5  A    between atoms: C7_12  and  S2_13 
REMARK    6  A    between atoms: S2_13  and  N4_16 
REMARK    7  A    between atoms: N4_16  and  C8_18 
ROOT
HETATM    1  C4  UNL     1      -0.535   0.044   0.879  1.00  0.00     0.035 A 
HETATM    2  C5  UNL     1      -1.412   0.848   0.197  1.00  0.00     0.031 A 
HETATM    3  C6  UNL     1      -2.743   1.031   0.614  1.00  0.00     0.027 A 
HETATM    4  C7  UNL     1      -3.206   0.396   1.738  1.00  0.00     0.080 A 
HETATM    5  C13 UNL     1      -2.360  -0.411   2.440  1.00  0.00     0.027 A 
HETATM    6  C14 UNL     1      -1.064  -0.581   2.022  1.00  0.00     0.031 A 
ENDROOT
BRANCH   1   7
HETATM    7  N3  UNL     1       0.811  -0.162   0.549  1.00  0.00    -0.322 N 
ATOM      8  H3  UNL     1       1.186  -1.110   0.528  1.00  0.00     0.169 HD
BRANCH   7   9
HETATM    9  C3  UNL     1       1.679   0.961   0.237  1.00  0.00     0.253 C 
HETATM   10  S1  UNL     1       0.924   2.455   0.405  1.00  0.00    -0.025 SA
BRANCH   9  11
HETATM   11  N2  UNL     1       2.921   0.895  -0.099  1.00  0.00    -0.341 NA
BRANCH  11  12
HETATM   12  C2  UNL     1       4.065   0.744  -0.386  1.00  0.00     0.265 A 
HETATM   13  N1  UNL     1       4.771  -0.429  -0.281  1.00  0.00    -0.309 N 
HETATM   14  C1  UNL     1       4.294  -1.716   0.191  1.00  0.00     0.161 C 
HETATM   15  C20 UNL     1       6.016  -0.178  -0.701  1.00  0.00     0.064 A 
HETATM   16  C15 UNL     1       6.128   1.139  -1.077  1.00  0.00     0.062 A 
HETATM   17  C19 UNL     1       7.144  -1.009  -0.805  1.00  0.00     0.032 A 
HETATM   18  N6  UNL     1       4.943   1.701  -0.886  1.00  0.00    -0.314 N 
HETATM   19  C16 UNL     1       7.345   1.647  -1.555  1.00  0.00     0.032 A 
ATOM     20  H6  UNL     1       4.712   2.676  -1.075  1.00  0.00     0.170 HD
HETATM   21  C17 UNL     1       8.425   0.806  -1.643  1.00  0.00     0.002 A 
HETATM   22  C18 UNL     1       8.336  -0.528  -1.270  1.00  0.00     0.002 A 
ENDBRANCH  11  12
ENDBRANCH   9  11
ENDBRANCH   7   9
ENDBRANCH   1   7
BRANCH   4  23
HETATM   23  S2  UNL     1      -4.886   0.644   2.238  1.00  0.00     0.263 S 
HETATM   24  O1  UNL     1      -5.229   2.068   1.878  1.00  0.00    -0.200 OA
HETATM   25  O2  UNL     1      -4.884   0.587   3.779  1.00  0.00    -0.200 OA
BRANCH  23  26
HETATM   26  N4  UNL     1      -5.912  -0.529   1.625  1.00  0.00    -0.281 N 
ATOM     27  H4  UNL     1      -6.118  -1.323   2.231  1.00  0.00     0.179 HD
BRANCH  26  28
HETATM   28  C8  UNL     1      -6.459  -0.525   0.478  1.00  0.00     0.045 A 
HETATM   29  C9  UNL     1      -6.319   0.433  -0.478  1.00  0.00     0.047 A 
HETATM   30  C10 UNL     1      -6.989   0.303  -1.704  1.00  0.00     0.090 A 
HETATM   31  N5  UNL     1      -7.777  -0.746  -1.981  1.00  0.00    -0.375 N 
HETATM   32  C11 UNL     1      -7.945  -1.719  -1.062  1.00  0.00     0.090 A 
ATOM     33  H5  UNL     1      -8.248  -0.808  -2.884  1.00  0.00     0.164 HD
HETATM   34  C12 UNL     1      -7.300  -1.605   0.132  1.00  0.00     0.047 A 
ENDBRANCH  26  28
ENDBRANCH  23  26
ENDBRANCH   4  23
TORSDOF 7
