REMARK  3 active torsions:
REMARK  status: ('A' for Active; 'I' for Inactive)
REMARK    1  A    between atoms: O1_2  and  C2_3 
REMARK    2  A    between atoms: C3_5  and  O2_6 
REMARK    3  A    between atoms: C17_24  and  O6_25 
ROOT
HETATM    1  C2  UNL     1       0.812   2.038   0.374  1.00  0.00     0.228 C 
HETATM    2  S1  UNL     1       0.892   1.682  -1.559  1.00  0.00    -0.098 SA
HETATM    3  C3  UNL     1       1.056  -0.029  -2.334  1.00  0.00     0.205 C 
HETATM    4  C4  UNL     1       1.670  -1.090  -1.367  1.00  0.00     0.024 C 
HETATM    5  C5  UNL     1       0.946  -1.624  -0.366  1.00  0.00    -0.008 C 
HETATM    6  C6  UNL     1       1.170  -2.554   0.769  1.00  0.00    -0.002 C 
HETATM    7  C7  UNL     1       0.227  -3.634   1.035  1.00  0.00     0.024 C 
HETATM    8  C8  UNL     1       2.508  -3.173   1.015  1.00  0.00     0.024 C 
HETATM    9  C9  UNL     1       0.983  -1.469   1.985  1.00  0.00    -0.014 C 
HETATM   10  C10 UNL     1       0.565  -0.175   2.065  1.00  0.00     0.017 C 
HETATM   11  C11 UNL     1       0.052   1.021   1.266  1.00  0.00     0.166 C 
HETATM   12  O3  UNL     1      -1.263   1.022   1.474  1.00  0.00    -0.332 OA
HETATM   13  C12 UNL     1      -1.909  -0.184   1.091  1.00  0.00     0.162 C 
HETATM   14  C13 UNL     1      -3.092   0.235   0.237  1.00  0.00     0.078 C 
HETATM   15  C14 UNL     1      -2.600  -0.566   2.438  1.00  0.00     0.078 C 
HETATM   16  O4  UNL     1      -1.278  -1.282   0.741  1.00  0.00    -0.316 OA
HETATM   17  C15 UNL     1      -0.662  -1.504  -0.488  1.00  0.00     0.192 C 
HETATM   18  C16 UNL     1      -1.194  -2.550  -1.341  1.00  0.00     0.085 C 
HETATM   19  O5  UNL     1      -0.646  -0.273  -0.781  1.00  0.00    -0.318 OA
HETATM   20  C17 UNL     1       0.098   0.374  -0.029  1.00  0.00     0.302 C 
ENDROOT
BRANCH   1  21
HETATM   21  O1  UNL     1      -0.112   3.110   0.409  1.00  0.00    -0.377 OA
HETATM   22  C1  UNL     1       0.504   4.252   0.819  1.00  0.00     0.203 C 
ENDBRANCH   1  21
BRANCH   3  23
HETATM   23  O2  UNL     1       2.019   0.303  -3.257  1.00  0.00    -0.381 OA
ATOM     24  H2  UNL     1       2.102  -0.559  -3.647  1.00  0.00     0.211 HD
ENDBRANCH   3  23
BRANCH  20  25
HETATM   25  O6  UNL     1       1.432   0.446   0.230  1.00  0.00    -0.368 OA
ATOM     26  H6  UNL     1       1.462   0.022  -0.619  1.00  0.00     0.212 HD
ENDBRANCH  20  25
TORSDOF 3
