REMARK  9 active torsions:
REMARK  status: ('A' for Active; 'I' for Inactive)
REMARK    1  A    between atoms: C2_5  and  N3_6 
REMARK    2  A    between atoms: N3_6  and  N4_8 
REMARK    3  A    between atoms: N4_8  and  C3_10 
REMARK    4  A    between atoms: C3_10  and  C4_11 
REMARK    5  A    between atoms: C5_12  and  S1_13 
REMARK    6  A    between atoms: S1_13  and  C6_16 
REMARK    7  A    between atoms: C6_16  and  C7_17 
REMARK    8  A    between atoms: C7_17  and  O3_18 
REMARK    9  A    between atoms: C8_22  and  N6_23 
ROOT
HETATM    1  C4  UNL     1      -0.756  -2.410   0.400  1.00  0.00     0.088 A 
HETATM    2  C5  UNL     1      -1.705  -1.454   0.255  1.00  0.00     0.161 A 
HETATM    3  N5  UNL     1      -3.030  -1.806   0.383  1.00  0.00    -0.180 N 
ATOM      4  H5  UNL     1      -3.743  -1.084   0.273  1.00  0.00     0.185 HD
HETATM    5  C8  UNL     1      -3.418  -3.060   0.646  1.00  0.00     0.679 A 
HETATM    6  N7  UNL     1      -2.508  -4.035   0.796  1.00  0.00    -0.156 N 
ATOM      7  H7  UNL     1      -2.787  -4.995   0.996  1.00  0.00     0.187 HD
HETATM    8  C9  UNL     1      -1.222  -3.697   0.673  1.00  0.00     0.274 A 
HETATM    9  O4  UNL     1      -0.386  -4.622   0.817  1.00  0.00    -0.267 OA
ENDROOT
BRANCH   1  10
HETATM   10  C3  UNL     1       0.637  -2.220   0.301  1.00  0.00     0.127 C 
BRANCH  10  11
HETATM   11  N4  UNL     1       1.269  -1.136   0.062  1.00  0.00    -0.297 N 
ATOM     12  H4  UNL     1       0.744  -0.274  -0.083  1.00  0.00     0.186 HD
BRANCH  11  13
HETATM   13  N3  UNL     1       2.661  -1.106  -0.005  1.00  0.00    -0.131 N 
ATOM     14  H3  UNL     1       3.189  -1.969   0.124  1.00  0.00     0.205 HD
BRANCH  13  15
HETATM   15  C2  UNL     1       3.289  -0.006  -0.227  1.00  0.00     0.715 A 
HETATM   16  N2  UNL     1       2.855   1.243  -0.427  1.00  0.00    -0.125 N 
HETATM   17  N1  UNL     1       3.852   2.097  -0.621  1.00  0.00    -0.232 N 
ATOM     18  H2  UNL     1       1.870   1.509  -0.430  1.00  0.00     0.206 HD
HETATM   19  C1  UNL     1       3.728   3.519  -0.865  1.00  0.00     0.183 C 
HETATM   20  C10 UNL     1       4.971   1.363  -0.542  1.00  0.00     0.355 A 
HETATM   21  N8  UNL     1       4.657   0.091  -0.304  1.00  0.00    -0.137 N 
HETATM   22  O5  UNL     1       6.170   1.789  -0.670  1.00  0.00    -0.244 OA
ATOM     23  H8  UNL     1       5.318  -0.678  -0.197  1.00  0.00     0.189 HD
ENDBRANCH  13  15
ENDBRANCH  11  13
ENDBRANCH  10  11
ENDBRANCH   1  10
BRANCH   2  24
HETATM   24  S1  UNL     1      -1.284   0.198  -0.089  1.00  0.00     0.194 S 
HETATM   25  O1  UNL     1      -0.514   0.840   1.020  1.00  0.00    -0.221 OA
HETATM   26  O2  UNL     1      -0.599   0.403  -1.389  1.00  0.00    -0.221 OA
BRANCH  24  27
HETATM   27  C6  UNL     1      -2.845   1.114  -0.191  1.00  0.00     0.173 C 
BRANCH  27  28
HETATM   28  C7  UNL     1      -2.467   2.565  -0.493  1.00  0.00     0.179 C 
BRANCH  28  29
HETATM   29  O3  UNL     1      -1.785   2.568  -1.696  1.00  0.00    -0.400 OA
ATOM     30  H3  UNL     1      -1.550   3.469  -1.884  1.00  0.00     0.209 HD
ENDBRANCH  28  29
ENDBRANCH  27  28
ENDBRANCH  24  27
ENDBRANCH   2  24
BRANCH   5  31
HETATM   31  N6  UNL     1      -4.695  -3.334   0.757  1.00  0.00    -0.234 N 
ATOM     32  H62 UNL     1      -5.387  -2.593   0.643  1.00  0.00     0.174 HD
ATOM     33  H61 UNL     1      -4.991  -4.289   0.957  1.00  0.00     0.174 HD
ENDBRANCH   5  31
TORSDOF 9
