REMARK  11 active torsions:
REMARK  status: ('A' for Active; 'I' for Inactive)
REMARK    1  A    between atoms: N1_1  and  C1_5 
REMARK    2  A    between atoms: C1_5  and  C2_6 
REMARK    3  A    between atoms: C5_9  and  N2_10 
REMARK    4  A    between atoms: C6_14  and  O1_15 
REMARK    5  A    between atoms: O1_15  and  C7_16 
REMARK    6  A    between atoms: C8_17  and  O2_18 
REMARK    7  A    between atoms: O2_18  and  C9_19 
REMARK    8  A    between atoms: C10_21  and  N3_22 
REMARK    9  A    between atoms: C11_26  and  N4_27 
REMARK   10  A    between atoms: C13_33  and  O5_34 
REMARK   11  A    between atoms: C14_36  and  N5_37 
ROOT
HETATM    1  C7  UNL     1       0.477  -1.174  -0.624  1.00  0.00     0.210 C 
HETATM    2  C8  UNL     1       1.691  -1.471   0.585  1.00  0.00     0.293 C 
HETATM    3  O4  UNL     1       2.826  -1.765  -0.530  1.00  0.00    -0.356 OA
HETATM    4  C12 UNL     1       2.665  -3.110  -0.684  1.00  0.00     0.205 C 
HETATM    5  C13 UNL     1       1.514  -3.301  -1.624  1.00  0.00     0.175 C 
HETATM    6  C14 UNL     1       0.331  -2.509  -1.267  1.00  0.00     0.247 C 
ENDROOT
BRANCH   1   7
HETATM    7  O1  UNL     1      -0.609  -0.967   0.150  1.00  0.00    -0.371 OA
BRANCH   7   8
HETATM    8  C6  UNL     1      -1.156   0.273   0.259  1.00  0.00     0.153 C 
HETATM    9  C5  UNL     1      -1.230   0.754   1.666  1.00  0.00     0.212 C 
HETATM   10  C4  UNL     1      -2.483   1.338   2.166  1.00  0.00     0.036 C 
HETATM   11  C3  UNL     1      -3.618   1.524   1.230  1.00  0.00     0.008 C 
HETATM   12  C2  UNL     1      -3.089   1.653  -0.173  1.00  0.00     0.013 C 
HETATM   13  C15 UNL     1      -2.498   0.264  -0.454  1.00  0.00     0.040 C 
BRANCH   9  14
HETATM   14  N2  UNL     1      -0.900  -0.379   2.541  1.00  0.00    -0.073 N 
ATOM     15  H23 UNL     1      -0.856  -0.123   3.527  1.00  0.00     0.274 HD
ATOM     16  H22 UNL     1      -1.656  -1.059   2.616  1.00  0.00     0.274 HD
ATOM     17  H21 UNL     1      -0.031  -0.784   2.194  1.00  0.00     0.274 HD
ENDBRANCH   9  14
BRANCH  12  18
HETATM   18  C1  UNL     1      -4.230   1.927  -1.121  1.00  0.00     0.234 C 
BRANCH  18  19
HETATM   19  N1  UNL     1      -5.200   0.865  -1.093  1.00  0.00    -0.079 N 
ATOM     20  H13 UNL     1      -4.769  -0.041  -1.278  1.00  0.00     0.274 HD
ATOM     21  H12 UNL     1      -5.535   0.689  -0.146  1.00  0.00     0.274 HD
ATOM     22  H11 UNL     1      -5.971   1.050  -1.734  1.00  0.00     0.274 HD
ENDBRANCH  18  19
ENDBRANCH  12  18
ENDBRANCH   7   8
ENDBRANCH   1   7
BRANCH   2  23
HETATM   23  O2  UNL     1       2.082  -0.230   0.668  1.00  0.00    -0.327 OA
BRANCH  23  24
HETATM   24  C9  UNL     1       2.710   0.446  -0.306  1.00  0.00     0.300 C 
HETATM   25  O3  UNL     1       2.160   1.726  -0.524  1.00  0.00    -0.324 OA
HETATM   26  C10 UNL     1       3.458   2.174  -0.827  1.00  0.00     0.356 C 
HETATM   27  C11 UNL     1       3.994   1.173   0.143  1.00  0.00     0.294 C 
BRANCH  26  28
HETATM   28  N3  UNL     1       3.584   3.563  -0.464  1.00  0.00    -0.051 N 
ATOM     29  H33 UNL     1       2.865   4.142  -0.899  1.00  0.00     0.277 HD
ATOM     30  H32 UNL     1       3.336   3.731   0.511  1.00  0.00     0.277 HD
ATOM     31  H31 UNL     1       4.526   3.888  -0.684  1.00  0.00     0.277 HD
ENDBRANCH  26  28
BRANCH  27  32
HETATM   32  N4  UNL     1       3.884   1.549   1.515  1.00  0.00    -0.066 N 
ATOM     33  H43 UNL     1       3.047   2.104   1.694  1.00  0.00     0.275 HD
ATOM     34  H42 UNL     1       3.665   0.753   2.114  1.00  0.00     0.275 HD
ATOM     35  H41 UNL     1       4.733   2.030   1.812  1.00  0.00     0.275 HD
ENDBRANCH  27  32
ENDBRANCH  23  24
ENDBRANCH   2  23
BRANCH   6  36
HETATM   36  N5  UNL     1      -0.563  -3.349  -0.443  1.00  0.00    -0.070 N 
ATOM     37  H53 UNL     1      -0.247  -3.417   0.525  1.00  0.00     0.274 HD
ATOM     38  H52 UNL     1      -1.463  -2.902  -0.269  1.00  0.00     0.274 HD
ATOM     39  H51 UNL     1      -0.663  -4.264  -0.883  1.00  0.00     0.274 HD
ENDBRANCH   6  36
BRANCH   5  40
HETATM   40  O5  UNL     1       1.177  -4.674  -1.536  1.00  0.00    -0.391 OA
ATOM     41  H5  UNL     1       0.447  -4.795  -2.132  1.00  0.00     0.210 HD
ENDBRANCH   5  40
TORSDOF 11
