REMARK  8 active torsions:
REMARK  status: ('A' for Active; 'I' for Inactive)
REMARK    1  A    between atoms: N2_6  and  C3_8 
REMARK    2  A    between atoms: C3_8  and  C4_9 
REMARK    3  A    between atoms: C4_9  and  O2_10 
REMARK    4  A    between atoms: C4_9  and  O3_12 
REMARK    5  A    between atoms: C5_16  and  N4_17 
REMARK    6  A    between atoms: N4_17  and  N5_19 
REMARK    7  A    between atoms: C6_21  and  C7_22 
REMARK    8  A    between atoms: C8_23  and  N6_24 
ROOT
HETATM    1  O1  UNL     1       2.699  -0.680  -2.576  1.00  0.00    -0.261 OA
HETATM    2  C1  UNL     1       2.268  -0.463  -1.437  1.00  0.00     0.328 C 
HETATM    3  N1  UNL     1       3.136  -0.693  -0.430  1.00  0.00    -0.151 N 
ATOM      4  H1  UNL     1       3.956  -1.264  -0.632  1.00  0.00     0.188 HD
HETATM    5  C2  UNL     1       2.996  -0.223   0.819  1.00  0.00     0.695 C 
HETATM    6  N2  UNL     1       4.048   0.012   1.489  1.00  0.00    -0.221 N 
ATOM      7  H2  UNL     1       3.934   0.371   2.437  1.00  0.00     0.177 HD
HETATM    8  N3  UNL     1       1.828   0.049   1.490  1.00  0.00    -0.021 N 
ATOM      9  H3  UNL     1       1.919   0.185   2.497  1.00  0.00     0.203 HD
HETATM   10  C5  UNL     1       0.579   0.160   0.998  1.00  0.00     0.714 C 
HETATM   11  N9  UNL     1       0.244   0.358  -0.299  1.00  0.00    -0.149 N 
ATOM     12  H9  UNL     1      -0.638   0.840  -0.473  1.00  0.00     0.188 HD
HETATM   13  C12 UNL     1       0.959  -0.018  -1.399  1.00  0.00     0.328 C 
HETATM   14  O6  UNL     1       0.331   0.063  -2.463  1.00  0.00    -0.261 OA
ENDROOT
BRANCH  10  15
HETATM   15  N4  UNL     1      -0.367   0.069   1.844  1.00  0.00    -0.132 N 
ATOM     16  H4  UNL     1      -0.154  -0.080   2.830  1.00  0.00     0.205 HD
BRANCH  15  17
HETATM   17  N5  UNL     1      -1.683   0.172   1.430  1.00  0.00    -0.295 N 
HETATM   18  C6  UNL     1      -2.354  -0.749   0.878  1.00  0.00     0.141 C 
ATOM     19  H5  UNL     1      -2.152   1.065   1.582  1.00  0.00     0.186 HD
BRANCH  18  20
HETATM   20  C7  UNL     1      -3.719  -0.666   0.441  1.00  0.00     0.098 C 
HETATM   21  C8  UNL     1      -4.354   0.471   0.623  1.00  0.00     0.132 C 
HETATM   22  C9  UNL     1      -5.777   0.742   0.237  1.00  0.00     0.040 C 
HETATM   23  C10 UNL     1      -6.542   0.051  -0.574  1.00  0.00     0.021 C 
HETATM   24  C11 UNL     1      -6.236  -1.163  -1.325  1.00  0.00     0.107 C 
HETATM   25  N7  UNL     1      -5.241  -1.997  -1.145  1.00  0.00    -0.311 N 
HETATM   26  N8  UNL     1      -4.254  -1.875  -0.170  1.00  0.00    -0.297 N 
ATOM     27  H7  UNL     1      -5.185  -2.801  -1.770  1.00  0.00     0.186 HD
ATOM     28  H8  UNL     1      -3.851  -2.752   0.161  1.00  0.00     0.187 HD
BRANCH  21  29
HETATM   29  N6  UNL     1      -3.724   1.583   1.230  1.00  0.00    -0.113 N 
HETATM   30  O4  UNL     1      -3.809   1.762   2.442  1.00  0.00    -0.532 OA
HETATM   31  O5  UNL     1      -3.058   2.478   0.445  1.00  0.00    -0.532 OA
ENDBRANCH  21  29
ENDBRANCH  18  20
ENDBRANCH  15  17
ENDBRANCH  10  15
BRANCH   6  32
HETATM   32  C3  UNL     1       5.370  -0.187   1.017  1.00  0.00     0.198 C 
BRANCH  32  33
HETATM   33  C4  UNL     1       5.810   0.803  -0.054  1.00  0.00     0.272 C 
BRANCH  33  34
HETATM   34  O2  UNL     1       7.136   0.432  -0.377  1.00  0.00    -0.370 OA
ATOM     35  H2  UNL     1       7.410   1.049  -1.045  1.00  0.00     0.212 HD
ENDBRANCH  33  34
BRANCH  33  36
HETATM   36  O3  UNL     1       5.877   2.099   0.437  1.00  0.00    -0.370 OA
ATOM     37  H3  UNL     1       6.151   2.716  -0.231  1.00  0.00     0.212 HD
ENDBRANCH  33  36
ENDBRANCH  32  33
ENDBRANCH   6  32
TORSDOF 8
