REMARK  5 active torsions:
REMARK  status: ('A' for Active; 'I' for Inactive)
REMARK    1  A    between atoms: C2_2  and  S1_3 
REMARK    2  A    between atoms: S1_3  and  C3_4 
REMARK    3  A    between atoms: C8_15  and  O6_16 
REMARK    4  A    between atoms: C8_15  and  C9_18 
REMARK    5  A    between atoms: C14_23  and  O7_24 
ROOT
HETATM    1  C3  UNL     1       2.680  -0.197  -0.174  1.00  0.00     0.267 C 
HETATM    2  C4  UNL     1       1.329  -0.373   0.377  1.00  0.00     0.231 A 
HETATM    3  O1  UNL     1       1.386  -1.396   1.344  1.00  0.00    -0.324 OA
HETATM    4  C5  UNL     1       2.299  -1.174   2.326  1.00  0.00     0.363 C 
HETATM    5  O2  UNL     1       2.680   0.142   2.508  1.00  0.00    -0.248 OA
HETATM    6  S2  UNL     1       3.649   0.529   1.159  1.00  0.00     0.286 S 
HETATM    7  O3  UNL     1       3.793   1.992   0.993  1.00  0.00    -0.197 OA
HETATM    8  O4  UNL     1       4.954  -0.178   1.323  1.00  0.00    -0.197 OA
HETATM    9  O5  UNL     1       0.688   0.701   0.961  1.00  0.00    -0.333 OA
HETATM   10  C6  UNL     1      -0.408   0.689   0.079  1.00  0.00     0.129 A 
HETATM   11  C7  UNL     1      -0.559   2.018  -0.520  1.00  0.00     0.053 C 
HETATM   12  C8  UNL     1      -1.554  -0.079   0.557  1.00  0.00     0.101 C 
HETATM   13  C13 UNL     1      -0.890  -1.336   0.037  1.00  0.00     0.088 C 
HETATM   14  C14 UNL     1       0.176  -0.457  -0.560  1.00  0.00     0.153 A 
ENDROOT
BRANCH   1  15
HETATM   15  S1  UNL     1       2.811   0.729  -1.689  1.00  0.00    -0.114 SA
BRANCH  15  16
HETATM   16  C2  UNL     1       4.465   0.894  -2.284  1.00  0.00     0.036 C 
HETATM   17  C1  UNL     1       5.080  -0.157  -2.796  1.00  0.00     0.018 C 
ENDBRANCH  15  16
ENDBRANCH   1  15
BRANCH  14  18
HETATM   18  O7  UNL     1       0.447  -0.547  -1.867  1.00  0.00    -0.381 OA
ATOM     19  H7  UNL     1      -0.289  -0.601  -2.465  1.00  0.00     0.211 HD
ENDBRANCH  14  18
BRANCH  12  20
HETATM   20  O6  UNL     1      -1.562  -0.094   1.966  1.00  0.00    -0.386 OA
ATOM     21  H6  UNL     1      -2.308  -0.594   2.277  1.00  0.00     0.210 HD
ENDBRANCH  12  20
BRANCH  12  22
HETATM   22  C9  UNL     1      -2.908   0.105   0.024  1.00  0.00    -0.017 C 
HETATM   23  C10 UNL     1      -3.832  -0.874   0.774  1.00  0.00     0.018 C 
HETATM   24  C11 UNL     1      -3.539   1.446   0.176  1.00  0.00     0.018 C 
HETATM   25  C12 UNL     1      -3.087  -0.279  -1.434  1.00  0.00     0.018 C 
ENDBRANCH  12  22
TORSDOF 5
