REMARK  6 active torsions:
REMARK  status: ('A' for Active; 'I' for Inactive)
REMARK    1  A    between atoms: C2_2  and  C3_3 
REMARK    2  A    between atoms: C10_10  and  O1_11 
REMARK    3  A    between atoms: C13_15  and  O2_16 
REMARK    4  A    between atoms: C14_18  and  O3_19 
REMARK    5  A    between atoms: C18_23  and  C20_25 
REMARK    6  A    between atoms: C20_25  and  O4_26 
ROOT
HETATM    1  C3  UNL     1      -0.582   1.506  -0.650  1.00  0.00    -0.007 C 
HETATM    2  C4  UNL     1      -0.130   0.305  -1.416  1.00  0.00     0.015 C 
HETATM    3  C5  UNL     1      -0.101  -1.046  -0.907  1.00  0.00    -0.028 C 
HETATM    4  C6  UNL     1      -0.186  -1.783   0.306  1.00  0.00     0.011 C 
HETATM    5  C7  UNL     1      -0.152  -1.141   1.658  1.00  0.00     0.007 C 
HETATM    6  C8  UNL     1       0.286   0.225   1.114  1.00  0.00     0.003 C 
HETATM    7  C9  UNL     1      -0.967   0.725   0.538  1.00  0.00     0.023 C 
HETATM    8  C10 UNL     1      -2.142  -0.073   0.107  1.00  0.00     0.123 C 
HETATM    9  C11 UNL     1      -2.293  -0.779  -1.194  1.00  0.00     0.040 C 
HETATM   10  C12 UNL     1      -1.232  -1.705  -1.718  1.00  0.00     0.028 C 
HETATM   11  C13 UNL     1      -0.637  -1.627  -3.034  1.00  0.00     0.152 C 
HETATM   12  C14 UNL     1       0.901  -1.425  -2.882  1.00  0.00     0.154 C 
HETATM   13  C16 UNL     1       1.245  -1.512  -1.492  1.00  0.00     0.027 C 
HETATM   14  C17 UNL     1       2.083  -0.592  -0.681  1.00  0.00     0.019 C 
HETATM   15  C18 UNL     1       1.635   0.049   0.566  1.00  0.00    -0.018 C 
HETATM   16  C19 UNL     1       2.478   1.367   0.639  1.00  0.00     0.018 C 
ENDROOT
BRANCH  15  17
HETATM   17  C20 UNL     1       2.394  -0.679   1.728  1.00  0.00     0.176 C 
BRANCH  17  18
HETATM   18  O4  UNL     1       2.374   0.087   2.853  1.00  0.00    -0.395 OA
HETATM   19  C21 UNL     1       3.027  -0.514   3.889  1.00  0.00     0.201 C 
ENDBRANCH  17  18
ENDBRANCH  15  17
BRANCH   1  20
HETATM   20  C2  UNL     1      -1.482   2.466  -1.301  1.00  0.00     0.000 C 
HETATM   21  C1  UNL     1      -1.809   3.596  -0.378  1.00  0.00     0.005 C 
ENDBRANCH   1  20
BRANCH   8  22
HETATM   22  O1  UNL     1      -3.239   0.855   0.050  1.00  0.00    -0.395 OA
ATOM     23  H1  UNL     1      -3.991   0.344  -0.226  1.00  0.00     0.210 HD
ENDBRANCH   8  22
BRANCH  12  24
HETATM   24  O3  UNL     1       1.517  -2.396  -3.675  1.00  0.00    -0.388 OA
HETATM   25  C15 UNL     1       2.141  -1.961  -4.787  1.00  0.00     0.202 C 
ENDBRANCH  12  24
BRANCH  11  26
HETATM   26  O2  UNL     1      -0.845  -2.862  -3.716  1.00  0.00    -0.393 OA
ATOM     27  H2  UNL     1      -0.454  -2.811  -4.580  1.00  0.00     0.210 HD
ENDBRANCH  11  26
TORSDOF 6
