REMARK  14 active torsions:
REMARK  status: ('A' for Active; 'I' for Inactive)
REMARK    1  A    between atoms: C2_2  and  C3_3 
REMARK    2  A    between atoms: C3_3  and  C4_4 
REMARK    3  A    between atoms: C4_4  and  C5_5 
REMARK    4  A    between atoms: C5_5  and  C6_6 
REMARK    5  A    between atoms: C6_6  and  C7_7 
REMARK    6  A    between atoms: C7_7  and  C8_8 
REMARK       I    between atoms: C8_8  and  N1_10 
REMARK    7  A    between atoms: N1_10  and  C9_12 
REMARK    8  A    between atoms: C10_13  and  O2_14 
REMARK    9  A    between atoms: C11_16  and  O3_17 
REMARK   10  A    between atoms: C20_29  and  C21_30 
REMARK   11  A    between atoms: C21_30  and  C22_31 
REMARK   12  A    between atoms: C22_31  and  C23_32 
REMARK   13  A    between atoms: C23_32  and  N3_33 
REMARK   14  A    between atoms: N3_33  and  C26_36 
ROOT
HETATM    1  C9  UNL     1      -0.491  -1.178  -1.432  1.00  0.00     0.026 C 
HETATM    2  C10 UNL     1       0.041  -2.456  -1.986  1.00  0.00     0.193 C 
HETATM    3  C11 UNL     1       1.151  -2.816  -1.039  1.00  0.00     0.161 C 
HETATM    4  C12 UNL     1       0.981  -2.179   0.267  1.00  0.00     0.052 C 
HETATM    5  C13 UNL     1       1.152  -3.190   1.239  1.00  0.00    -0.013 C 
HETATM    6  C14 UNL     1      -0.178  -3.732   1.041  1.00  0.00     0.066 A 
HETATM    7  N2  UNL     1      -0.331  -4.849   1.229  1.00  0.00    -0.394 N 
ATOM      8  H2  UNL     1      -0.121  -5.815   1.480  1.00  0.00     0.155 HD
HETATM    9  C15 UNL     1      -1.014  -3.800   0.838  1.00  0.00     0.067 A 
HETATM   10  C16 UNL     1      -2.249  -4.102   0.564  1.00  0.00    -0.006 A 
HETATM   11  C17 UNL     1      -1.662  -3.275   0.555  1.00  0.00     0.035 A 
HETATM   12  C18 UNL     1      -2.198  -1.932   0.170  1.00  0.00     0.030 C 
HETATM   13  C19 UNL     1      -0.979  -1.285   0.009  1.00  0.00     0.049 C 
HETATM   14  C20 UNL     1      -0.453  -2.254   0.889  1.00  0.00     0.024 A 
ENDROOT
BRANCH   1  15
HETATM   15  N1  UNL     1      -1.291  -0.419  -2.284  1.00  0.00    -0.328 N 
HETATM   16  C8  UNL     1      -0.899   0.811  -2.940  1.00  0.00     0.245 C 
HETATM   17  O1  UNL     1       0.259   1.210  -2.728  1.00  0.00    -0.268 OA
ATOM     18  H1  UNL     1      -2.236  -0.760  -2.461  1.00  0.00     0.168 HD
BRANCH  16  19
HETATM   19  C7  UNL     1      -1.863   1.462  -3.768  1.00  0.00     0.074 C 
BRANCH  19  20
HETATM   20  C6  UNL     1      -1.657   2.721  -4.463  1.00  0.00     0.002 C 
BRANCH  20  21
HETATM   21  C5  UNL     1      -1.405   3.996  -3.815  1.00  0.00    -0.026 C 
BRANCH  21  22
HETATM   22  C4  UNL     1      -0.195   4.330  -3.053  1.00  0.00     0.027 C 
BRANCH  22  23
HETATM   23  C3  UNL     1       1.079   4.313  -3.875  1.00  0.00     0.003 C 
BRANCH  23  24
HETATM   24  C2  UNL     1       2.253   4.672  -2.967  1.00  0.00    -0.004 C 
HETATM   25  C1  UNL     1       3.551   4.647  -3.760  1.00  0.00     0.005 C 
ENDBRANCH  23  24
ENDBRANCH  22  23
ENDBRANCH  21  22
ENDBRANCH  20  21
ENDBRANCH  19  20
ENDBRANCH  16  19
ENDBRANCH   1  15
BRANCH   2  26
HETATM   26  O2  UNL     1       0.581  -2.100  -3.250  1.00  0.00    -0.387 OA
ATOM     27  H2  UNL     1       0.920  -2.914  -3.603  1.00  0.00     0.210 HD
ENDBRANCH   2  26
BRANCH   3  28
HETATM   28  O3  UNL     1       1.483  -4.172  -1.051  1.00  0.00    -0.392 OA
ATOM     29  H3  UNL     1       2.185  -4.400  -0.452  1.00  0.00     0.210 HD
ENDBRANCH   3  28
BRANCH  14  30
HETATM   30  C21 UNL     1      -0.576  -1.831   2.241  1.00  0.00     0.017 C 
BRANCH  30  31
HETATM   31  C22 UNL     1      -0.135  -0.407   2.480  1.00  0.00     0.029 C 
BRANCH  31  32
HETATM   32  C23 UNL     1      -0.349  -0.245   4.006  1.00  0.00     0.238 C 
BRANCH  32  33
HETATM   33  N3  UNL     1       0.013   1.068   4.402  1.00  0.00    -0.062 N 
HETATM   34  C24 UNL     1      -0.312   2.080   3.434  1.00  0.00     0.273 C 
HETATM   35  C25 UNL     1       1.424   1.152   4.708  1.00  0.00     0.273 C 
BRANCH  33  36
HETATM   36  C26 UNL     1      -0.706   1.367   5.634  1.00  0.00     0.350 C 
HETATM   37 CL1  UNL     1      -0.425   3.056   6.097  1.00  0.00    -0.101 Cl
ENDBRANCH  33  36
ENDBRANCH  32  33
ENDBRANCH  31  32
ENDBRANCH  30  31
ENDBRANCH  14  30
TORSDOF 14
