REMARK  10 active torsions:
REMARK  status: ('A' for Active; 'I' for Inactive)
REMARK    1  A    between atoms: C2_2  and  O1_3 
REMARK    2  A    between atoms: C2_2  and  O2_5 
REMARK    3  A    between atoms: C2_2  and  C3_7 
REMARK    4  A    between atoms: C3_7  and  O3_8 
REMARK    5  A    between atoms: C3_7  and  C4_10 
REMARK    6  A    between atoms: C8_16  and  C9_17 
REMARK    7  A    between atoms: C10_20  and  C11_21 
REMARK    8  A    between atoms: C11_21  and  O8_22 
REMARK    9  A    between atoms: O8_22  and  C12_23 
REMARK   10  A    between atoms: C15_27  and  O9_28 
ROOT
HETATM    1  C12 UNL     1       0.900  -4.503   2.362  1.00  0.00     0.291 C 
HETATM    2  C13 UNL     1       0.227  -5.056   3.534  1.00  0.00     0.085 C 
HETATM    3  N1  UNL     1      -0.307  -5.517   4.467  1.00  0.00    -0.195 NA
ENDROOT
BRANCH   1   4
HETATM    4  O8  UNL     1       0.308  -3.289   2.010  1.00  0.00    -0.377 OA
BRANCH   4   5
HETATM    5  C11 UNL     1       0.968  -2.787   0.892  1.00  0.00     0.182 C 
BRANCH   5   6
HETATM    6  C10 UNL     1       0.359  -1.491   0.492  1.00  0.00     0.031 C 
HETATM    7  C8  UNL     1      -1.099  -1.638   0.147  1.00  0.00     0.170 C 
HETATM    8  C6  UNL     1      -1.332  -0.362   0.796  1.00  0.00     0.050 C 
HETATM    9  O5  UNL     1      -1.784  -2.261   1.211  1.00  0.00    -0.366 OA
HETATM   10  C5  UNL     1      -1.544   0.893   0.161  1.00  0.00     0.184 C 
HETATM   11  C7  UNL     1      -2.556  -1.072   1.319  1.00  0.00     0.185 C 
HETATM   12  C17 UNL     1      -0.158  -0.629   1.664  1.00  0.00     0.019 C 
HETATM   13  O4  UNL     1      -0.667   1.923   0.328  1.00  0.00    -0.379 OA
HETATM   14  C4  UNL     1       0.564   1.795  -0.267  1.00  0.00     0.189 C 
HETATM   15  C15 UNL     1       1.353   0.724   0.418  1.00  0.00     0.088 C 
HETATM   16  C14 UNL     1       1.149  -0.569  -0.364  1.00  0.00     0.056 C 
HETATM   17  C16 UNL     1       0.841   0.448   1.817  1.00  0.00     0.047 C 
BRANCH   7  18
HETATM   18  C9  UNL     1      -1.534  -2.049  -1.127  1.00  0.00     0.211 C 
HETATM   19  O6  UNL     1      -2.473  -2.918  -1.221  1.00  0.00    -0.646 OA
HETATM   20  O7  UNL     1      -1.075  -1.631  -2.376  1.00  0.00    -0.646 OA
ENDBRANCH   7  18
BRANCH  14  21
HETATM   21  C3  UNL     1       1.275   3.076  -0.507  1.00  0.00     0.211 C 
BRANCH  21  22
HETATM   22  C2  UNL     1       1.399   4.001   0.677  1.00  0.00     0.184 C 
HETATM   23  C1  UNL     1       0.074   4.489   1.188  1.00  0.00     0.081 C 
BRANCH  22  24
HETATM   24  O1  UNL     1       2.065   5.147   0.158  1.00  0.00    -0.364 OA
ATOM     25  H1  UNL     1       2.903   4.838  -0.165  1.00  0.00     0.213 HD
ENDBRANCH  22  24
BRANCH  22  26
HETATM   26  O2  UNL     1       2.230   3.490   1.624  1.00  0.00    -0.364 OA
ATOM     27  H2  UNL     1       3.068   3.181   1.301  1.00  0.00     0.213 HD
ENDBRANCH  22  26
ENDBRANCH  21  22
BRANCH  21  28
HETATM   28  O3  UNL     1       0.521   3.865  -1.448  1.00  0.00    -0.387 OA
ATOM     29  H3  UNL     1       0.443   3.282  -2.194  1.00  0.00     0.210 HD
ENDBRANCH  21  28
ENDBRANCH  14  21
BRANCH  15  30
HETATM   30  O9  UNL     1       2.719   0.998   0.527  1.00  0.00    -0.387 OA
ATOM     31  H9  UNL     1       3.220   0.318   0.962  1.00  0.00     0.210 HD
ENDBRANCH  15  30
ENDBRANCH   5   6
ENDBRANCH   4   5
ENDBRANCH   1   4
TORSDOF 10
