REMARK  14 active torsions:
REMARK  status: ('A' for Active; 'I' for Inactive)
REMARK    1  A    between atoms: C2_2  and  C3_3 
REMARK    2  A    between atoms: C3_3  and  C6_6 
REMARK    3  A    between atoms: C6_6  and  O1_7 
REMARK    4  A    between atoms: C12_14  and  O3_15 
REMARK    5  A    between atoms: C13_17  and  C14_18 
REMARK    6  A    between atoms: C14_18  and  C15_19 
REMARK    7  A    between atoms: C15_19  and  C16_20 
REMARK    8  A    between atoms: C15_19  and  C19_23 
REMARK    9  A    between atoms: C23_27  and  C24_28 
REMARK   10  A    between atoms: C24_28  and  O4_29 
REMARK   11  A    between atoms: O4_29  and  C25_30 
REMARK   12  A    between atoms: C28_34  and  O6_35 
REMARK   13  A    between atoms: O6_35  and  C29_36 
REMARK   14  A    between atoms: C29_36  and  C30_38 
ROOT
HETATM    1  C6  UNL     1       2.251   1.330   0.050  1.00  0.00     0.145 C 
HETATM    2  C8  UNL     1       2.562   0.497   1.285  1.00  0.00     0.014 C 
HETATM    3  C9  UNL     1       1.632  -0.034   2.069  1.00  0.00    -0.012 C 
HETATM    4  C10 UNL     1       0.287   0.211   1.709  1.00  0.00     0.039 C 
HETATM    5  C11 UNL     1       0.006   1.732   1.992  1.00  0.00     0.188 C 
HETATM    6  O2  UNL     1       0.166   2.285   0.781  1.00  0.00    -0.350 OA
HETATM    7  C12 UNL     1       0.725   1.431  -0.096  1.00  0.00     0.207 C 
HETATM    8  C13 UNL     1       0.033   0.101   0.307  1.00  0.00     0.038 C 
HETATM    9  C27 UNL     1      -1.423   0.224   0.767  1.00  0.00     0.050 C 
HETATM   10  C28 UNL     1      -0.953  -0.434   2.077  1.00  0.00     0.148 C 
ENDROOT
BRANCH   8  11
HETATM   11  C14 UNL     1       0.112  -0.784  -0.785  1.00  0.00     0.026 C 
BRANCH  11  12
HETATM   12  C15 UNL     1      -0.503  -2.105  -1.013  1.00  0.00     0.019 C 
BRANCH  12  13
HETATM   13  C16 UNL     1      -0.120  -3.207  -0.102  1.00  0.00    -0.088 C 
HETATM   14  C17 UNL     1      -1.058  -3.908   0.506  1.00  0.00     0.014 C 
HETATM   15  C18 UNL     1       1.281  -3.560   0.162  1.00  0.00     0.043 C 
ENDBRANCH  12  13
BRANCH  12  16
HETATM   16  C19 UNL     1       0.070  -2.616  -2.354  1.00  0.00     0.004 C 
HETATM   17  C20 UNL     1      -0.408  -3.950  -2.803  1.00  0.00    -0.013 C 
HETATM   18  C21 UNL     1      -1.845  -4.305  -2.683  1.00  0.00     0.010 C 
HETATM   19  C22 UNL     1      -0.167  -3.427  -4.237  1.00  0.00     0.012 C 
HETATM   20  C23 UNL     1      -0.444  -2.039  -3.606  1.00  0.00     0.015 C 
BRANCH  20  21
HETATM   21  C24 UNL     1       0.430  -1.062  -4.363  1.00  0.00     0.183 C 
BRANCH  21  22
HETATM   22  O4  UNL     1       1.662  -1.698  -4.736  1.00  0.00    -0.321 OA
BRANCH  22  23
HETATM   23  C25 UNL     1       2.608  -0.971  -5.442  1.00  0.00     0.254 C 
HETATM   24  C26 UNL     1       3.902  -1.523  -5.874  1.00  0.00     0.126 C 
HETATM   25  O5  UNL     1       2.324   0.233  -5.721  1.00  0.00    -0.266 OA
ENDBRANCH  22  23
ENDBRANCH  21  22
ENDBRANCH  20  21
ENDBRANCH  12  16
ENDBRANCH  11  12
ENDBRANCH   8  11
BRANCH   7  26
HETATM   26  O3  UNL     1       0.399   1.666  -1.423  1.00  0.00    -0.362 OA
ATOM     27  H3  UNL     1      -0.545   1.728  -1.513  1.00  0.00     0.213 HD
ENDBRANCH   7  26
BRANCH  10  28
HETATM   28  O6  UNL     1      -1.527   0.209   3.241  1.00  0.00    -0.311 OA
BRANCH  28  29
HETATM   29  C29 UNL     1      -2.119  -0.492   4.245  1.00  0.00     0.295 C 
HETATM   30  O7  UNL     1      -2.151  -1.762   4.124  1.00  0.00    -0.259 OA
BRANCH  29  31
HETATM   31  C30 UNL     1      -2.715   0.102   5.442  1.00  0.00     0.064 A 
HETATM   32  C31 UNL     1      -3.323  -0.570   6.481  1.00  0.00     0.159 A 
HETATM   33  O8  UNL     1      -3.740   0.273   7.380  1.00  0.00    -0.326 OA
HETATM   34  C32 UNL     1      -3.445   1.509   7.004  1.00  0.00     0.049 A 
HETATM   35  C33 UNL     1      -3.771   2.717   7.787  1.00  0.00     0.076 C 
HETATM   36  C34 UNL     1      -2.789   1.431   5.771  1.00  0.00     0.051 A 
ENDBRANCH  29  31
ENDBRANCH  28  29
ENDBRANCH  10  28
BRANCH   1  37
HETATM   37  C3  UNL     1       2.938   2.640   0.002  1.00  0.00     0.010 C 
HETATM   38  C4  UNL     1       2.399   3.715   0.954  1.00  0.00     0.023 C 
HETATM   39  C5  UNL     1       4.422   2.654   0.289  1.00  0.00     0.023 C 
BRANCH  37  40
HETATM   40  C2  UNL     1       2.792   3.287  -1.360  1.00  0.00    -0.025 C 
HETATM   41  C1  UNL     1       2.460   4.516  -1.603  1.00  0.00     0.008 C 
ENDBRANCH  37  40
ENDBRANCH   1  37
BRANCH   1  42
HETATM   42  O1  UNL     1       2.763   0.536  -0.948  1.00  0.00    -0.374 OA
HETATM   43  C7  UNL     1       4.021   0.140  -1.062  1.00  0.00     0.203 C 
ENDBRANCH   1  42
TORSDOF 14
