REMARK  7 active torsions:
REMARK  status: ('A' for Active; 'I' for Inactive)
REMARK    1  A    between atoms: C6_6  and  O1_7 
REMARK    2  A    between atoms: O1_7  and  C7_8 
REMARK    3  A    between atoms: C9_10  and  O2_11 
REMARK    4  A    between atoms: C18_23  and  O5_24 
REMARK    5  A    between atoms: O5_24  and  O6_25 
REMARK    6  A    between atoms: C20_28  and  O7_29 
REMARK    7  A    between atoms: C27_37  and  O8_38 
ROOT
HETATM    1  C1  UNL     1      -2.164   0.450  -3.162  1.00  0.00     0.024 C 
HETATM    2  C2  UNL     1      -1.258   0.392  -2.234  1.00  0.00    -0.039 C 
HETATM    3  C3  UNL     1      -0.601  -0.833  -2.125  1.00  0.00    -0.038 A 
HETATM    4  C4  UNL     1       0.045  -2.030  -2.034  1.00  0.00     0.029 A 
HETATM    5  C5  UNL     1       0.220  -2.999  -0.740  1.00  0.00     0.058 C 
HETATM    6  C6  UNL     1      -0.253  -2.270   0.405  1.00  0.00     0.196 C 
HETATM    7  C14 UNL     1      -1.257  -1.800  -0.529  1.00  0.00     0.172 C 
HETATM    8  O4  UNL     1      -2.197  -1.058  -0.221  1.00  0.00    -0.294 OA
HETATM    9  C15 UNL     1      -0.248  -1.580  -1.649  1.00  0.00     0.063 A 
HETATM   10  C16 UNL     1       1.118  -0.899  -1.549  1.00  0.00    -0.028 C 
HETATM   11  C17 UNL     1       1.639   0.047  -2.528  1.00  0.00     0.066 C 
HETATM   12  C18 UNL     1       2.624   0.986  -1.800  1.00  0.00     0.110 A 
HETATM   13  C19 UNL     1       2.989   2.280  -2.159  1.00  0.00     0.061 A 
HETATM   14  C20 UNL     1       2.078   3.144  -2.966  1.00  0.00     0.130 C 
HETATM   15  C21 UNL     1       1.065   2.982  -1.835  1.00  0.00     0.026 C 
HETATM   16  C22 UNL     1      -0.266   2.694  -2.373  1.00  0.00     0.042 C 
HETATM   17  C23 UNL     1      -1.108   1.678  -1.556  1.00  0.00    -0.074 C 
HETATM   18  C24 UNL     1      -0.761   1.946  -0.171  1.00  0.00     0.044 C 
HETATM   19  C25 UNL     1       1.862   1.999  -1.132  1.00  0.00     0.040 A 
HETATM   20  C26 UNL     1      -0.620  -2.618  -2.852  1.00  0.00     0.055 A 
HETATM   21  C27 UNL     1       0.650  -2.460  -3.283  1.00  0.00     0.139 A 
ENDROOT
BRANCH   6  22
HETATM   22  O1  UNL     1      -0.630  -2.946   1.503  1.00  0.00    -0.348 OA
BRANCH  22  23
HETATM   23  C7  UNL     1      -0.486  -2.137   2.636  1.00  0.00     0.263 C 
HETATM   24  C8  UNL     1       0.569  -2.685   3.530  1.00  0.00     0.092 C 
HETATM   25  C9  UNL     1       0.805  -1.869   4.748  1.00  0.00     0.122 C 
HETATM   26  C10 UNL     1       0.258  -0.482   4.706  1.00  0.00     0.034 C 
HETATM   27  C11 UNL     1      -1.216  -0.424   4.972  1.00  0.00     0.034 C 
HETATM   28  C12 UNL     1      -2.081  -0.926   3.875  1.00  0.00     0.120 C 
HETATM   29  C13 UNL     1      -3.466  -1.264   4.455  1.00  0.00     0.039 C 
HETATM   30  O3  UNL     1      -1.712  -1.933   3.126  1.00  0.00    -0.356 OA
BRANCH  25  31
HETATM   31  O2  UNL     1       0.141  -2.536   5.807  1.00  0.00    -0.395 OA
ATOM     32  H2  UNL     1       0.292  -2.014   6.586  1.00  0.00     0.210 HD
ENDBRANCH  25  31
ENDBRANCH  22  23
ENDBRANCH   6  22
BRANCH  21  33
HETATM   33  O8  UNL     1       0.396  -1.942  -4.466  1.00  0.00    -0.394 OA
ATOM     34  H8  UNL     1       0.792  -2.223  -5.283  1.00  0.00     0.210 HD
ENDBRANCH  21  33
BRANCH  12  35
HETATM   35  O5  UNL     1       3.532   0.209  -1.046  1.00  0.00    -0.231 OA
BRANCH  35  36
HETATM   36  O6  UNL     1       4.394   0.956  -0.406  1.00  0.00    -0.250 OA
ATOM     37  H6  UNL     1       5.004   0.434   0.101  1.00  0.00     0.253 HD
ENDBRANCH  35  36
ENDBRANCH  12  35
BRANCH  14  38
HETATM   38  O7  UNL     1       1.688   2.692  -4.199  1.00  0.00    -0.395 OA
ATOM     39  H7  UNL     1       1.108   3.242  -4.713  1.00  0.00     0.210 HD
ENDBRANCH  14  38
TORSDOF 7
