REMARK  4 active torsions:
REMARK  status: ('A' for Active; 'I' for Inactive)
REMARK    1  A    between atoms: C2_2  and  C4_4 
REMARK    2  A    between atoms: C16_16  and  C17_17 
REMARK    3  A    between atoms: C24_28  and  O5_29 
REMARK    4  A    between atoms: C24_28  and  C25_31 
ROOT
HETATM    1  C4  UNL     1       1.940   3.418  -0.071  1.00  0.00     0.022 C 
HETATM    2  C5  UNL     1       2.431   2.888  -1.367  1.00  0.00    -0.001 C 
HETATM    3  C6  UNL     1       1.518   3.873  -2.057  1.00  0.00     0.011 C 
HETATM    4  C7  UNL     1       0.681   3.636  -0.819  1.00  0.00     0.003 C 
HETATM    5  C8  UNL     1       0.239   2.192  -1.187  1.00  0.00     0.048 C 
HETATM    6  C9  UNL     1       1.543   1.619  -1.537  1.00  0.00     0.002 C 
HETATM    7  C10 UNL     1       2.179   0.435  -0.986  1.00  0.00    -0.013 C 
HETATM    8  C11 UNL     1       3.670   0.665  -1.416  1.00  0.00     0.010 C 
HETATM    9  C12 UNL     1       1.765  -0.913  -1.582  1.00  0.00     0.017 C 
HETATM   10  C13 UNL     1       0.900  -1.778  -0.677  1.00  0.00    -0.025 C 
HETATM   11  C14 UNL     1       1.484  -3.213  -0.992  1.00  0.00     0.019 C 
HETATM   12  C15 UNL     1       1.183  -1.653   0.744  1.00  0.00    -0.009 C 
HETATM   13  C16 UNL     1       0.636  -0.880   1.700  1.00  0.00    -0.025 C 
HETATM   14  C20 UNL     1      -0.465   0.103   1.450  1.00  0.00     0.302 C 
HETATM   15  O1  UNL     1      -0.329   1.355   2.127  1.00  0.00    -0.283 OA
HETATM   16  C21 UNL     1      -0.764   2.302   1.147  1.00  0.00     0.305 C 
HETATM   17  O2  UNL     1      -1.156   3.459   1.430  1.00  0.00    -0.261 OA
HETATM   18  C22 UNL     1      -0.650   1.641  -0.195  1.00  0.00     0.218 C 
HETATM   19  O3  UNL     1      -0.064   0.560   0.256  1.00  0.00    -0.327 OA
HETATM   20  C23 UNL     1      -1.957   1.124  -0.680  1.00  0.00     0.206 C 
HETATM   21  O4  UNL     1      -2.913   1.877  -0.438  1.00  0.00    -0.291 OA
HETATM   22  C24 UNL     1      -2.289  -0.104  -1.382  1.00  0.00     0.124 C 
HETATM   23  C28 UNL     1      -1.226  -0.985  -1.913  1.00  0.00     0.047 C 
HETATM   24  C29 UNL     1      -0.536  -1.985  -1.103  1.00  0.00     0.016 C 
ENDROOT
BRANCH  22  25
HETATM   25  O5  UNL     1      -2.950   0.420  -2.553  1.00  0.00    -0.382 OA
ATOM     26  H5  UNL     1      -3.167  -0.383  -3.012  1.00  0.00     0.211 HD
ENDBRANCH  22  25
BRANCH  22  27
HETATM   27  C25 UNL     1      -3.460  -0.863  -0.734  1.00  0.00     0.019 C 
HETATM   28  C26 UNL     1      -3.719  -2.109  -1.551  1.00  0.00     0.013 C 
HETATM   29  C27 UNL     1      -4.731  -0.034  -0.811  1.00  0.00     0.013 C 
ENDBRANCH  22  27
BRANCH   1  30
HETATM   30  C2  UNL     1       2.575   4.607   0.487  1.00  0.00    -0.088 C 
HETATM   31  C1  UNL     1       2.707   4.654   1.839  1.00  0.00     0.014 C 
HETATM   32  C3  UNL     1       3.122   5.771  -0.244  1.00  0.00     0.043 C 
ENDBRANCH   1  30
BRANCH  13  33
HETATM   33  C17 UNL     1       1.076  -0.903   3.128  1.00  0.00     0.011 C 
HETATM   34  C18 UNL     1      -0.071  -1.242   4.026  1.00  0.00     0.014 C 
HETATM   35  C19 UNL     1       2.196  -1.892   3.350  1.00  0.00     0.014 C 
ENDBRANCH  13  33
TORSDOF 4
