REMARK  9 active torsions:
REMARK  status: ('A' for Active; 'I' for Inactive)
REMARK    1  A    between atoms: C2_2  and  C3_3 
REMARK    2  A    between atoms: C3_3  and  C4_4 
REMARK    3  A    between atoms: C4_4  and  O1_5 
REMARK    4  A    between atoms: C4_4  and  C5_7 
REMARK    5  A    between atoms: C6_8  and  C7_9 
REMARK    6  A    between atoms: C7_9  and  O2_10 
REMARK    7  A    between atoms: O2_10  and  C8_11 
REMARK    8  A    between atoms: C8_11  and  C9_12 
REMARK    9  A    between atoms: C23_30  and  C24_31 
ROOT
HETATM    1  C9  UNL     1      -0.035   0.136  -0.809  1.00  0.00     0.085 A 
HETATM    2  C10 UNL     1      -1.233  -0.712  -0.943  1.00  0.00    -0.026 C 
HETATM    3  C11 UNL     1      -2.520  -0.231  -1.370  1.00  0.00     0.006 C 
HETATM    4  C12 UNL     1      -3.345   0.791  -0.790  1.00  0.00     0.099 A 
HETATM    5  C13 UNL     1      -4.761   0.686  -1.350  1.00  0.00     0.275 C 
HETATM    6  O3  UNL     1      -4.972   0.820  -2.590  1.00  0.00    -0.264 OA
HETATM    7  O4  UNL     1      -5.640   0.445  -0.335  1.00  0.00    -0.315 OA
HETATM    8  C14 UNL     1      -5.124   1.095   0.810  1.00  0.00     0.134 C 
HETATM    9  C15 UNL     1      -5.711   2.465   0.902  1.00  0.00     0.040 C 
HETATM   10  C16 UNL     1      -3.606   1.112   0.587  1.00  0.00     0.046 A 
HETATM   11  C17 UNL     1      -3.065   2.512   0.379  1.00  0.00     0.027 A 
HETATM   12  C18 UNL     1      -1.659   2.609   0.880  1.00  0.00     0.041 A 
HETATM   13  C19 UNL     1      -0.825   2.485  -0.357  1.00  0.00     0.143 A 
HETATM   14  O5  UNL     1      -1.612   2.208  -1.426  1.00  0.00    -0.377 OA
HETATM   15  C20 UNL     1      -2.920   2.221  -1.063  1.00  0.00     0.149 A 
HETATM   16  C21 UNL     1       0.128   1.341  -0.151  1.00  0.00     0.123 A 
HETATM   17  N1  UNL     1      -0.192   0.268   0.723  1.00  0.00    -0.265 NA
HETATM   18  C22 UNL     1      -0.545  -1.022   1.196  1.00  0.00     0.069 C 
HETATM   19  C23 UNL     1      -1.187  -1.661   0.229  1.00  0.00    -0.036 C 
ENDROOT
BRANCH   1  20
HETATM   20  C8  UNL     1       1.317  -0.535  -1.188  1.00  0.00     0.201 C 
BRANCH  20  21
HETATM   21  O2  UNL     1       1.407  -1.789  -0.616  1.00  0.00    -0.377 OA
BRANCH  21  22
HETATM   22  C7  UNL     1       2.631  -2.324  -0.994  1.00  0.00     0.261 C 
BRANCH  22  23
HETATM   23  C6  UNL     1       3.695  -1.444  -0.504  1.00  0.00    -0.078 C 
HETATM   24  C5  UNL     1       4.570  -0.719  -0.085  1.00  0.00    -0.072 C 
BRANCH  24  25
HETATM   25  C4  UNL     1       5.609   0.173   0.421  1.00  0.00     0.200 C 
BRANCH  25  26
HETATM   26  C3  UNL     1       6.830   0.030  -0.442  1.00  0.00     0.071 C 
BRANCH  26  27
HETATM   27  C2  UNL     1       7.892   0.933   0.096  1.00  0.00    -0.033 C 
HETATM   28  C1  UNL     1       8.387   1.886  -0.657  1.00  0.00     0.007 C 
ENDBRANCH  26  27
ENDBRANCH  25  26
BRANCH  25  29
HETATM   29  O1  UNL     1       5.209   1.522   0.359  1.00  0.00    -0.383 OA
ATOM     30  H1  UNL     1       4.437   1.612   0.905  1.00  0.00     0.211 HD
ENDBRANCH  25  29
ENDBRANCH  24  25
ENDBRANCH  22  23
ENDBRANCH  21  22
ENDBRANCH  20  21
ENDBRANCH   1  20
BRANCH  19  31
HETATM   31  C24 UNL     1      -1.728  -3.014   0.402  1.00  0.00     0.012 C 
HETATM   32  C25 UNL     1      -1.334  -4.051  -0.573  1.00  0.00     0.015 C 
HETATM   33  C26 UNL     1      -1.429  -3.561   1.806  1.00  0.00     0.015 C 
ENDBRANCH  19  31
TORSDOF 9
