REMARK  17 active torsions:
REMARK  status: ('A' for Active; 'I' for Inactive)
REMARK    1  A    between atoms: C2_2  and  O1_5 
REMARK    2  A    between atoms: O1_5  and  C5_6 
REMARK    3  A    between atoms: C5_6  and  C6_8 
REMARK    4  A    between atoms: C6_8  and  C7_9 
REMARK    5  A    between atoms: C7_9  and  C8_10 
REMARK    6  A    between atoms: C8_10  and  O3_11 
REMARK       I    between atoms: N1_13  and  C9_15 
REMARK    7  A    between atoms: C9_15  and  C10_17 
REMARK    8  A    between atoms: C11_18  and  C12_19 
REMARK    9  A    between atoms: C12_19  and  C13_20 
REMARK   10  A    between atoms: C13_20  and  C14_21 
REMARK   11  A    between atoms: C14_21  and  C15_22 
REMARK   12  A    between atoms: C15_22  and  C16_23 
REMARK   13  A    between atoms: C16_23  and  C17_24 
REMARK   14  A    between atoms: C17_24  and  N2_25 
REMARK   15  A    between atoms: C17_24  and  C18_29 
REMARK       I    between atoms: N3_33  and  C20_34 
REMARK   16  A    between atoms: C20_34  and  O8_36 
REMARK   17  A    between atoms: O8_36  and  C21_37 
ROOT
HETATM    1  C10 UNL     1      -0.694   2.983   0.247  1.00  0.00     0.108 C 
HETATM    2  C11 UNL     1      -2.022   2.675  -0.355  1.00  0.00     0.025 C 
HETATM    3  C19 UNL     1      -1.655   2.931  -1.814  1.00  0.00     0.104 C 
HETATM    4  N3  UNL     1      -0.378   2.270  -1.888  1.00  0.00    -0.316 N 
HETATM    5  C20 UNL     1       0.270   1.153  -2.455  1.00  0.00     0.364 C 
HETATM    6  O7  UNL     1      -0.349   0.345  -3.190  1.00  0.00    -0.238 OA
HETATM    7  C26 UNL     1       0.077   3.341  -1.022  1.00  0.00     0.113 C 
HETATM    8  C27 UNL     1      -0.854   4.218  -1.783  1.00  0.00    -0.005 C 
HETATM    9  C28 UNL     1      -1.448   5.391  -1.107  1.00  0.00     0.019 C 
HETATM   10  C29 UNL     1      -0.395   4.552  -3.183  1.00  0.00     0.019 C 
ENDROOT
BRANCH   1  11
HETATM   11  C9  UNL     1      -0.004   1.941   1.001  1.00  0.00     0.228 C 
HETATM   12  N1  UNL     1       1.277   2.216   1.522  1.00  0.00    -0.331 N 
HETATM   13  C7  UNL     1       1.840   1.890   2.583  1.00  0.00     0.022 C 
ATOM     14  H1  UNL     1       1.854   2.794   0.911  1.00  0.00     0.168 HD
HETATM   15  O4  UNL     1      -0.485   0.818   1.210  1.00  0.00    -0.273 OA
BRANCH  13  16
HETATM   16  C6  UNL     1       1.199   1.060   3.617  1.00  0.00     0.165 C 
BRANCH  16  17
HETATM   17  C5  UNL     1       1.852  -0.249   3.732  1.00  0.00     0.265 C 
HETATM   18  O2  UNL     1       2.788  -0.592   2.993  1.00  0.00    -0.265 OA
BRANCH  17  19
HETATM   19  O1  UNL     1       1.455  -1.192   4.688  1.00  0.00    -0.311 OA
BRANCH  19  20
HETATM   20  C2  UNL     1       2.108  -2.435   4.770  1.00  0.00     0.060 C 
HETATM   21  C1  UNL     1       1.445  -3.218   5.881  1.00  0.00     0.045 C 
HETATM   22  C3  UNL     1       3.584  -2.262   5.151  1.00  0.00     0.045 C 
HETATM   23  C4  UNL     1       2.066  -3.241   3.525  1.00  0.00     0.045 C 
ENDBRANCH  19  20
ENDBRANCH  17  19
ENDBRANCH  16  17
ENDBRANCH  13  16
BRANCH  13  24
HETATM   24  C8  UNL     1       3.247   2.356   2.821  1.00  0.00     0.217 C 
BRANCH  24  25
HETATM   25  O3  UNL     1       3.331   3.146   3.969  1.00  0.00    -0.395 OA
ATOM     26  H3  UNL     1       4.221   3.441   4.120  1.00  0.00     0.209 HD
ENDBRANCH  24  25
ENDBRANCH  13  24
ENDBRANCH   1  11
BRANCH   2  27
HETATM   27  C12 UNL     1      -2.590   1.319  -0.146  1.00  0.00     0.007 C 
BRANCH  27  28
HETATM   28  C13 UNL     1      -3.958   1.328  -0.855  1.00  0.00     0.000 C 
BRANCH  28  29
HETATM   29  C14 UNL     1      -4.699   0.049  -0.721  1.00  0.00     0.000 C 
BRANCH  29  30
HETATM   30  C15 UNL     1      -3.917  -1.083  -1.312  1.00  0.00     0.002 C 
BRANCH  30  31
HETATM   31  C16 UNL     1      -4.753  -2.364  -1.154  1.00  0.00     0.044 C 
BRANCH  31  32
HETATM   32  C17 UNL     1      -3.949  -3.493  -1.754  1.00  0.00     0.283 C 
BRANCH  32  33
HETATM   33  N2  UNL     1      -3.701  -3.210  -3.139  1.00  0.00    -0.065 N 
ATOM     34  H23 UNL     1      -4.560  -3.028  -3.657  1.00  0.00     0.275 HD
ATOM     35  H22 UNL     1      -3.256  -2.302  -3.275  1.00  0.00     0.275 HD
ATOM     36  H21 UNL     1      -3.158  -3.972  -3.544  1.00  0.00     0.275 HD
ENDBRANCH  32  33
BRANCH  32  37
HETATM   37  C18 UNL     1      -4.699  -4.766  -1.585  1.00  0.00     0.204 C 
HETATM   38  O5  UNL     1      -5.017  -5.439  -2.591  1.00  0.00    -0.646 OA
HETATM   39  O6  UNL     1      -5.041  -5.199  -0.324  1.00  0.00    -0.646 OA
ENDBRANCH  32  37
ENDBRANCH  31  32
ENDBRANCH  30  31
ENDBRANCH  29  30
ENDBRANCH  28  29
ENDBRANCH  27  28
ENDBRANCH   2  27
BRANCH   5  40
HETATM   40  O8  UNL     1       1.613   0.881  -2.238  1.00  0.00    -0.298 OA
BRANCH  40  41
HETATM   41  C21 UNL     1       2.344  -0.186  -2.742  1.00  0.00     0.142 C 
HETATM   42  C22 UNL     1       3.205  -0.777  -1.653  1.00  0.00     0.017 C 
HETATM   43  C23 UNL     1       3.951   0.531  -1.699  1.00  0.00     0.014 C 
HETATM   44  C25 UNL     1       4.118  -1.218  -2.753  1.00  0.00     0.014 C 
HETATM   45  C24 UNL     1       3.746   0.180  -3.148  1.00  0.00     0.017 C 
ENDBRANCH  40  41
ENDBRANCH   5  40
TORSDOF 17
