REMARK  9 active torsions:
REMARK  status: ('A' for Active; 'I' for Inactive)
REMARK    1  A    between atoms: C2_2  and  C3_4 
REMARK    2  A    between atoms: C4_5  and  O2_6 
REMARK    3  A    between atoms: N1_9  and  O3_11 
REMARK    4  A    between atoms: O3_11  and  C6_12 
REMARK    5  A    between atoms: C6_12  and  C7_13 
REMARK    6  A    between atoms: C7_13  and  N2_14 
REMARK    7  A    between atoms: C18_25  and  O4_26 
REMARK    8  A    between atoms: C26_36  and  C28_38 
REMARK    9  A    between atoms: C28_38  and  C29_39 
ROOT
HETATM    1  C3  UNL     1       0.302  -0.146  -0.173  1.00  0.00     0.037 C 
HETATM    2  C4  UNL     1       0.232   0.326   1.221  1.00  0.00     0.102 C 
HETATM    3  C5  UNL     1       0.128   1.712   1.734  1.00  0.00     0.077 C 
HETATM    4  N1  UNL     1      -0.335   2.039   2.815  1.00  0.00    -0.267 N 
ATOM      5  H1  UNL     1      -0.316   3.045   2.980  1.00  0.00     0.194 HD
HETATM    6  C12 UNL     1       0.700   2.735   0.687  1.00  0.00     0.021 C 
HETATM    7  C13 UNL     1       1.761   3.376   1.584  1.00  0.00     0.026 C 
HETATM    8  C14 UNL     1      -0.137   3.847   0.345  1.00  0.00     0.026 C 
HETATM    9  C15 UNL     1       1.153   1.730  -0.227  1.00  0.00    -0.061 C 
HETATM   10  C16 UNL     1       1.744   0.935  -0.859  1.00  0.00     0.011 C 
HETATM   11  C17 UNL     1       3.116   0.413  -0.890  1.00  0.00     0.063 C 
HETATM   12  C18 UNL     1       3.017   0.119  -2.239  1.00  0.00     0.130 C 
HETATM   13  C19 UNL     1       3.996   0.475  -3.202  1.00  0.00     0.162 C 
HETATM   14  O5  UNL     1       4.886   1.251  -3.067  1.00  0.00    -0.295 OA
HETATM   15  C20 UNL     1       3.751  -0.298  -4.492  1.00  0.00     0.085 C 
HETATM   16  C21 UNL     1       2.227  -0.341  -4.535  1.00  0.00     0.031 C 
HETATM   17  C22 UNL     1       1.617   0.869  -3.772  1.00  0.00    -0.039 C 
HETATM   18  C23 UNL     1       1.744   1.030  -2.388  1.00  0.00     0.024 C 
HETATM   19  C24 UNL     1       2.304   2.470  -2.300  1.00  0.00     0.024 C 
HETATM   20  C25 UNL     1       0.688   0.878  -1.265  1.00  0.00     0.037 A 
HETATM   21  C26 UNL     1      -0.438   1.262  -1.818  1.00  0.00    -0.010 A 
HETATM   22  C27 UNL     1      -1.696   1.329  -1.138  1.00  0.00     0.018 C 
HETATM   23  O6  UNL     1       0.543   0.465  -1.819  1.00  0.00     0.000 OA
ENDROOT
BRANCH   2  24
HETATM   24  O2  UNL     1       1.165  -0.232   2.114  1.00  0.00    -0.358 OA
ATOM     25  H2  UNL     1       1.120   0.072   3.013  1.00  0.00     0.217 HD
ENDBRANCH   2  24
BRANCH   4  26
HETATM   26  O3  UNL     1      -0.862   1.339   3.826  1.00  0.00    -0.275 OA
BRANCH  26  27
HETATM   27  C6  UNL     1      -2.149   1.517   4.358  1.00  0.00     0.245 C 
BRANCH  27  28
HETATM   28  C7  UNL     1      -2.429   0.665   5.545  1.00  0.00     0.086 C 
BRANCH  28  29
HETATM   29  N2  UNL     1      -2.368  -0.726   5.408  1.00  0.00    -0.391 N 
HETATM   30  C8  UNL     1      -3.325  -1.402   4.623  1.00  0.00     0.122 C 
HETATM   31  C9  UNL     1      -3.000  -2.868   4.953  1.00  0.00     0.021 C 
HETATM   32  C10 UNL     1      -1.481  -2.815   4.930  1.00  0.00     0.021 C 
HETATM   33  C11 UNL     1      -1.114  -1.360   5.257  1.00  0.00     0.122 C 
ENDBRANCH  28  29
ENDBRANCH  27  28
ENDBRANCH  26  27
ENDBRANCH   4  26
BRANCH   1  34
HETATM   34  C2  UNL     1       0.426  -1.576  -0.259  1.00  0.00     0.155 C 
HETATM   35  C1  UNL     1       1.237  -2.499   0.596  1.00  0.00     0.096 C 
HETATM   36  O1  UNL     1      -0.177  -2.287  -1.113  1.00  0.00    -0.293 OA
ENDBRANCH   1  34
BRANCH  21  37
HETATM   37  C28 UNL     1      -0.991   1.312  -3.176  1.00  0.00     0.128 C 
BRANCH  37  38
HETATM   38  C29 UNL     1      -2.328   1.791  -3.582  1.00  0.00     0.388 C 
HETATM   39  F1  UNL     1      -2.285   1.612  -5.023  1.00  0.00    -0.171 F 
HETATM   40  F2  UNL     1      -3.444   1.080  -3.370  1.00  0.00    -0.171 F 
HETATM   41  F3  UNL     1      -2.532   3.178  -3.641  1.00  0.00    -0.171 F 
ENDBRANCH  37  38
ENDBRANCH  21  37
BRANCH  12  42
HETATM   42  O4  UNL     1       2.741  -1.227  -2.303  1.00  0.00    -0.381 OA
ATOM     43  H4  UNL     1       2.673  -1.429  -3.229  1.00  0.00     0.211 HD
ENDBRANCH  12  42
TORSDOF 9
