MODEL 1
REMARK VINA RESULT: -7.905030941      0.000      0.000
REMARK  14 active torsions:
REMARK  status: ('A' for Active; 'I' for Inactive)
REMARK    1  A    between atoms: C3_5  and  N2_6 
REMARK    2  A    between atoms: C6_9  and  N3_10 
REMARK       I    between atoms: N3_10  and  C7_12 
REMARK    3  A    between atoms: C7_12  and  C8_14 
REMARK    4  A    between atoms: C8_14  and  N4_16 
REMARK    5  A    between atoms: N6_24  and  C13_25 
REMARK    6  A    between atoms: C13_25  and  C14_26 
REMARK    7  A    between atoms: C14_26  and  C15_27 
REMARK    8  A    between atoms: C15_27  and  C16_28 
REMARK    9  A    between atoms: C16_28  and  C17_29 
REMARK   10  A    between atoms: C17_29  and  C18_30 
REMARK   11  A    between atoms: C18_30  and  C19_31 
REMARK   12  A    between atoms: C19_31  and  C20_32 
REMARK   13  A    between atoms: C20_32  and  C21_33 
REMARK   14  A    between atoms: C21_33  and  C22_34 
REMARK       I    between atoms: C22_34  and  N7_36 
ROOT
HETATM    1  C1  UNL     1      10.987   6.673  28.356  1.00  0.00     0.089 C 
HETATM    2  C2  UNL     1      10.961   7.295  27.023  1.00  0.00     0.082 A 
HETATM    3  N1  UNL     1      12.090   7.848  26.525  1.00  0.00    -0.332 N 
ATOM      4  H1  UNL     1      12.932   7.813  27.098  1.00  0.00     0.168 HD
HETATM    5  C3  UNL     1      12.171   8.441  25.324  1.00  0.00     0.107 A 
HETATM    6  C11 UNL     1      10.999   8.455  24.602  1.00  0.00     0.093 A 
HETATM    7  C12 UNL     1       9.831   7.879  25.125  1.00  0.00     0.123 A 
HETATM    8  N5  UNL     1       8.659   7.924  24.335  1.00  0.00    -0.082 NA
HETATM    9  N6  UNL     1       9.794   7.297  26.328  1.00  0.00    -0.325 N 
ENDROOT
BRANCH   9  10
HETATM   10  C13 UNL     1       8.610   6.677  26.891  1.00  0.00     0.131 C 
BRANCH  10  11
HETATM   11  C14 UNL     1       7.800   7.562  27.763  1.00  0.00     0.020 C 
BRANCH  11  12
HETATM   12  C15 UNL     1       7.006   6.742  28.732  1.00  0.00     0.002 C 
BRANCH  12  13
HETATM   13  C16 UNL     1       7.570   6.830  30.119  1.00  0.00     0.000 C 
BRANCH  13  14
HETATM   14  C17 UNL     1       6.804   5.933  31.043  1.00  0.00     0.000 C 
BRANCH  14  15
HETATM   15  C18 UNL     1       6.345   4.692  30.320  1.00  0.00     0.000 C 
BRANCH  15  16
HETATM   16  C19 UNL     1       7.023   3.487  30.869  1.00  0.00     0.000 C 
BRANCH  16  17
HETATM   17  C20 UNL     1       7.513   2.556  29.777  1.00  0.00     0.009 C 
BRANCH  17  18
HETATM   18  C21 UNL     1       8.234   3.226  28.671  1.00  0.00     0.103 C 
BRANCH  18  19
HETATM   19  C22 UNL     1       9.149   2.377  27.888  1.00  0.00     0.223 C 
HETATM   20  O2  UNL     1       8.913   1.167  27.642  1.00  0.00    -0.273 OA
HETATM   21  N7  UNL     1      10.376   2.891  27.356  1.00  0.00    -0.304 N 
HETATM   22  C23 UNL     1      10.399   3.449  26.206  1.00  0.00     0.203 C 
ATOM     23  H7  UNL     1      11.237   2.812  27.897  1.00  0.00     0.171 HD
HETATM   24  N8  UNL     1       9.209   3.558  25.457  1.00  0.00    -0.066 NA
HETATM   25  N9  UNL     1      11.623   3.961  25.691  1.00  0.00    -0.066 NA
ENDBRANCH  18  19
ENDBRANCH  17  18
ENDBRANCH  16  17
ENDBRANCH  15  16
ENDBRANCH  14  15
ENDBRANCH  13  14
ENDBRANCH  12  13
ENDBRANCH  11  12
ENDBRANCH  10  11
ENDBRANCH   9  10
BRANCH   5  26
HETATM   26  N2  UNL     1      13.388   9.028  24.861  1.00  0.00    -0.365 N 
HETATM   27  C4  UNL     1      14.707   8.798  25.413  1.00  0.00     0.126 C 
HETATM   28  C5  UNL     1      15.681   9.350  24.407  1.00  0.00     0.046 C 
HETATM   29  C6  UNL     1      14.852   9.499  23.132  1.00  0.00     0.104 C 
HETATM   30  C10 UNL     1      13.543   9.941  23.743  1.00  0.00     0.149 C 
BRANCH  29  31
HETATM   31  N3  UNL     1      15.403  10.578  22.367  1.00  0.00    -0.353 N 
HETATM   32  C7  UNL     1      16.433  10.385  21.406  1.00  0.00     0.248 C 
HETATM   33  O1  UNL     1      16.865   9.211  21.245  1.00  0.00    -0.271 OA
ATOM     34  H3  UNL     1      15.041  11.520  22.516  1.00  0.00     0.163 HD
BRANCH  32  35
HETATM   35  C8  UNL     1      16.933  11.564  20.659  1.00  0.00     0.270 C 
HETATM   36  C9  UNL     1      18.372  11.226  20.242  1.00  0.00     0.050 C 
BRANCH  35  37
HETATM   37  N4  UNL     1      17.000  12.655  21.623  1.00  0.00    -0.067 N 
ATOM     38  H43 UNL     1      16.377  13.432  21.402  1.00  0.00     0.275 HD
ATOM     39  H42 UNL     1      16.591  12.423  22.529  1.00  0.00     0.275 HD
ATOM     40  H41 UNL     1      17.983  12.924  21.678  1.00  0.00     0.275 HD
ENDBRANCH  35  37
ENDBRANCH  32  35
ENDBRANCH  29  31
ENDBRANCH   5  26
TORSDOF 14
ENDMDL
MODEL 2
REMARK VINA RESULT: -7.556364347      2.961      3.973
REMARK  14 active torsions:
REMARK  status: ('A' for Active; 'I' for Inactive)
REMARK    1  A    between atoms: C3_5  and  N2_6 
REMARK    2  A    between atoms: C6_9  and  N3_10 
REMARK       I    between atoms: N3_10  and  C7_12 
REMARK    3  A    between atoms: C7_12  and  C8_14 
REMARK    4  A    between atoms: C8_14  and  N4_16 
REMARK    5  A    between atoms: N6_24  and  C13_25 
REMARK    6  A    between atoms: C13_25  and  C14_26 
REMARK    7  A    between atoms: C14_26  and  C15_27 
REMARK    8  A    between atoms: C15_27  and  C16_28 
REMARK    9  A    between atoms: C16_28  and  C17_29 
REMARK   10  A    between atoms: C17_29  and  C18_30 
REMARK   11  A    between atoms: C18_30  and  C19_31 
REMARK   12  A    between atoms: C19_31  and  C20_32 
REMARK   13  A    between atoms: C20_32  and  C21_33 
REMARK   14  A    between atoms: C21_33  and  C22_34 
REMARK       I    between atoms: C22_34  and  N7_36 
ROOT
HETATM    1  C1  UNL     1      10.742   7.252  28.715  1.00  0.00     0.089 C 
HETATM    2  C2  UNL     1      10.987   7.293  27.265  1.00  0.00     0.082 A 
HETATM    3  N1  UNL     1      12.048   7.983  26.788  1.00  0.00    -0.332 N 
ATOM      4  H1  UNL     1      12.650   8.456  27.461  1.00  0.00     0.168 HD
HETATM    5  C3  UNL     1      12.356   8.084  25.487  1.00  0.00     0.107 A 
HETATM    6  C11 UNL     1      11.503   7.423  24.634  1.00  0.00     0.093 A 
HETATM    7  C12 UNL     1      10.403   6.709  25.134  1.00  0.00     0.123 A 
HETATM    8  N5  UNL     1       9.563   6.049  24.207  1.00  0.00    -0.082 NA
HETATM    9  N6  UNL     1      10.131   6.633  26.441  1.00  0.00    -0.325 N 
ENDROOT
BRANCH   9  10
HETATM   10  C13 UNL     1       9.015   5.889  26.994  1.00  0.00     0.131 C 
BRANCH  10  11
HETATM   11  C14 UNL     1       9.147   4.414  26.905  1.00  0.00     0.020 C 
BRANCH  11  12
HETATM   12  C15 UNL     1       9.293   3.828  28.274  1.00  0.00     0.002 C 
BRANCH  12  13
HETATM   13  C16 UNL     1       9.747   2.400  28.216  1.00  0.00     0.000 C 
BRANCH  13  14
HETATM   14  C17 UNL     1       8.844   1.539  29.046  1.00  0.00     0.000 C 
BRANCH  14  15
HETATM   15  C18 UNL     1       7.562   2.266  29.364  1.00  0.00     0.000 C 
BRANCH  15  16
HETATM   16  C19 UNL     1       7.099   1.930  30.737  1.00  0.00     0.000 C 
BRANCH  16  17
HETATM   17  C20 UNL     1       6.770   3.167  31.551  1.00  0.00     0.009 C 
BRANCH  17  18
HETATM   18  C21 UNL     1       6.650   4.413  30.760  1.00  0.00     0.103 C 
BRANCH  18  19
HETATM   19  C22 UNL     1       6.076   5.573  31.464  1.00  0.00     0.223 C 
HETATM   20  O2  UNL     1       6.496   6.746  31.301  1.00  0.00    -0.273 OA
HETATM   21  N7  UNL     1       4.989   5.425  32.387  1.00  0.00    -0.304 N 
HETATM   22  C23 UNL     1       3.780   5.463  31.973  1.00  0.00     0.203 C 
ATOM     23  H7  UNL     1       5.181   5.290  33.379  1.00  0.00     0.171 HD
HETATM   24  N8  UNL     1       3.515   5.651  30.601  1.00  0.00    -0.066 NA
HETATM   25  N9  UNL     1       2.710   5.309  32.899  1.00  0.00    -0.066 NA
ENDBRANCH  18  19
ENDBRANCH  17  18
ENDBRANCH  16  17
ENDBRANCH  15  16
ENDBRANCH  14  15
ENDBRANCH  13  14
ENDBRANCH  12  13
ENDBRANCH  11  12
ENDBRANCH  10  11
ENDBRANCH   9  10
BRANCH   5  26
HETATM   26  N2  UNL     1      13.480   8.848  25.043  1.00  0.00    -0.365 N 
HETATM   27  C4  UNL     1      14.764   8.935  25.706  1.00  0.00     0.126 C 
HETATM   28  C5  UNL     1      15.704   9.563  24.711  1.00  0.00     0.046 C 
HETATM   29  C6  UNL     1      14.978   9.417  23.374  1.00  0.00     0.104 C 
HETATM   30  C10 UNL     1      13.561   9.656  23.840  1.00  0.00     0.149 C 
BRANCH  29  31
HETATM   31  N3  UNL     1      15.383  10.501  22.528  1.00  0.00    -0.353 N 
HETATM   32  C7  UNL     1      16.314  10.333  21.467  1.00  0.00     0.248 C 
HETATM   33  O1  UNL     1      16.789   9.178  21.287  1.00  0.00    -0.271 OA
ATOM     34  H3  UNL     1      14.990  11.427  22.694  1.00  0.00     0.163 HD
BRANCH  32  35
HETATM   35  C8  UNL     1      16.666  11.513  20.641  1.00  0.00     0.270 C 
HETATM   36  C9  UNL     1      17.916  11.117  19.842  1.00  0.00     0.050 C 
BRANCH  35  37
HETATM   37  N4  UNL     1      17.057  12.558  21.578  1.00  0.00    -0.067 N 
ATOM     38  H43 UNL     1      16.527  13.423  21.469  1.00  0.00     0.275 HD
ATOM     39  H42 UNL     1      16.781  12.365  22.541  1.00  0.00     0.275 HD
ATOM     40  H41 UNL     1      18.064  12.681  21.461  1.00  0.00     0.275 HD
ENDBRANCH  35  37
ENDBRANCH  32  35
ENDBRANCH  29  31
ENDBRANCH   5  26
TORSDOF 14
ENDMDL
MODEL 3
REMARK VINA RESULT: -7.501448213      3.060      4.022
REMARK  14 active torsions:
REMARK  status: ('A' for Active; 'I' for Inactive)
REMARK    1  A    between atoms: C3_5  and  N2_6 
REMARK    2  A    between atoms: C6_9  and  N3_10 
REMARK       I    between atoms: N3_10  and  C7_12 
REMARK    3  A    between atoms: C7_12  and  C8_14 
REMARK    4  A    between atoms: C8_14  and  N4_16 
REMARK    5  A    between atoms: N6_24  and  C13_25 
REMARK    6  A    between atoms: C13_25  and  C14_26 
REMARK    7  A    between atoms: C14_26  and  C15_27 
REMARK    8  A    between atoms: C15_27  and  C16_28 
REMARK    9  A    between atoms: C16_28  and  C17_29 
REMARK   10  A    between atoms: C17_29  and  C18_30 
REMARK   11  A    between atoms: C18_30  and  C19_31 
REMARK   12  A    between atoms: C19_31  and  C20_32 
REMARK   13  A    between atoms: C20_32  and  C21_33 
REMARK   14  A    between atoms: C21_33  and  C22_34 
REMARK       I    between atoms: C22_34  and  N7_36 
ROOT
HETATM    1  C1  UNL     1      10.702   7.335  28.525  1.00  0.00     0.089 C 
HETATM    2  C2  UNL     1      10.940   7.419  27.075  1.00  0.00     0.082 A 
HETATM    3  N1  UNL     1      12.037   8.064  26.618  1.00  0.00    -0.332 N 
ATOM      4  H1  UNL     1      12.671   8.474  27.304  1.00  0.00     0.168 HD
HETATM    5  C3  UNL     1      12.344   8.199  25.319  1.00  0.00     0.107 A 
HETATM    6  C11 UNL     1      11.447   7.624  24.447  1.00  0.00     0.093 A 
HETATM    7  C12 UNL     1      10.310   6.956  24.929  1.00  0.00     0.123 A 
HETATM    8  N5  UNL     1       9.428   6.384  23.983  1.00  0.00    -0.082 NA
HETATM    9  N6  UNL     1      10.043   6.844  26.234  1.00  0.00    -0.325 N 
ENDROOT
BRANCH   9  10
HETATM   10  C13 UNL     1       8.889   6.145  26.766  1.00  0.00     0.131 C 
BRANCH  10  11
HETATM   11  C14 UNL     1       8.889   4.680  26.535  1.00  0.00     0.020 C 
BRANCH  11  12
HETATM   12  C15 UNL     1       9.726   3.997  27.571  1.00  0.00     0.002 C 
BRANCH  12  13
HETATM   13  C16 UNL     1       8.879   3.320  28.606  1.00  0.00     0.000 C 
BRANCH  13  14
HETATM   14  C17 UNL     1       9.027   1.832  28.500  1.00  0.00     0.000 C 
BRANCH  14  15
HETATM   15  C18 UNL     1       8.295   1.145  29.625  1.00  0.00     0.000 C 
BRANCH  15  16
HETATM   16  C19 UNL     1       7.515   2.131  30.419  1.00  0.00     0.000 C 
BRANCH  16  17
HETATM   17  C20 UNL     1       6.361   1.485  31.162  1.00  0.00     0.009 C 
BRANCH  17  18
HETATM   18  C21 UNL     1       6.525   1.431  32.633  1.00  0.00     0.103 C 
BRANCH  18  19
HETATM   19  C22 UNL     1       7.068   0.173  33.176  1.00  0.00     0.223 C 
HETATM   20  O2  UNL     1       7.439   0.051  34.371  1.00  0.00    -0.273 OA
HETATM   21  N7  UNL     1       7.202  -0.998  32.361  1.00  0.00    -0.304 N 
HETATM   22  C23 UNL     1       6.230  -1.821  32.247  1.00  0.00     0.203 C 
ATOM     23  H7  UNL     1       8.077  -1.176  31.869  1.00  0.00     0.171 HD
HETATM   24  N8  UNL     1       5.020  -1.574  32.927  1.00  0.00    -0.066 NA
HETATM   25  N9  UNL     1       6.374  -2.977  31.429  1.00  0.00    -0.066 NA
ENDBRANCH  18  19
ENDBRANCH  17  18
ENDBRANCH  16  17
ENDBRANCH  15  16
ENDBRANCH  14  15
ENDBRANCH  13  14
ENDBRANCH  12  13
ENDBRANCH  11  12
ENDBRANCH  10  11
ENDBRANCH   9  10
BRANCH   5  26
HETATM   26  N2  UNL     1      13.507   8.913  24.896  1.00  0.00    -0.365 N 
HETATM   27  C4  UNL     1      14.798   8.900  25.551  1.00  0.00     0.126 C 
HETATM   28  C5  UNL     1      15.767   9.510  24.574  1.00  0.00     0.046 C 
HETATM   29  C6  UNL     1      15.026   9.460  23.238  1.00  0.00     0.104 C 
HETATM   30  C10 UNL     1      13.628   9.762  23.725  1.00  0.00     0.149 C 
BRANCH  29  31
HETATM   31  N3  UNL     1      15.489  10.550  22.432  1.00  0.00    -0.353 N 
HETATM   32  C7  UNL     1      16.475  10.386  21.421  1.00  0.00     0.248 C 
HETATM   33  O1  UNL     1      16.947   9.229  21.250  1.00  0.00    -0.271 OA
ATOM     34  H3  UNL     1      15.097  11.478  22.589  1.00  0.00     0.163 HD
BRANCH  32  35
HETATM   35  C8  UNL     1      16.885  11.574  20.633  1.00  0.00     0.270 C 
HETATM   36  C9  UNL     1      18.284  11.259  20.083  1.00  0.00     0.050 C 
BRANCH  35  37
HETATM   37  N4  UNL     1      17.025  12.664  21.591  1.00  0.00    -0.067 N 
ATOM     38  H43 UNL     1      16.808  12.393  22.550  1.00  0.00     0.275 HD
ATOM     39  H42 UNL     1      17.994  12.939  21.756  1.00  0.00     0.275 HD
ATOM     40  H41 UNL     1      16.441  13.424  21.241  1.00  0.00     0.275 HD
ENDBRANCH  35  37
ENDBRANCH  32  35
ENDBRANCH  29  31
ENDBRANCH   5  26
TORSDOF 14
ENDMDL
MODEL 4
REMARK VINA RESULT: -7.463466090      1.936      3.188
REMARK  14 active torsions:
REMARK  status: ('A' for Active; 'I' for Inactive)
REMARK    1  A    between atoms: C3_5  and  N2_6 
REMARK    2  A    between atoms: C6_9  and  N3_10 
REMARK       I    between atoms: N3_10  and  C7_12 
REMARK    3  A    between atoms: C7_12  and  C8_14 
REMARK    4  A    between atoms: C8_14  and  N4_16 
REMARK    5  A    between atoms: N6_24  and  C13_25 
REMARK    6  A    between atoms: C13_25  and  C14_26 
REMARK    7  A    between atoms: C14_26  and  C15_27 
REMARK    8  A    between atoms: C15_27  and  C16_28 
REMARK    9  A    between atoms: C16_28  and  C17_29 
REMARK   10  A    between atoms: C17_29  and  C18_30 
REMARK   11  A    between atoms: C18_30  and  C19_31 
REMARK   12  A    between atoms: C19_31  and  C20_32 
REMARK   13  A    between atoms: C20_32  and  C21_33 
REMARK   14  A    between atoms: C21_33  and  C22_34 
REMARK       I    between atoms: C22_34  and  N7_36 
ROOT
HETATM    1  C1  UNL     1      10.812   6.998  28.421  1.00  0.00     0.089 C 
HETATM    2  C2  UNL     1      10.970   7.250  26.980  1.00  0.00     0.082 A 
HETATM    3  N1  UNL     1      12.062   7.913  26.536  1.00  0.00    -0.332 N 
ATOM      4  H1  UNL     1      12.749   8.218  27.226  1.00  0.00     0.168 HD
HETATM    5  C3  UNL     1      12.298   8.195  25.246  1.00  0.00     0.107 A 
HETATM    6  C11 UNL     1      11.333   7.756  24.369  1.00  0.00     0.093 A 
HETATM    7  C12 UNL     1      10.201   7.070  24.836  1.00  0.00     0.123 A 
HETATM    8  N5  UNL     1       9.245   6.643  23.885  1.00  0.00    -0.082 NA
HETATM    9  N6  UNL     1      10.005   6.808  26.133  1.00  0.00    -0.325 N 
ENDROOT
BRANCH   9  10
HETATM   10  C13 UNL     1       8.858   6.085  26.648  1.00  0.00     0.131 C 
BRANCH  10  11
HETATM   11  C14 UNL     1       8.749   4.681  26.183  1.00  0.00     0.020 C 
BRANCH  11  12
HETATM   12  C15 UNL     1       9.885   3.871  26.726  1.00  0.00     0.002 C 
BRANCH  12  13
HETATM   13  C16 UNL     1       9.659   3.495  28.159  1.00  0.00     0.000 C 
BRANCH  13  14
HETATM   14  C17 UNL     1       9.820   2.016  28.335  1.00  0.00     0.000 C 
BRANCH  14  15
HETATM   15  C18 UNL     1       8.687   1.453  29.156  1.00  0.00     0.000 C 
BRANCH  15  16
HETATM   16  C19 UNL     1       7.608   2.463  29.318  1.00  0.00     0.000 C 
BRANCH  16  17
HETATM   17  C20 UNL     1       7.166   2.605  30.762  1.00  0.00     0.009 C 
BRANCH  17  18
HETATM   18  C21 UNL     1       6.421   3.849  31.061  1.00  0.00     0.103 C 
BRANCH  18  19
HETATM   19  C22 UNL     1       6.445   4.883  30.012  1.00  0.00     0.223 C 
HETATM   20  O2  UNL     1       5.632   4.899  29.053  1.00  0.00    -0.273 OA
HETATM   21  N7  UNL     1       7.408   5.944  30.028  1.00  0.00    -0.304 N 
HETATM   22  C23 UNL     1       7.167   7.027  30.663  1.00  0.00     0.203 C 
ATOM     23  H7  UNL     1       8.291   5.836  29.529  1.00  0.00     0.171 HD
HETATM   24  N8  UNL     1       5.946   7.177  31.352  1.00  0.00    -0.066 NA
HETATM   25  N9  UNL     1       8.134   8.071  30.677  1.00  0.00    -0.066 NA
ENDBRANCH  18  19
ENDBRANCH  17  18
ENDBRANCH  16  17
ENDBRANCH  15  16
ENDBRANCH  14  15
ENDBRANCH  13  14
ENDBRANCH  12  13
ENDBRANCH  11  12
ENDBRANCH  10  11
ENDBRANCH   9  10
BRANCH   5  26
HETATM   26  N2  UNL     1      13.461   8.919  24.841  1.00  0.00    -0.365 N 
HETATM   27  C4  UNL     1      14.736   8.933  25.526  1.00  0.00     0.126 C 
HETATM   28  C5  UNL     1      15.720   9.544  24.563  1.00  0.00     0.046 C 
HETATM   29  C6  UNL     1      15.011   9.465  23.211  1.00  0.00     0.104 C 
HETATM   30  C10 UNL     1      13.598   9.754  23.661  1.00  0.00     0.149 C 
BRANCH  29  31
HETATM   31  N3  UNL     1      15.478  10.551  22.401  1.00  0.00    -0.353 N 
HETATM   32  C7  UNL     1      16.477  10.383  21.404  1.00  0.00     0.248 C 
HETATM   33  O1  UNL     1      16.959   9.228  21.250  1.00  0.00    -0.271 OA
ATOM     34  H3  UNL     1      15.078  11.478  22.545  1.00  0.00     0.163 HD
BRANCH  32  35
HETATM   35  C8  UNL     1      16.891  11.566  20.611  1.00  0.00     0.270 C 
HETATM   36  C9  UNL     1      18.310  11.268  20.107  1.00  0.00     0.050 C 
BRANCH  35  37
HETATM   37  N4  UNL     1      16.983  12.673  21.555  1.00  0.00    -0.067 N 
ATOM     38  H43 UNL     1      16.079  12.973  21.920  1.00  0.00     0.275 HD
ATOM     39  H42 UNL     1      17.397  12.410  22.450  1.00  0.00     0.275 HD
ATOM     40  H41 UNL     1      17.494  13.414  21.074  1.00  0.00     0.275 HD
ENDBRANCH  35  37
ENDBRANCH  32  35
ENDBRANCH  29  31
ENDBRANCH   5  26
TORSDOF 14
ENDMDL
MODEL 5
REMARK VINA RESULT: -7.392947386      3.590     11.875
REMARK  14 active torsions:
REMARK  status: ('A' for Active; 'I' for Inactive)
REMARK    1  A    between atoms: C3_5  and  N2_6 
REMARK    2  A    between atoms: C6_9  and  N3_10 
REMARK       I    between atoms: N3_10  and  C7_12 
REMARK    3  A    between atoms: C7_12  and  C8_14 
REMARK    4  A    between atoms: C8_14  and  N4_16 
REMARK    5  A    between atoms: N6_24  and  C13_25 
REMARK    6  A    between atoms: C13_25  and  C14_26 
REMARK    7  A    between atoms: C14_26  and  C15_27 
REMARK    8  A    between atoms: C15_27  and  C16_28 
REMARK    9  A    between atoms: C16_28  and  C17_29 
REMARK   10  A    between atoms: C17_29  and  C18_30 
REMARK   11  A    between atoms: C18_30  and  C19_31 
REMARK   12  A    between atoms: C19_31  and  C20_32 
REMARK   13  A    between atoms: C20_32  and  C21_33 
REMARK   14  A    between atoms: C21_33  and  C22_34 
REMARK       I    between atoms: C22_34  and  N7_36 
ROOT
HETATM    1  C1  UNL     1       9.041   5.712  27.426  1.00  0.00     0.089 C 
HETATM    2  C2  UNL     1       9.044   4.274  27.741  1.00  0.00     0.082 A 
HETATM    3  N1  UNL     1       8.357   3.828  28.817  1.00  0.00    -0.332 N 
ATOM      4  H1  UNL     1       7.852   4.513  29.379  1.00  0.00     0.168 HD
HETATM    5  C3  UNL     1       8.298   2.541  29.191  1.00  0.00     0.107 A 
HETATM    6  C11 UNL     1       9.001   1.670  28.391  1.00  0.00     0.093 A 
HETATM    7  C12 UNL     1       9.713   2.140  27.276  1.00  0.00     0.123 A 
HETATM    8  N5  UNL     1      10.414   1.195  26.491  1.00  0.00    -0.082 NA
HETATM    9  N6  UNL     1       9.744   3.433  26.937  1.00  0.00    -0.325 N 
ENDROOT
BRANCH   9  10
HETATM   10  C13 UNL     1      10.453   3.950  25.783  1.00  0.00     0.131 C 
BRANCH  10  11
HETATM   11  C14 UNL     1       9.858   3.585  24.474  1.00  0.00     0.020 C 
BRANCH  11  12
HETATM   12  C15 UNL     1       9.409   4.817  23.753  1.00  0.00     0.002 C 
BRANCH  12  13
HETATM   13  C16 UNL     1      10.447   5.897  23.808  1.00  0.00     0.000 C 
BRANCH  13  14
HETATM   14  C17 UNL     1       9.789   7.241  23.880  1.00  0.00     0.000 C 
BRANCH  14  15
HETATM   15  C18 UNL     1      10.469   8.111  24.908  1.00  0.00     0.000 C 
BRANCH  15  16
HETATM   16  C19 UNL     1      11.675   7.430  25.450  1.00  0.00     0.000 C 
BRANCH  16  17
HETATM   17  C20 UNL     1      12.888   8.341  25.468  1.00  0.00     0.009 C 
BRANCH  17  18
HETATM   18  C21 UNL     1      13.048   9.181  24.258  1.00  0.00     0.103 C 
BRANCH  18  19
HETATM   19  C22 UNL     1      14.202  10.097  24.256  1.00  0.00     0.223 C 
HETATM   20  O2  UNL     1      14.351  11.008  25.110  1.00  0.00    -0.273 OA
HETATM   21  N7  UNL     1      15.235   9.998  23.269  1.00  0.00    -0.304 N 
HETATM   22  C23 UNL     1      16.236   9.224  23.455  1.00  0.00     0.203 C 
ATOM     23  H7  UNL     1      15.172  10.547  22.412  1.00  0.00     0.171 HD
HETATM   24  N8  UNL     1      16.323   8.465  24.640  1.00  0.00    -0.066 NA
HETATM   25  N9  UNL     1      17.252   9.129  22.463  1.00  0.00    -0.066 NA
ENDBRANCH  18  19
ENDBRANCH  17  18
ENDBRANCH  16  17
ENDBRANCH  15  16
ENDBRANCH  14  15
ENDBRANCH  13  14
ENDBRANCH  12  13
ENDBRANCH  11  12
ENDBRANCH  10  11
ENDBRANCH   9  10
BRANCH   5  26
HETATM   26  N2  UNL     1       7.573   2.133  30.353  1.00  0.00    -0.365 N 
HETATM   27  C4  UNL     1       6.901   3.011  31.288  1.00  0.00     0.126 C 
HETATM   28  C5  UNL     1       6.017   2.128  32.127  1.00  0.00     0.046 C 
HETATM   29  C6  UNL     1       5.933   0.826  31.331  1.00  0.00     0.104 C 
HETATM   30  C10 UNL     1       7.348   0.772  30.804  1.00  0.00     0.149 C 
BRANCH  29  31
HETATM   31  N3  UNL     1       5.735  -0.250  32.258  1.00  0.00    -0.353 N 
HETATM   32  C7  UNL     1       4.455  -0.816  32.506  1.00  0.00     0.248 C 
HETATM   33  O1  UNL     1       3.473  -0.333  31.879  1.00  0.00    -0.271 OA
ATOM     34  H3  UNL     1       6.542  -0.622  32.757  1.00  0.00     0.163 HD
BRANCH  32  35
HETATM   35  C8  UNL     1       4.352  -1.931  33.478  1.00  0.00     0.270 C 
HETATM   36  C9  UNL     1       5.629  -1.875  34.330  1.00  0.00     0.050 C 
BRANCH  35  37
HETATM   37  N4  UNL     1       4.402  -3.158  32.692  1.00  0.00    -0.067 N 
ATOM     38  H43 UNL     1       3.669  -3.826  32.932  1.00  0.00     0.275 HD
ATOM     39  H42 UNL     1       4.134  -3.027  31.716  1.00  0.00     0.275 HD
ATOM     40  H41 UNL     1       5.345  -3.530  32.808  1.00  0.00     0.275 HD
ENDBRANCH  35  37
ENDBRANCH  32  35
ENDBRANCH  29  31
ENDBRANCH   5  26
TORSDOF 14
ENDMDL
