MODEL 1
REMARK VINA RESULT: -7.330713002      0.000      0.000
REMARK  14 active torsions:
REMARK  status: ('A' for Active; 'I' for Inactive)
REMARK    1  A    between atoms: C2_2  and  N1_3 
REMARK    2  A    between atoms: N1_3  and  C3_4 
REMARK       I    between atoms: N1_3  and  C5_6 
REMARK    3  A    between atoms: C5_6  and  C6_8 
REMARK    4  A    between atoms: C6_8  and  C7_9 
REMARK    5  A    between atoms: C6_8  and  N5_20 
REMARK    6  A    between atoms: C7_9  and  C8_10 
REMARK    7  A    between atoms: C8_10  and  C9_11 
REMARK    8  A    between atoms: C9_11  and  C10_12 
REMARK    9  A    between atoms: C10_12  and  N2_13 
REMARK       I    between atoms: N2_13  and  C11_15 
REMARK       I    between atoms: N5_20  and  C12_22 
REMARK   10  A    between atoms: C12_22  and  C13_24 
REMARK   11  A    between atoms: C19_30  and  C20_31 
REMARK   12  A    between atoms: C20_31  and  N6_32 
REMARK   13  A    between atoms: N6_32  and  O3_33 
REMARK   14  A    between atoms: N6_32  and  C21_35 
ROOT
HETATM    1  N5  UNL     1       8.636   3.772  27.622  1.00  0.00    -0.347 N 
ATOM      2  H5  UNL     1       9.107   3.394  28.443  1.00  0.00     0.163 HD
HETATM    3  C12 UNL     1       7.249   3.982  27.676  1.00  0.00     0.222 C 
HETATM    4  O2  UNL     1       6.629   4.458  26.658  1.00  0.00    -0.273 OA
ENDROOT
BRANCH   1   5
HETATM    5  C6  UNL     1       9.432   4.076  26.432  1.00  0.00     0.176 C 
BRANCH   5   6
HETATM    6  C5  UNL     1      10.384   5.129  26.847  1.00  0.00     0.242 C 
HETATM    7  N1  UNL     1      10.282   6.481  26.494  1.00  0.00    -0.351 N 
HETATM    8  O1  UNL     1      11.349   4.756  27.574  1.00  0.00    -0.271 OA
BRANCH   7   9
HETATM    9  C2  UNL     1      11.337   7.408  26.938  1.00  0.00     0.121 C 
HETATM   10  C1  UNL     1      12.180   7.832  25.740  1.00  0.00     0.026 C 
ENDBRANCH   7   9
BRANCH   7  11
HETATM   11  C3  UNL     1       9.173   6.977  25.756  1.00  0.00     0.121 C 
HETATM   12  C4  UNL     1       8.093   7.577  26.631  1.00  0.00     0.026 C 
ENDBRANCH   7  11
ENDBRANCH   5   6
BRANCH   5  13
HETATM   13  C7  UNL     1      10.218   2.791  26.172  1.00  0.00     0.035 C 
BRANCH  13  14
HETATM   14  C8  UNL     1      10.969   2.786  24.892  1.00  0.00     0.004 C 
BRANCH  14  15
HETATM   15  C9  UNL     1      10.743   1.508  24.132  1.00  0.00     0.020 C 
BRANCH  15  16
HETATM   16  C10 UNL     1      10.691   1.737  22.651  1.00  0.00     0.122 C 
BRANCH  16  17
HETATM   17  N2  UNL     1      11.135   0.567  21.941  1.00  0.00    -0.365 N 
HETATM   18  C11 UNL     1      12.476   0.420  21.522  1.00  0.00     0.181 C 
HETATM   19  N3  UNL     1      12.913  -0.743  21.114  1.00  0.00    -0.374 N 
HETATM   20  N4  UNL     1      13.422   1.481  21.509  1.00  0.00    -0.064 NA
ATOM     21  H32 UNL     1      12.235  -1.504  21.124  1.00  0.00     0.158 HD
ATOM     22  H31 UNL     1      13.881  -0.849  20.812  1.00  0.00     0.158 HD
ATOM     23  H2  UNL     1      10.464  -0.174  21.736  1.00  0.00     0.162 HD
ENDBRANCH  16  17
ENDBRANCH  15  16
ENDBRANCH  14  15
ENDBRANCH  13  14
ENDBRANCH   5  13
ENDBRANCH   1   5
BRANCH   3  24
HETATM   24  C13 UNL     1       6.430   3.679  28.867  1.00  0.00     0.080 C 
HETATM   25  C14 UNL     1       6.863   4.461  30.091  1.00  0.00     0.017 C 
HETATM   26  C15 UNL     1       6.739   3.536  31.279  1.00  0.00     0.042 C 
HETATM   27  C16 UNL     1       6.252   2.197  30.761  1.00  0.00     0.161 C 
HETATM   28  C17 UNL     1       4.780   2.113  31.026  1.00  0.00     0.044 C 
HETATM   29  N7  UNL     1       6.945   1.162  31.438  1.00  0.00     0.100 N 
HETATM   30  C23 UNL     1       6.535   2.219  29.268  1.00  0.00     0.055 C 
HETATM   31  C18 UNL     1       4.663   0.649  31.528  1.00  0.00     0.040 C 
HETATM   32  C19 UNL     1       5.983   0.495  32.256  1.00  0.00     0.243 C 
HETATM   33  C22 UNL     1       7.732   0.303  30.611  1.00  0.00     0.311 C 
BRANCH  32  34
HETATM   34  C20 UNL     1       6.317  -0.890  32.671  1.00  0.00     0.194 C 
BRANCH  34  35
HETATM   35  N6  UNL     1       6.692  -0.913  34.060  1.00  0.00    -0.234 N 
BRANCH  35  36
HETATM   36  O3  UNL     1       7.534   0.056  34.482  1.00  0.00    -0.285 OA
ATOM     37  H3  UNL     1       7.539   0.245  35.413  1.00  0.00     0.245 HD
ENDBRANCH  35  36
BRANCH  35  38
HETATM   38  C21 UNL     1       6.206  -1.892  34.941  1.00  0.00     0.376 C 
HETATM   39  O4  UNL     1       6.342  -1.884  36.194  1.00  0.00    -0.281 OA
ENDBRANCH  35  38
ENDBRANCH  34  35
ENDBRANCH  32  34
ENDBRANCH   3  24
TORSDOF 14
ENDMDL
MODEL 2
REMARK VINA RESULT: -7.244454575      4.488      8.076
REMARK  14 active torsions:
REMARK  status: ('A' for Active; 'I' for Inactive)
REMARK    1  A    between atoms: C2_2  and  N1_3 
REMARK    2  A    between atoms: N1_3  and  C3_4 
REMARK       I    between atoms: N1_3  and  C5_6 
REMARK    3  A    between atoms: C5_6  and  C6_8 
REMARK    4  A    between atoms: C6_8  and  C7_9 
REMARK    5  A    between atoms: C6_8  and  N5_20 
REMARK    6  A    between atoms: C7_9  and  C8_10 
REMARK    7  A    between atoms: C8_10  and  C9_11 
REMARK    8  A    between atoms: C9_11  and  C10_12 
REMARK    9  A    between atoms: C10_12  and  N2_13 
REMARK       I    between atoms: N2_13  and  C11_15 
REMARK       I    between atoms: N5_20  and  C12_22 
REMARK   10  A    between atoms: C12_22  and  C13_24 
REMARK   11  A    between atoms: C19_30  and  C20_31 
REMARK   12  A    between atoms: C20_31  and  N6_32 
REMARK   13  A    between atoms: N6_32  and  O3_33 
REMARK   14  A    between atoms: N6_32  and  C21_35 
ROOT
HETATM    1  N5  UNL     1      12.067   9.150  24.096  1.00  0.00    -0.347 N 
ATOM      2  H5  UNL     1      12.273   9.776  24.874  1.00  0.00     0.163 HD
HETATM    3  C12 UNL     1      11.583   7.863  24.375  1.00  0.00     0.222 C 
HETATM    4  O2  UNL     1      11.313   7.054  23.416  1.00  0.00    -0.273 OA
ENDROOT
BRANCH   1   5
HETATM    5  C6  UNL     1      12.286   9.630  22.730  1.00  0.00     0.176 C 
BRANCH   5   6
HETATM    6  C5  UNL     1      11.618  10.948  22.658  1.00  0.00     0.242 C 
HETATM    7  N1  UNL     1      11.210  11.573  21.473  1.00  0.00    -0.351 N 
HETATM    8  O1  UNL     1      11.411  11.530  23.762  1.00  0.00    -0.271 OA
BRANCH   7   9
HETATM    9  C2  UNL     1      10.605  12.913  21.554  1.00  0.00     0.121 C 
HETATM   10  C1  UNL     1      10.629  13.567  20.176  1.00  0.00     0.026 C 
ENDBRANCH   7   9
BRANCH   7  11
HETATM   11  C3  UNL     1      11.335  10.930  20.212  1.00  0.00     0.121 C 
HETATM   12  C4  UNL     1      10.164  10.026  19.885  1.00  0.00     0.026 C 
ENDBRANCH   7  11
ENDBRANCH   5   6
BRANCH   5  13
HETATM   13  C7  UNL     1      13.796   9.849  22.650  1.00  0.00     0.035 C 
BRANCH  13  14
HETATM   14  C8  UNL     1      14.432  10.181  23.949  1.00  0.00     0.004 C 
BRANCH  14  15
HETATM   15  C9  UNL     1      15.374   9.095  24.389  1.00  0.00     0.020 C 
BRANCH  15  16
HETATM   16  C10 UNL     1      15.780   9.251  25.825  1.00  0.00     0.122 C 
BRANCH  16  17
HETATM   17  N2  UNL     1      15.309  10.503  26.352  1.00  0.00    -0.365 N 
HETATM   18  C11 UNL     1      15.621  10.918  27.666  1.00  0.00     0.181 C 
HETATM   19  N3  UNL     1      15.405  12.154  28.034  1.00  0.00    -0.374 N 
HETATM   20  N4  UNL     1      16.172  10.060  28.657  1.00  0.00    -0.064 NA
ATOM     21  H32 UNL     1      15.010  12.770  27.323  1.00  0.00     0.158 HD
ATOM     22  H31 UNL     1      15.631  12.453  28.982  1.00  0.00     0.158 HD
ATOM     23  H2  UNL     1      14.735  11.106  25.762  1.00  0.00     0.162 HD
ENDBRANCH  16  17
ENDBRANCH  15  16
ENDBRANCH  14  15
ENDBRANCH  13  14
ENDBRANCH   5  13
ENDBRANCH   1   5
BRANCH   3  24
HETATM   24  C13 UNL     1      11.358   7.362  25.746  1.00  0.00     0.080 C 
HETATM   25  C14 UNL     1      12.485   6.478  26.240  1.00  0.00     0.017 C 
HETATM   26  C15 UNL     1      11.859   5.358  27.038  1.00  0.00     0.042 C 
HETATM   27  C16 UNL     1      10.358   5.563  27.003  1.00  0.00     0.161 C 
HETATM   28  C17 UNL     1       9.952   6.199  28.297  1.00  0.00     0.044 C 
HETATM   29  N7  UNL     1       9.725   4.304  26.841  1.00  0.00     0.100 N 
HETATM   30  C23 UNL     1      10.109   6.503  25.835  1.00  0.00     0.055 C 
HETATM   31  C18 UNL     1       8.665   5.394  28.620  1.00  0.00     0.040 C 
HETATM   32  C19 UNL     1       9.035   4.035  28.062  1.00  0.00     0.243 C 
HETATM   33  C22 UNL     1       8.937   4.157  25.658  1.00  0.00     0.311 C 
BRANCH  32  34
HETATM   34  C20 UNL     1       7.921   3.058  27.988  1.00  0.00     0.194 C 
BRANCH  34  35
HETATM   35  N6  UNL     1       8.371   1.760  28.417  1.00  0.00    -0.234 N 
BRANCH  35  36
HETATM   36  O3  UNL     1       8.995   0.994  27.494  1.00  0.00    -0.285 OA
ATOM     37  H3  UNL     1       9.940   1.071  27.441  1.00  0.00     0.245 HD
ENDBRANCH  35  36
BRANCH  35  38
HETATM   38  C21 UNL     1       8.177   1.308  29.731  1.00  0.00     0.376 C 
HETATM   39  O4  UNL     1       7.527   1.911  30.627  1.00  0.00    -0.281 OA
ENDBRANCH  35  38
ENDBRANCH  34  35
ENDBRANCH  32  34
ENDBRANCH   3  24
TORSDOF 14
ENDMDL
MODEL 3
REMARK VINA RESULT: -7.211792048      2.122      2.717
REMARK  14 active torsions:
REMARK  status: ('A' for Active; 'I' for Inactive)
REMARK    1  A    between atoms: C2_2  and  N1_3 
REMARK    2  A    between atoms: N1_3  and  C3_4 
REMARK       I    between atoms: N1_3  and  C5_6 
REMARK    3  A    between atoms: C5_6  and  C6_8 
REMARK    4  A    between atoms: C6_8  and  C7_9 
REMARK    5  A    between atoms: C6_8  and  N5_20 
REMARK    6  A    between atoms: C7_9  and  C8_10 
REMARK    7  A    between atoms: C8_10  and  C9_11 
REMARK    8  A    between atoms: C9_11  and  C10_12 
REMARK    9  A    between atoms: C10_12  and  N2_13 
REMARK       I    between atoms: N2_13  and  C11_15 
REMARK       I    between atoms: N5_20  and  C12_22 
REMARK   10  A    between atoms: C12_22  and  C13_24 
REMARK   11  A    between atoms: C19_30  and  C20_31 
REMARK   12  A    between atoms: C20_31  and  N6_32 
REMARK   13  A    between atoms: N6_32  and  O3_33 
REMARK   14  A    between atoms: N6_32  and  C21_35 
ROOT
HETATM    1  N5  UNL     1      10.311   4.517  27.104  1.00  0.00    -0.347 N 
ATOM      2  H5  UNL     1      10.979   4.602  27.869  1.00  0.00     0.163 HD
HETATM    3  C12 UNL     1       9.089   3.869  27.344  1.00  0.00     0.222 C 
HETATM    4  O2  UNL     1       8.228   3.748  26.399  1.00  0.00    -0.273 OA
ENDROOT
BRANCH   1   5
HETATM    5  C6  UNL     1      10.663   5.075  25.798  1.00  0.00     0.176 C 
BRANCH   5   6
HETATM    6  C5  UNL     1      11.757   6.037  26.057  1.00  0.00     0.242 C 
HETATM    7  N1  UNL     1      11.804   7.345  25.561  1.00  0.00    -0.351 N 
HETATM    8  O1  UNL     1      12.705   5.621  26.784  1.00  0.00    -0.271 OA
BRANCH   7   9
HETATM    9  C2  UNL     1      12.987   8.171  25.858  1.00  0.00     0.121 C 
HETATM   10  C1  UNL     1      13.382   8.963  24.615  1.00  0.00     0.026 C 
ENDBRANCH   7   9
BRANCH   7  11
HETATM   11  C3  UNL     1      10.729   7.898  24.813  1.00  0.00     0.121 C 
HETATM   12  C4  UNL     1      10.662   7.381  23.392  1.00  0.00     0.026 C 
ENDBRANCH   7  11
ENDBRANCH   5   6
BRANCH   5  13
HETATM   13  C7  UNL     1      11.238   3.887  25.027  1.00  0.00     0.035 C 
BRANCH  13  14
HETATM   14  C8  UNL     1      10.563   3.618  23.733  1.00  0.00     0.004 C 
BRANCH  14  15
HETATM   15  C9  UNL     1      10.549   2.147  23.421  1.00  0.00     0.020 C 
BRANCH  15  16
HETATM   16  C10 UNL     1      11.796   1.712  22.711  1.00  0.00     0.122 C 
BRANCH  16  17
HETATM   17  N2  UNL     1      11.752   0.303  22.425  1.00  0.00    -0.365 N 
HETATM   18  C11 UNL     1      12.429  -0.250  21.314  1.00  0.00     0.181 C 
HETATM   19  N3  UNL     1      12.588  -1.544  21.219  1.00  0.00    -0.374 N 
HETATM   20  N4  UNL     1      12.969   0.525  20.251  1.00  0.00    -0.064 NA
ATOM     21  H32 UNL     1      12.202  -2.099  21.981  1.00  0.00     0.158 HD
ATOM     22  H31 UNL     1      13.077  -1.942  20.418  1.00  0.00     0.158 HD
ATOM     23  H2  UNL     1      11.219  -0.313  23.040  1.00  0.00     0.162 HD
ENDBRANCH  16  17
ENDBRANCH  15  16
ENDBRANCH  14  15
ENDBRANCH  13  14
ENDBRANCH   5  13
ENDBRANCH   1   5
BRANCH   3  24
HETATM   24  C13 UNL     1       8.718   3.298  28.654  1.00  0.00     0.080 C 
HETATM   25  C14 UNL     1       9.093   1.835  28.784  1.00  0.00     0.017 C 
HETATM   26  C15 UNL     1       7.978   1.153  29.541  1.00  0.00     0.042 C 
HETATM   27  C16 UNL     1       6.929   2.204  29.845  1.00  0.00     0.161 C 
HETATM   28  C17 UNL     1       7.115   2.638  31.267  1.00  0.00     0.044 C 
HETATM   29  N7  UNL     1       5.642   1.639  29.655  1.00  0.00     0.100 N 
HETATM   30  C23 UNL     1       7.219   3.348  28.887  1.00  0.00     0.055 C 
HETATM   31  C18 UNL     1       5.638   2.698  31.742  1.00  0.00     0.040 C 
HETATM   32  C19 UNL     1       5.040   1.556  30.947  1.00  0.00     0.243 C 
HETATM   33  C22 UNL     1       4.837   2.262  28.652  1.00  0.00     0.311 C 
BRANCH  32  34
HETATM   34  C20 UNL     1       3.558   1.473  30.979  1.00  0.00     0.194 C 
BRANCH  34  35
HETATM   35  N6  UNL     1       3.145   0.125  31.266  1.00  0.00    -0.234 N 
BRANCH  35  36
HETATM   36  O3  UNL     1       2.216  -0.417  30.446  1.00  0.00    -0.285 OA
ATOM     37  H3  UNL     1       1.357  -0.011  30.444  1.00  0.00     0.245 HD
ENDBRANCH  35  36
BRANCH  35  38
HETATM   38  C21 UNL     1       3.678  -0.599  32.343  1.00  0.00     0.376 C 
HETATM   39  O4  UNL     1       4.316  -1.682  32.255  1.00  0.00    -0.281 OA
ENDBRANCH  35  38
ENDBRANCH  34  35
ENDBRANCH  32  34
ENDBRANCH   3  24
TORSDOF 14
ENDMDL
MODEL 4
REMARK VINA RESULT: -7.145875799      5.272      8.138
REMARK  14 active torsions:
REMARK  status: ('A' for Active; 'I' for Inactive)
REMARK    1  A    between atoms: C2_2  and  N1_3 
REMARK    2  A    between atoms: N1_3  and  C3_4 
REMARK       I    between atoms: N1_3  and  C5_6 
REMARK    3  A    between atoms: C5_6  and  C6_8 
REMARK    4  A    between atoms: C6_8  and  C7_9 
REMARK    5  A    between atoms: C6_8  and  N5_20 
REMARK    6  A    between atoms: C7_9  and  C8_10 
REMARK    7  A    between atoms: C8_10  and  C9_11 
REMARK    8  A    between atoms: C9_11  and  C10_12 
REMARK    9  A    between atoms: C10_12  and  N2_13 
REMARK       I    between atoms: N2_13  and  C11_15 
REMARK       I    between atoms: N5_20  and  C12_22 
REMARK   10  A    between atoms: C12_22  and  C13_24 
REMARK   11  A    between atoms: C19_30  and  C20_31 
REMARK   12  A    between atoms: C20_31  and  N6_32 
REMARK   13  A    between atoms: N6_32  and  O3_33 
REMARK   14  A    between atoms: N6_32  and  C21_35 
ROOT
HETATM    1  N5  UNL     1      12.450   9.167  24.102  1.00  0.00    -0.347 N 
ATOM      2  H5  UNL     1      12.901   9.639  24.886  1.00  0.00     0.163 HD
HETATM    3  C12 UNL     1      11.696   8.011  24.355  1.00  0.00     0.222 C 
HETATM    4  O2  UNL     1      11.115   7.396  23.389  1.00  0.00    -0.273 OA
ENDROOT
BRANCH   1   5
HETATM    5  C6  UNL     1      12.614   9.722  22.758  1.00  0.00     0.176 C 
BRANCH   5   6
HETATM    6  C5  UNL     1      11.751  10.922  22.714  1.00  0.00     0.242 C 
HETATM    7  N1  UNL     1      11.130  11.418  21.561  1.00  0.00    -0.351 N 
HETATM    8  O1  UNL     1      11.577  11.526  23.812  1.00  0.00    -0.271 OA
BRANCH   7   9
HETATM    9  C2  UNL     1      10.342  12.658  21.660  1.00  0.00     0.121 C 
HETATM   10  C1  UNL     1      10.536  13.489  20.395  1.00  0.00     0.026 C 
ENDBRANCH   7   9
BRANCH   7  11
HETATM   11  C3  UNL     1      11.216  10.735  20.317  1.00  0.00     0.121 C 
HETATM   12  C4  UNL     1      10.070   9.772  20.086  1.00  0.00     0.026 C 
ENDBRANCH   7  11
ENDBRANCH   5   6
BRANCH   5  13
HETATM   13  C7  UNL     1      14.073  10.174  22.717  1.00  0.00     0.035 C 
BRANCH  13  14
HETATM   14  C8  UNL     1      14.967   9.428  23.636  1.00  0.00     0.004 C 
BRANCH  14  15
HETATM   15  C9  UNL     1      16.386   9.428  23.137  1.00  0.00     0.020 C 
BRANCH  15  16
HETATM   16  C10 UNL     1      16.473   9.819  21.692  1.00  0.00     0.122 C 
BRANCH  16  17
HETATM   17  N2  UNL     1      16.695  11.235  21.562  1.00  0.00    -0.365 N 
HETATM   18  C11 UNL     1      17.372  11.779  20.447  1.00  0.00     0.181 C 
HETATM   19  N3  UNL     1      17.338  13.067  20.223  1.00  0.00    -0.374 N 
HETATM   20  N4  UNL     1      18.116  11.003  19.517  1.00  0.00    -0.064 NA
ATOM     21  H32 UNL     1      16.803  13.623  20.890  1.00  0.00     0.158 HD
ATOM     22  H31 UNL     1      17.826  13.459  19.418  1.00  0.00     0.158 HD
ATOM     23  H2  UNL     1      16.355  11.860  22.293  1.00  0.00     0.162 HD
ENDBRANCH  16  17
ENDBRANCH  15  16
ENDBRANCH  14  15
ENDBRANCH  13  14
ENDBRANCH   5  13
ENDBRANCH   1   5
BRANCH   3  24
HETATM   24  C13 UNL     1      11.521   7.436  25.705  1.00  0.00     0.080 C 
HETATM   25  C14 UNL     1      12.652   6.506  26.097  1.00  0.00     0.017 C 
HETATM   26  C15 UNL     1      12.040   5.354  26.858  1.00  0.00     0.042 C 
HETATM   27  C16 UNL     1      10.542   5.586  26.902  1.00  0.00     0.161 C 
HETATM   28  C17 UNL     1      10.206   6.153  28.247  1.00  0.00     0.044 C 
HETATM   29  N7  UNL     1       9.879   4.348  26.697  1.00  0.00     0.100 N 
HETATM   30  C23 UNL     1      10.261   6.595  25.801  1.00  0.00     0.055 C 
HETATM   31  C18 UNL     1       8.919   5.353  28.581  1.00  0.00     0.040 C 
HETATM   32  C19 UNL     1       9.238   4.022  27.931  1.00  0.00     0.243 C 
HETATM   33  C22 UNL     1       9.037   4.283  25.544  1.00  0.00     0.311 C 
BRANCH  32  34
HETATM   34  C20 UNL     1       8.103   3.070  27.852  1.00  0.00     0.194 C 
BRANCH  34  35
HETATM   35  N6  UNL     1       8.535   1.752  28.234  1.00  0.00    -0.234 N 
BRANCH  35  36
HETATM   36  O3  UNL     1       9.073   0.980  27.263  1.00  0.00    -0.285 OA
ATOM     37  H3  UNL     1       8.493   0.361  26.836  1.00  0.00     0.245 HD
ENDBRANCH  35  36
BRANCH  35  38
HETATM   38  C21 UNL     1       8.409   1.284  29.551  1.00  0.00     0.376 C 
HETATM   39  O4  UNL     1       7.700   1.809  30.451  1.00  0.00    -0.281 OA
ENDBRANCH  35  38
ENDBRANCH  34  35
ENDBRANCH  32  34
ENDBRANCH   3  24
TORSDOF 14
ENDMDL
MODEL 5
REMARK VINA RESULT: -7.081083026      4.633      8.535
REMARK  14 active torsions:
REMARK  status: ('A' for Active; 'I' for Inactive)
REMARK    1  A    between atoms: C2_2  and  N1_3 
REMARK    2  A    between atoms: N1_3  and  C3_4 
REMARK       I    between atoms: N1_3  and  C5_6 
REMARK    3  A    between atoms: C5_6  and  C6_8 
REMARK    4  A    between atoms: C6_8  and  C7_9 
REMARK    5  A    between atoms: C6_8  and  N5_20 
REMARK    6  A    between atoms: C7_9  and  C8_10 
REMARK    7  A    between atoms: C8_10  and  C9_11 
REMARK    8  A    between atoms: C9_11  and  C10_12 
REMARK    9  A    between atoms: C10_12  and  N2_13 
REMARK       I    between atoms: N2_13  and  C11_15 
REMARK       I    between atoms: N5_20  and  C12_22 
REMARK   10  A    between atoms: C12_22  and  C13_24 
REMARK   11  A    between atoms: C19_30  and  C20_31 
REMARK   12  A    between atoms: C20_31  and  N6_32 
REMARK   13  A    between atoms: N6_32  and  O3_33 
REMARK   14  A    between atoms: N6_32  and  C21_35 
ROOT
HETATM    1  N5  UNL     1      11.627   9.058  23.140  1.00  0.00    -0.347 N 
ATOM      2  H5  UNL     1      11.408   9.015  24.135  1.00  0.00     0.163 HD
HETATM    3  C12 UNL     1      11.105   8.069  22.291  1.00  0.00     0.222 C 
HETATM    4  O2  UNL     1      11.362   8.099  21.033  1.00  0.00    -0.273 OA
ENDROOT
BRANCH   1   5
HETATM    5  C6  UNL     1      12.471  10.149  22.652  1.00  0.00     0.176 C 
BRANCH   5   6
HETATM    6  C5  UNL     1      11.617  11.356  22.675  1.00  0.00     0.242 C 
HETATM    7  N1  UNL     1      11.120  12.005  21.538  1.00  0.00    -0.351 N 
HETATM    8  O1  UNL     1      11.328  11.814  23.819  1.00  0.00    -0.271 OA
BRANCH   7   9
HETATM    9  C2  UNL     1      10.324  13.231  21.716  1.00  0.00     0.121 C 
HETATM   10  C1  UNL     1      10.180  13.945  20.375  1.00  0.00     0.026 C 
ENDBRANCH   7   9
BRANCH   7  11
HETATM   11  C3  UNL     1      11.336  11.488  20.232  1.00  0.00     0.121 C 
HETATM   12  C4  UNL     1      10.169  10.673  19.712  1.00  0.00     0.026 C 
ENDBRANCH   7  11
ENDBRANCH   5   6
BRANCH   5  13
HETATM   13  C7  UNL     1      13.546  10.298  23.729  1.00  0.00     0.035 C 
BRANCH  13  14
HETATM   14  C8  UNL     1      14.859   9.713  23.362  1.00  0.00     0.004 C 
BRANCH  14  15
HETATM   15  C9  UNL     1      15.476   8.985  24.524  1.00  0.00     0.020 C 
BRANCH  15  16
HETATM   16  C10 UNL     1      14.571   8.968  25.720  1.00  0.00     0.122 C 
BRANCH  16  17
HETATM   17  N2  UNL     1      15.337   9.028  26.936  1.00  0.00    -0.365 N 
HETATM   18  C11 UNL     1      15.382  10.200  27.726  1.00  0.00     0.181 C 
HETATM   19  N3  UNL     1      15.866  10.156  28.939  1.00  0.00    -0.374 N 
HETATM   20  N4  UNL     1      14.926  11.471  27.281  1.00  0.00    -0.064 NA
ATOM     21  H32 UNL     1      16.192   9.244  29.258  1.00  0.00     0.158 HD
ATOM     22  H31 UNL     1      15.898  11.001  29.509  1.00  0.00     0.158 HD
ATOM     23  H2  UNL     1      15.860   8.205  27.236  1.00  0.00     0.162 HD
ENDBRANCH  16  17
ENDBRANCH  15  16
ENDBRANCH  14  15
ENDBRANCH  13  14
ENDBRANCH   5  13
ENDBRANCH   1   5
BRANCH   3  24
HETATM   24  C13 UNL     1      10.253   6.960  22.766  1.00  0.00     0.080 C 
HETATM   25  C14 UNL     1       8.862   7.416  23.159  1.00  0.00     0.017 C 
HETATM   26  C15 UNL     1       8.463   6.628  24.384  1.00  0.00     0.042 C 
HETATM   27  C16 UNL     1       9.623   5.717  24.734  1.00  0.00     0.161 C 
HETATM   28  C17 UNL     1       9.302   4.348  24.218  1.00  0.00     0.044 C 
HETATM   29  N7  UNL     1       9.785   5.699  26.143  1.00  0.00     0.100 N 
HETATM   30  C23 UNL     1      10.824   6.303  24.009  1.00  0.00     0.055 C 
HETATM   31  C18 UNL     1       9.770   3.475  25.413  1.00  0.00     0.040 C 
HETATM   32  C19 UNL     1       9.432   4.385  26.576  1.00  0.00     0.243 C 
HETATM   33  C22 UNL     1      11.043   6.175  26.626  1.00  0.00     0.311 C 
BRANCH  32  34
HETATM   34  C20 UNL     1       9.972   3.957  27.890  1.00  0.00     0.194 C 
BRANCH  34  35
HETATM   35  N6  UNL     1       8.999   3.159  28.588  1.00  0.00    -0.234 N 
BRANCH  35  36
HETATM   36  O3  UNL     1       7.984   3.821  29.189  1.00  0.00    -0.285 OA
ATOM     37  H3  UNL     1       7.482   3.339  29.836  1.00  0.00     0.245 HD
ENDBRANCH  35  36
BRANCH  35  38
HETATM   38  C21 UNL     1       9.092   1.760  28.644  1.00  0.00     0.376 C 
HETATM   39  O4  UNL     1       8.909   0.973  27.677  1.00  0.00    -0.281 OA
ENDBRANCH  35  38
ENDBRANCH  34  35
ENDBRANCH  32  34
ENDBRANCH   3  24
TORSDOF 14
ENDMDL
