MODEL 1
REMARK VINA RESULT: -6.981451380      0.000      0.000
REMARK  17 active torsions:
REMARK  status: ('A' for Active; 'I' for Inactive)
REMARK    1  A    between atoms: C2_2  and  C3_3 
REMARK    2  A    between atoms: C3_3  and  C4_4 
REMARK    3  A    between atoms: C4_4  and  C5_5 
REMARK    4  A    between atoms: C4_4  and  N3_14 
REMARK    5  A    between atoms: C5_5  and  N1_6 
REMARK    6  A    between atoms: N1_6  and  C6_8 
REMARK    7  A    between atoms: C6_8  and  N2_10 
REMARK    8  A    between atoms: N2_10  and  C7_12 
REMARK    9  A    between atoms: N3_14  and  C9_16 
REMARK   10  A    between atoms: C9_16  and  C10_17 
REMARK   11  A    between atoms: C9_16  and  C14_21 
REMARK   12  A    between atoms: C10_17  and  C11_18 
REMARK   13  A    between atoms: C14_21  and  N4_22 
REMARK   14  A    between atoms: C14_21  and  C15_26 
REMARK   15  A    between atoms: C15_26  and  C16_27 
REMARK       I    between atoms: C16_27  and  N5_29 
REMARK   16  A    between atoms: N5_29  and  S2_31 
REMARK   17  A    between atoms: S2_31  and  N6_34 
ROOT
HETATM    1  C9  UNL     1       9.581   6.079  27.443  1.00  0.00     0.112 C 
ENDROOT
BRANCH   1   2
HETATM    2  N3  UNL     1      10.175   4.812  27.387  1.00  0.00    -0.388 N 
ATOM      3  H3  UNL     1      11.191   4.764  27.307  1.00  0.00     0.159 HD
BRANCH   2   4
HETATM    4  C4  UNL     1       9.462   3.612  27.434  1.00  0.00     0.000 C 
BRANCH   4   5
HETATM    5  C3  UNL     1       8.939   3.096  28.721  1.00  0.00     0.053 C 
BRANCH   5   6
HETATM    6  C2  UNL     1       8.674   1.636  28.865  1.00  0.00     0.001 C 
HETATM    7  C1  UNL     1       7.838   1.359  30.122  1.00  0.00     0.005 C 
ENDBRANCH   5   6
ENDBRANCH   4   5
BRANCH   4   8
HETATM    8  C5  UNL     1       9.992   2.557  26.509  1.00  0.00     0.174 C 
BRANCH   8   9
HETATM    9  N1  UNL     1      11.130   2.907  25.737  1.00  0.00    -0.362 N 
ATOM     10  H1  UNL     1      12.021   3.039  26.218  1.00  0.00     0.162 HD
BRANCH   9  11
HETATM   11  C6  UNL     1      11.090   3.081  24.330  1.00  0.00     0.167 C 
HETATM   12  S1  UNL     1      10.077   4.159  23.623  1.00  0.00    -0.041 SA
BRANCH  11  13
HETATM   13  N2  UNL     1      11.932   2.317  23.489  1.00  0.00    -0.368 N 
ATOM     14  H2  UNL     1      12.941   2.462  23.542  1.00  0.00     0.161 HD
BRANCH  13  15
HETATM   15  C7  UNL     1      11.419   1.340  22.558  1.00  0.00     0.117 C 
HETATM   16  C8  UNL     1      12.481   0.919  21.555  1.00  0.00     0.026 C 
ENDBRANCH  13  15
ENDBRANCH  11  13
ENDBRANCH   9  11
ENDBRANCH   8   9
ENDBRANCH   4   8
ENDBRANCH   2   4
ENDBRANCH   1   2
BRANCH   1  17
HETATM   17  C10 UNL     1       9.044   6.487  28.740  1.00  0.00     0.031 C 
BRANCH  17  18
HETATM   18  C11 UNL     1       9.476   7.881  29.185  1.00  0.00    -0.013 A 
HETATM   19  C12 UNL     1       8.514   8.598  30.122  1.00  0.00     0.005 A 
HETATM   20  C13 UNL     1       9.728   7.996  30.674  1.00  0.00     0.005 A 
ENDBRANCH  17  18
ENDBRANCH   1  17
BRANCH   1  21
HETATM   21  C14 UNL     1      10.432   7.135  26.746  1.00  0.00     0.214 C 
BRANCH  21  22
HETATM   22  N4  UNL     1       9.636   7.829  25.786  1.00  0.00    -0.073 N 
ATOM     23  H43 UNL     1      10.158   8.567  25.313  1.00  0.00     0.274 HD
ATOM     24  H42 UNL     1       9.426   7.253  24.971  1.00  0.00     0.274 HD
ATOM     25  H41 UNL     1       8.792   8.182  26.236  1.00  0.00     0.274 HD
ENDBRANCH  21  22
BRANCH  21  26
HETATM   26  C15 UNL     1      11.686   6.610  26.143  1.00  0.00     0.138 C 
BRANCH  26  27
HETATM   27  C16 UNL     1      12.670   7.710  25.973  1.00  0.00     0.234 C 
HETATM   28  O1  UNL     1      12.259   8.828  25.577  1.00  0.00    -0.273 OA
HETATM   29  N5  UNL     1      14.064   7.588  26.226  1.00  0.00    -0.237 N 
ATOM     30  H5  UNL     1      14.433   6.694  26.552  1.00  0.00     0.183 HD
BRANCH  29  31
HETATM   31  S2  UNL     1      15.149   8.911  25.998  1.00  0.00     0.323 S 
HETATM   32  O2  UNL     1      16.548   8.316  25.849  1.00  0.00    -0.182 OA
HETATM   33  O3  UNL     1      14.867   9.533  24.637  1.00  0.00    -0.182 OA
BRANCH  31  34
HETATM   34  N6  UNL     1      15.181  10.071  27.163  1.00  0.00    -0.294 N 
HETATM   35  C17 UNL     1      15.492   9.852  28.490  1.00  0.00     0.137 C 
HETATM   36  C18 UNL     1      16.079  11.218  28.915  1.00  0.00     0.022 C 
HETATM   37  C19 UNL     1      15.694  12.191  27.833  1.00  0.00     0.022 C 
HETATM   38  C20 UNL     1      14.735  11.374  26.961  1.00  0.00     0.137 C 
ENDBRANCH  31  34
ENDBRANCH  29  31
ENDBRANCH  26  27
ENDBRANCH  21  26
ENDBRANCH   1  21
TORSDOF 17
ENDMDL
MODEL 2
REMARK VINA RESULT: -6.950149128      1.685      3.856
REMARK  17 active torsions:
REMARK  status: ('A' for Active; 'I' for Inactive)
REMARK    1  A    between atoms: C2_2  and  C3_3 
REMARK    2  A    between atoms: C3_3  and  C4_4 
REMARK    3  A    between atoms: C4_4  and  C5_5 
REMARK    4  A    between atoms: C4_4  and  N3_14 
REMARK    5  A    between atoms: C5_5  and  N1_6 
REMARK    6  A    between atoms: N1_6  and  C6_8 
REMARK    7  A    between atoms: C6_8  and  N2_10 
REMARK    8  A    between atoms: N2_10  and  C7_12 
REMARK    9  A    between atoms: N3_14  and  C9_16 
REMARK   10  A    between atoms: C9_16  and  C10_17 
REMARK   11  A    between atoms: C9_16  and  C14_21 
REMARK   12  A    between atoms: C10_17  and  C11_18 
REMARK   13  A    between atoms: C14_21  and  N4_22 
REMARK   14  A    between atoms: C14_21  and  C15_26 
REMARK   15  A    between atoms: C15_26  and  C16_27 
REMARK       I    between atoms: C16_27  and  N5_29 
REMARK   16  A    between atoms: N5_29  and  S2_31 
REMARK   17  A    between atoms: S2_31  and  N6_34 
ROOT
HETATM    1  C9  UNL     1       9.789   5.991  27.344  1.00  0.00     0.112 C 
ENDROOT
BRANCH   1   2
HETATM    2  N3  UNL     1      10.510   4.791  27.358  1.00  0.00    -0.388 N 
ATOM      3  H3  UNL     1      11.363   4.752  27.917  1.00  0.00     0.159 HD
BRANCH   2   4
HETATM    4  C4  UNL     1      10.135   3.644  26.654  1.00  0.00     0.000 C 
BRANCH   4   5
HETATM    5  C3  UNL     1       9.426   3.754  25.358  1.00  0.00     0.053 C 
BRANCH   5   6
HETATM    6  C2  UNL     1      10.221   3.885  24.104  1.00  0.00     0.001 C 
HETATM    7  C1  UNL     1      11.305   2.800  24.034  1.00  0.00     0.005 C 
ENDBRANCH   5   6
ENDBRANCH   4   5
BRANCH   4   8
HETATM    8  C5  UNL     1       9.659   2.524  27.531  1.00  0.00     0.174 C 
BRANCH   8   9
HETATM    9  N1  UNL     1       8.255   2.328  27.601  1.00  0.00    -0.362 N 
ATOM     10  H1  UNL     1       7.841   1.584  27.038  1.00  0.00     0.162 HD
BRANCH   9  11
HETATM   11  C6  UNL     1       7.402   3.116  28.415  1.00  0.00     0.167 C 
HETATM   12  S1  UNL     1       6.179   4.004  27.777  1.00  0.00    -0.041 SA
BRANCH  11  13
HETATM   13  N2  UNL     1       7.586   3.157  29.816  1.00  0.00    -0.368 N 
ATOM     14  H2  UNL     1       7.987   3.996  30.235  1.00  0.00     0.161 HD
BRANCH  13  15
HETATM   15  C7  UNL     1       7.227   2.055  30.678  1.00  0.00     0.117 C 
HETATM   16  C8  UNL     1       6.494   2.539  31.919  1.00  0.00     0.026 C 
ENDBRANCH  13  15
ENDBRANCH  11  13
ENDBRANCH   9  11
ENDBRANCH   8   9
ENDBRANCH   4   8
ENDBRANCH   2   4
ENDBRANCH   1   2
BRANCH   1  17
HETATM   17  C10 UNL     1       9.170   6.392  28.606  1.00  0.00     0.031 C 
BRANCH  17  18
HETATM   18  C11 UNL     1       9.532   7.802  29.059  1.00  0.00    -0.013 A 
HETATM   19  C12 UNL     1       8.580   8.433  30.065  1.00  0.00     0.005 A 
HETATM   20  C13 UNL     1       9.862   7.906  30.534  1.00  0.00     0.005 A 
ENDBRANCH  17  18
ENDBRANCH   1  17
BRANCH   1  21
HETATM   21  C14 UNL     1      10.550   7.101  26.627  1.00  0.00     0.214 C 
BRANCH  21  22
HETATM   22  N4  UNL     1       9.702   7.707  25.653  1.00  0.00    -0.073 N 
ATOM     23  H43 UNL     1       8.758   7.864  26.007  1.00  0.00     0.274 HD
ATOM     24  H42 UNL     1       9.954   8.679  25.474  1.00  0.00     0.274 HD
ATOM     25  H41 UNL     1       9.705   7.145  24.802  1.00  0.00     0.274 HD
ENDBRANCH  21  22
BRANCH  21  26
HETATM   26  C15 UNL     1      11.846   6.671  26.036  1.00  0.00     0.138 C 
BRANCH  26  27
HETATM   27  C16 UNL     1      12.762   7.834  25.914  1.00  0.00     0.234 C 
HETATM   28  O1  UNL     1      12.274   8.957  25.639  1.00  0.00    -0.273 OA
HETATM   29  N5  UNL     1      14.172   7.768  26.086  1.00  0.00    -0.237 N 
ATOM     30  H5  UNL     1      14.603   6.871  26.313  1.00  0.00     0.183 HD
BRANCH  29  31
HETATM   31  S2  UNL     1      15.174   9.163  25.920  1.00  0.00     0.323 S 
HETATM   32  O2  UNL     1      16.588   8.661  25.631  1.00  0.00    -0.182 OA
HETATM   33  O3  UNL     1      14.774   9.894  24.645  1.00  0.00    -0.182 OA
BRANCH  31  34
HETATM   34  N6  UNL     1      15.226  10.210  27.187  1.00  0.00    -0.294 N 
HETATM   35  C17 UNL     1      15.589   9.875  28.477  1.00  0.00     0.137 C 
HETATM   36  C18 UNL     1      16.165  11.208  29.008  1.00  0.00     0.022 C 
HETATM   37  C19 UNL     1      15.724  12.270  28.036  1.00  0.00     0.022 C 
HETATM   38  C20 UNL     1      14.749  11.517  27.124  1.00  0.00     0.137 C 
ENDBRANCH  31  34
ENDBRANCH  29  31
ENDBRANCH  26  27
ENDBRANCH  21  26
ENDBRANCH   1  21
TORSDOF 17
ENDMDL
MODEL 3
REMARK VINA RESULT: -6.894597930      2.418      5.295
REMARK  17 active torsions:
REMARK  status: ('A' for Active; 'I' for Inactive)
REMARK    1  A    between atoms: C2_2  and  C3_3 
REMARK    2  A    between atoms: C3_3  and  C4_4 
REMARK    3  A    between atoms: C4_4  and  C5_5 
REMARK    4  A    between atoms: C4_4  and  N3_14 
REMARK    5  A    between atoms: C5_5  and  N1_6 
REMARK    6  A    between atoms: N1_6  and  C6_8 
REMARK    7  A    between atoms: C6_8  and  N2_10 
REMARK    8  A    between atoms: N2_10  and  C7_12 
REMARK    9  A    between atoms: N3_14  and  C9_16 
REMARK   10  A    between atoms: C9_16  and  C10_17 
REMARK   11  A    between atoms: C9_16  and  C14_21 
REMARK   12  A    between atoms: C10_17  and  C11_18 
REMARK   13  A    between atoms: C14_21  and  N4_22 
REMARK   14  A    between atoms: C14_21  and  C15_26 
REMARK   15  A    between atoms: C15_26  and  C16_27 
REMARK       I    between atoms: C16_27  and  N5_29 
REMARK   16  A    between atoms: N5_29  and  S2_31 
REMARK   17  A    between atoms: S2_31  and  N6_34 
ROOT
HETATM    1  C9  UNL     1      10.121   4.507  25.601  1.00  0.00     0.112 C 
ENDROOT
BRANCH   1   2
HETATM    2  N3  UNL     1       8.975   5.149  26.087  1.00  0.00    -0.388 N 
ATOM      3  H3  UNL     1       9.093   6.041  26.566  1.00  0.00     0.159 HD
BRANCH   2   4
HETATM    4  C4  UNL     1       7.680   4.641  25.955  1.00  0.00     0.000 C 
BRANCH   4   5
HETATM    5  C3  UNL     1       6.716   5.267  25.020  1.00  0.00     0.053 C 
BRANCH   5   6
HETATM    6  C2  UNL     1       7.231   6.003  23.830  1.00  0.00     0.001 C 
HETATM    7  C1  UNL     1       6.073   6.436  22.920  1.00  0.00     0.005 C 
ENDBRANCH   5   6
ENDBRANCH   4   5
BRANCH   4   8
HETATM    8  C5  UNL     1       7.079   4.172  27.247  1.00  0.00     0.174 C 
BRANCH   8   9
HETATM    9  N1  UNL     1       7.234   2.795  27.553  1.00  0.00    -0.362 N 
ATOM     10  H1  UNL     1       6.694   2.115  27.017  1.00  0.00     0.162 HD
BRANCH   9  11
HETATM   11  C6  UNL     1       8.103   2.319  28.568  1.00  0.00     0.167 C 
HETATM   12  S1  UNL     1       9.709   2.117  28.305  1.00  0.00    -0.041 SA
BRANCH  11  13
HETATM   13  N2  UNL     1       7.599   2.000  29.851  1.00  0.00    -0.368 N 
ATOM     14  H2  UNL     1       7.556   1.021  30.132  1.00  0.00     0.161 HD
BRANCH  13  15
HETATM   15  C7  UNL     1       7.144   3.010  30.778  1.00  0.00     0.117 C 
HETATM   16  C8  UNL     1       6.446   2.387  31.976  1.00  0.00     0.026 C 
ENDBRANCH  13  15
ENDBRANCH  11  13
ENDBRANCH   9  11
ENDBRANCH   8   9
ENDBRANCH   4   8
ENDBRANCH   2   4
ENDBRANCH   1   2
BRANCH   1  17
HETATM   17  C10 UNL     1       9.964   3.751  24.359  1.00  0.00     0.031 C 
BRANCH  17  18
HETATM   18  C11 UNL     1      10.684   2.407  24.352  1.00  0.00    -0.013 A 
HETATM   19  C12 UNL     1      10.565   1.606  23.063  1.00  0.00     0.005 A 
HETATM   20  C13 UNL     1      11.810   2.322  23.341  1.00  0.00     0.005 A 
ENDBRANCH  17  18
ENDBRANCH   1  17
BRANCH   1  21
HETATM   21  C14 UNL     1      11.341   5.422  25.640  1.00  0.00     0.214 C 
BRANCH  21  22
HETATM   22  N4  UNL     1      12.352   4.831  26.455  1.00  0.00    -0.073 N 
ATOM     23  H43 UNL     1      12.118   4.867  27.447  1.00  0.00     0.274 HD
ATOM     24  H42 UNL     1      12.387   3.817  26.351  1.00  0.00     0.274 HD
ATOM     25  H41 UNL     1      13.250   5.270  26.254  1.00  0.00     0.274 HD
ENDBRANCH  21  22
BRANCH  21  26
HETATM   26  C15 UNL     1      11.046   6.818  26.058  1.00  0.00     0.138 C 
BRANCH  26  27
HETATM   27  C16 UNL     1      12.134   7.726  25.610  1.00  0.00     0.234 C 
HETATM   28  O1  UNL     1      12.251   7.963  24.383  1.00  0.00    -0.273 OA
HETATM   29  N5  UNL     1      13.068   8.352  26.480  1.00  0.00    -0.237 N 
ATOM     30  H5  UNL     1      13.001   8.183  27.484  1.00  0.00     0.183 HD
BRANCH  29  31
HETATM   31  S2  UNL     1      14.312   9.389  25.884  1.00  0.00     0.323 S 
HETATM   32  O2  UNL     1      15.258   8.517  25.060  1.00  0.00    -0.182 OA
HETATM   33  O3  UNL     1      13.699  10.335  24.861  1.00  0.00    -0.182 OA
BRANCH  31  34
HETATM   34  N6  UNL     1      15.187  10.232  26.992  1.00  0.00    -0.294 N 
HETATM   35  C17 UNL     1      15.217  11.608  27.097  1.00  0.00     0.137 C 
HETATM   36  C18 UNL     1      15.515  11.813  28.600  1.00  0.00     0.022 C 
HETATM   37  C19 UNL     1      15.982  10.478  29.117  1.00  0.00     0.022 C 
HETATM   38  C20 UNL     1      16.123   9.644  27.839  1.00  0.00     0.137 C 
ENDBRANCH  31  34
ENDBRANCH  29  31
ENDBRANCH  26  27
ENDBRANCH  21  26
ENDBRANCH   1  21
TORSDOF 17
ENDMDL
MODEL 4
REMARK VINA RESULT: -6.888796273      3.784      8.758
REMARK  17 active torsions:
REMARK  status: ('A' for Active; 'I' for Inactive)
REMARK    1  A    between atoms: C2_2  and  C3_3 
REMARK    2  A    between atoms: C3_3  and  C4_4 
REMARK    3  A    between atoms: C4_4  and  C5_5 
REMARK    4  A    between atoms: C4_4  and  N3_14 
REMARK    5  A    between atoms: C5_5  and  N1_6 
REMARK    6  A    between atoms: N1_6  and  C6_8 
REMARK    7  A    between atoms: C6_8  and  N2_10 
REMARK    8  A    between atoms: N2_10  and  C7_12 
REMARK    9  A    between atoms: N3_14  and  C9_16 
REMARK   10  A    between atoms: C9_16  and  C10_17 
REMARK   11  A    between atoms: C9_16  and  C14_21 
REMARK   12  A    between atoms: C10_17  and  C11_18 
REMARK   13  A    between atoms: C14_21  and  N4_22 
REMARK   14  A    between atoms: C14_21  and  C15_26 
REMARK   15  A    between atoms: C15_26  and  C16_27 
REMARK       I    between atoms: C16_27  and  N5_29 
REMARK   16  A    between atoms: N5_29  and  S2_31 
REMARK   17  A    between atoms: S2_31  and  N6_34 
ROOT
HETATM    1  C9  UNL     1      10.720   6.252  28.172  1.00  0.00     0.112 C 
ENDROOT
BRANCH   1   2
HETATM    2  N3  UNL     1      11.599   6.336  27.085  1.00  0.00    -0.388 N 
ATOM      3  H3  UNL     1      12.461   5.793  27.123  1.00  0.00     0.159 HD
BRANCH   2   4
HETATM    4  C4  UNL     1      11.367   7.120  25.951  1.00  0.00     0.000 C 
BRANCH   4   5
HETATM    5  C3  UNL     1      10.702   6.543  24.760  1.00  0.00     0.053 C 
BRANCH   5   6
HETATM    6  C2  UNL     1      11.014   5.141  24.360  1.00  0.00     0.001 C 
HETATM    7  C1  UNL     1       9.735   4.400  23.944  1.00  0.00     0.005 C 
ENDBRANCH   5   6
ENDBRANCH   4   5
BRANCH   4   8
HETATM    8  C5  UNL     1      12.477   8.079  25.642  1.00  0.00     0.174 C 
BRANCH   8   9
HETATM    9  N1  UNL     1      13.689   7.897  26.358  1.00  0.00    -0.362 N 
ATOM     10  H1  UNL     1      13.803   7.047  26.911  1.00  0.00     0.162 HD
BRANCH   9  11
HETATM   11  C6  UNL     1      14.749   8.839  26.341  1.00  0.00     0.167 C 
HETATM   12  S1  UNL     1      15.733   9.007  25.040  1.00  0.00    -0.041 SA
BRANCH  11  13
HETATM   13  N2  UNL     1      14.989   9.668  27.461  1.00  0.00    -0.368 N 
ATOM     14  H2  UNL     1      14.909   9.266  28.395  1.00  0.00     0.161 HD
BRANCH  13  15
HETATM   15  C7  UNL     1      15.343  11.063  27.332  1.00  0.00     0.117 C 
HETATM   16  C8  UNL     1      15.741  11.658  28.673  1.00  0.00     0.026 C 
ENDBRANCH  13  15
ENDBRANCH  11  13
ENDBRANCH   9  11
ENDBRANCH   8   9
ENDBRANCH   4   8
ENDBRANCH   2   4
ENDBRANCH   1   2
BRANCH   1  17
HETATM   17  C10 UNL     1       9.851   7.406  28.395  1.00  0.00     0.031 C 
BRANCH  17  18
HETATM   18  C11 UNL     1       9.648   7.761  29.865  1.00  0.00    -0.013 A 
HETATM   19  C12 UNL     1       8.575   8.802  30.146  1.00  0.00     0.005 A 
HETATM   20  C13 UNL     1       8.280   7.392  30.400  1.00  0.00     0.005 A 
ENDBRANCH  17  18
ENDBRANCH   1  17
BRANCH   1  21
HETATM   21  C14 UNL     1      10.012   4.902  28.223  1.00  0.00     0.214 C 
BRANCH  21  22
HETATM   22  N4  UNL     1      10.872   3.894  27.693  1.00  0.00    -0.073 N 
ATOM     23  H43 UNL     1      11.613   4.285  27.112  1.00  0.00     0.274 HD
ATOM     24  H42 UNL     1      11.459   3.471  28.412  1.00  0.00     0.274 HD
ATOM     25  H41 UNL     1      10.315   3.201  27.193  1.00  0.00     0.274 HD
ENDBRANCH  21  22
BRANCH  21  26
HETATM   26  C15 UNL     1       8.677   4.886  27.567  1.00  0.00     0.138 C 
BRANCH  26  27
HETATM   27  C16 UNL     1       7.829   3.821  28.162  1.00  0.00     0.234 C 
HETATM   28  O1  UNL     1       7.963   2.644  27.748  1.00  0.00    -0.273 OA
HETATM   29  N5  UNL     1       6.860   4.041  29.180  1.00  0.00    -0.237 N 
ATOM     30  H5  UNL     1       6.726   4.985  29.542  1.00  0.00     0.183 HD
BRANCH  29  31
HETATM   31  S2  UNL     1       5.904   2.753  29.818  1.00  0.00     0.323 S 
HETATM   32  O2  UNL     1       4.653   3.387  30.423  1.00  0.00    -0.182 OA
HETATM   33  O3  UNL     1       5.372   1.927  28.654  1.00  0.00    -0.182 OA
BRANCH  31  34
HETATM   34  N6  UNL     1       6.606   1.776  30.939  1.00  0.00    -0.294 N 
HETATM   35  C17 UNL     1       6.465   1.911  32.306  1.00  0.00     0.137 C 
HETATM   36  C18 UNL     1       6.647   0.455  32.796  1.00  0.00     0.022 C 
HETATM   37  C19 UNL     1       7.238  -0.303  31.638  1.00  0.00     0.022 C 
HETATM   38  C20 UNL     1       7.553   0.804  30.626  1.00  0.00     0.137 C 
ENDBRANCH  31  34
ENDBRANCH  29  31
ENDBRANCH  26  27
ENDBRANCH  21  26
ENDBRANCH   1  21
TORSDOF 17
ENDMDL
MODEL 5
REMARK VINA RESULT: -6.850307771      2.254      4.140
REMARK  17 active torsions:
REMARK  status: ('A' for Active; 'I' for Inactive)
REMARK    1  A    between atoms: C2_2  and  C3_3 
REMARK    2  A    between atoms: C3_3  and  C4_4 
REMARK    3  A    between atoms: C4_4  and  C5_5 
REMARK    4  A    between atoms: C4_4  and  N3_14 
REMARK    5  A    between atoms: C5_5  and  N1_6 
REMARK    6  A    between atoms: N1_6  and  C6_8 
REMARK    7  A    between atoms: C6_8  and  N2_10 
REMARK    8  A    between atoms: N2_10  and  C7_12 
REMARK    9  A    between atoms: N3_14  and  C9_16 
REMARK   10  A    between atoms: C9_16  and  C10_17 
REMARK   11  A    between atoms: C9_16  and  C14_21 
REMARK   12  A    between atoms: C10_17  and  C11_18 
REMARK   13  A    between atoms: C14_21  and  N4_22 
REMARK   14  A    between atoms: C14_21  and  C15_26 
REMARK   15  A    between atoms: C15_26  and  C16_27 
REMARK       I    between atoms: C16_27  and  N5_29 
REMARK   16  A    between atoms: N5_29  and  S2_31 
REMARK   17  A    between atoms: S2_31  and  N6_34 
ROOT
HETATM    1  C9  UNL     1      10.568   4.332  26.888  1.00  0.00     0.112 C 
ENDROOT
BRANCH   1   2
HETATM    2  N3  UNL     1      11.047   3.732  25.716  1.00  0.00    -0.388 N 
ATOM      3  H3  UNL     1      12.054   3.606  25.620  1.00  0.00     0.159 HD
BRANCH   2   4
HETATM    4  C4  UNL     1      10.228   3.296  24.671  1.00  0.00     0.000 C 
BRANCH   4   5
HETATM    5  C3  UNL     1      10.617   2.128  23.846  1.00  0.00     0.053 C 
BRANCH   5   6
HETATM    6  C2  UNL     1      11.915   2.155  23.113  1.00  0.00     0.001 C 
HETATM    7  C1  UNL     1      11.972   1.028  22.071  1.00  0.00     0.005 C 
ENDBRANCH   5   6
ENDBRANCH   4   5
BRANCH   4   8
HETATM    8  C5  UNL     1       9.578   4.410  23.906  1.00  0.00     0.174 C 
BRANCH   8   9
HETATM    9  N1  UNL     1      10.431   5.453  23.460  1.00  0.00    -0.362 N 
ATOM     10  H1  UNL     1      11.437   5.283  23.444  1.00  0.00     0.162 HD
BRANCH   9  11
HETATM   11  C6  UNL     1       9.952   6.719  23.036  1.00  0.00     0.167 C 
HETATM   12  S1  UNL     1       8.510   7.311  23.546  1.00  0.00    -0.041 SA
BRANCH  11  13
HETATM   13  N2  UNL     1      10.715   7.512  22.148  1.00  0.00    -0.368 N 
ATOM     14  H2  UNL     1      11.732   7.442  22.177  1.00  0.00     0.161 HD
BRANCH  13  15
HETATM   15  C7  UNL     1      10.107   8.420  21.202  1.00  0.00     0.117 C 
HETATM   16  C8  UNL     1      10.343   7.966  19.771  1.00  0.00     0.026 C 
ENDBRANCH  13  15
ENDBRANCH  11  13
ENDBRANCH   9  11
ENDBRANCH   8   9
ENDBRANCH   4   8
ENDBRANCH   2   4
ENDBRANCH   1   2
BRANCH   1  17
HETATM   17  C10 UNL     1      10.275   3.434  28.003  1.00  0.00     0.031 C 
BRANCH  17  18
HETATM   18  C11 UNL     1       8.894   2.791  27.942  1.00  0.00    -0.013 A 
HETATM   19  C12 UNL     1       8.695   1.576  28.837  1.00  0.00     0.005 A 
HETATM   20  C13 UNL     1       8.128   2.862  29.247  1.00  0.00     0.005 A 
ENDBRANCH  17  18
ENDBRANCH   1  17
BRANCH   1  21
HETATM   21  C14 UNL     1      11.378   5.569  27.261  1.00  0.00     0.214 C 
BRANCH  21  22
HETATM   22  N4  UNL     1      11.458   5.673  28.683  1.00  0.00    -0.073 N 
ATOM     23  H43 UNL     1      11.672   6.622  28.989  1.00  0.00     0.274 HD
ATOM     24  H42 UNL     1      10.545   5.579  29.128  1.00  0.00     0.274 HD
ATOM     25  H41 UNL     1      12.130   4.993  29.036  1.00  0.00     0.274 HD
ENDBRANCH  21  22
BRANCH  21  26
HETATM   26  C15 UNL     1      10.889   6.831  26.645  1.00  0.00     0.138 C 
BRANCH  26  27
HETATM   27  C16 UNL     1      12.029   7.601  26.086  1.00  0.00     0.234 C 
HETATM   28  O1  UNL     1      12.251   7.535  24.852  1.00  0.00    -0.273 OA
HETATM   29  N5  UNL     1      12.903   8.417  26.856  1.00  0.00    -0.237 N 
ATOM     30  H5  UNL     1      12.751   8.496  27.862  1.00  0.00     0.183 HD
BRANCH  29  31
HETATM   31  S2  UNL     1      14.214   9.278  26.135  1.00  0.00     0.323 S 
HETATM   32  O2  UNL     1      15.120   8.237  25.480  1.00  0.00    -0.182 OA
HETATM   33  O3  UNL     1      13.672  10.084  24.962  1.00  0.00    -0.182 OA
BRANCH  31  34
HETATM   34  N6  UNL     1      15.120  10.235  27.118  1.00  0.00    -0.294 N 
HETATM   35  C17 UNL     1      15.126  11.616  27.093  1.00  0.00     0.137 C 
HETATM   36  C18 UNL     1      15.486  11.965  28.556  1.00  0.00     0.022 C 
HETATM   37  C19 UNL     1      16.004  10.692  29.172  1.00  0.00     0.022 C 
HETATM   38  C20 UNL     1      16.105   9.745  27.971  1.00  0.00     0.137 C 
ENDBRANCH  31  34
ENDBRANCH  29  31
ENDBRANCH  26  27
ENDBRANCH  21  26
ENDBRANCH   1  21
TORSDOF 17
ENDMDL
