MODEL 1
REMARK VINA RESULT: -8.518449525      0.000      0.000
REMARK  13 active torsions:
REMARK  status: ('A' for Active; 'I' for Inactive)
REMARK    1  A    between atoms: C2_2  and  N1_3 
REMARK    2  A    between atoms: N1_3  and  C3_4 
REMARK    3  A    between atoms: N1_3  and  C5_6 
REMARK    4  A    between atoms: C5_6  and  C6_7 
REMARK    5  A    between atoms: C6_7  and  C7_8 
REMARK    6  A    between atoms: C7_8  and  C8_9 
REMARK    7  A    between atoms: C10_14  and  C11_15 
REMARK    8  A    between atoms: C11_15  and  C12_16 
REMARK    9  A    between atoms: C12_16  and  C13_17 
REMARK   10  A    between atoms: C13_17  and  N3_18 
REMARK       I    between atoms: N3_18  and  C14_20 
REMARK       I    between atoms: C14_20  and  N6_25 
REMARK   11  A    between atoms: N6_25  and  C16_27 
REMARK   12  A    between atoms: C16_27  and  C17_28 
REMARK   13  A    between atoms: C17_28  and  C18_29 
ROOT
HETATM    1  N3  UNL     1      12.070   6.877  26.954  1.00  0.00    -0.226 N 
ATOM      2  H3  UNL     1      12.102   7.023  27.962  1.00  0.00     0.177 HD
HETATM    3  C14 UNL     1      11.529   5.682  26.445  1.00  0.00     0.682 C 
HETATM    4  N4  UNL     1      11.359   5.521  25.189  1.00  0.00    -0.126 N 
ATOM      5  H4  UNL     1      11.621   6.272  24.550  1.00  0.00     0.197 HD
HETATM    6  C15 UNL     1      10.825   4.345  24.675  1.00  0.00     0.196 C 
HETATM    7  N5  UNL     1      10.384   3.366  24.272  1.00  0.00    -0.171 NA
HETATM    8  N6  UNL     1      11.149   4.546  27.269  1.00  0.00    -0.225 N 
ATOM      9  H6  UNL     1      11.774   3.745  27.358  1.00  0.00     0.177 HD
ENDROOT
BRANCH   1  10
HETATM   10  C13 UNL     1      12.577   7.898  26.071  1.00  0.00     0.138 C 
BRANCH  10  11
HETATM   11  C12 UNL     1      14.063   7.990  25.986  1.00  0.00     0.023 C 
BRANCH  11  12
HETATM   12  C11 UNL     1      14.582   9.313  25.497  1.00  0.00     0.036 C 
BRANCH  12  13
HETATM   13  C10 UNL     1      15.065   9.154  24.079  1.00  0.00     0.176 C 
HETATM   14  C9  UNL     1      14.510  10.292  23.278  1.00  0.00     0.241 C 
HETATM   15  N2  UNL     1      15.279  10.732  22.168  1.00  0.00    -0.346 N 
HETATM   16  O1  UNL     1      13.401  10.851  23.566  1.00  0.00    -0.271 OA
HETATM   17  C8  UNL     1      16.295   9.821  21.592  1.00  0.00     0.176 C 
ATOM     18  H2  UNL     1      15.135  11.661  21.773  1.00  0.00     0.163 HD
HETATM   19  C24 UNL     1      17.149   9.445  22.738  1.00  0.00     0.241 C 
HETATM   20  N8  UNL     1      16.500   9.313  24.029  1.00  0.00    -0.346 N 
HETATM   21  O2  UNL     1      18.384   9.230  22.692  1.00  0.00    -0.271 OA
ATOM     22  H8  UNL     1      17.049   9.332  24.887  1.00  0.00     0.163 HD
BRANCH  17  23
HETATM   23  C7  UNL     1      16.998  10.616  20.546  1.00  0.00     0.036 C 
BRANCH  23  24
HETATM   24  C6  UNL     1      17.456  11.979  20.930  1.00  0.00     0.033 C 
BRANCH  24  25
HETATM   25  C5  UNL     1      18.012  12.609  19.643  1.00  0.00     0.272 C 
BRANCH  25  26
HETATM   26  N1  UNL     1      18.580  11.644  18.765  1.00  0.00     0.087 N 
BRANCH  26  27
HETATM   27  C2  UNL     1      20.011  11.545  18.797  1.00  0.00     0.268 C 
HETATM   28  C1  UNL     1      20.711  12.005  17.561  1.00  0.00     0.037 C 
ENDBRANCH  26  27
BRANCH  26  29
HETATM   29  C3  UNL     1      18.143  11.892  17.405  1.00  0.00     0.268 C 
HETATM   30  C4  UNL     1      16.666  11.917  17.222  1.00  0.00     0.037 C 
ENDBRANCH  26  29
ENDBRANCH  25  26
ENDBRANCH  24  25
ENDBRANCH  23  24
ENDBRANCH  17  23
ENDBRANCH  12  13
ENDBRANCH  11  12
ENDBRANCH  10  11
ENDBRANCH   1  10
BRANCH   8  31
HETATM   31  C16 UNL     1       9.909   4.557  27.946  1.00  0.00     0.144 C 
BRANCH  31  32
HETATM   32  C17 UNL     1       9.168   3.299  28.156  1.00  0.00     0.077 C 
BRANCH  32  33
HETATM   33  C18 UNL     1       8.211   3.295  29.268  1.00  0.00     0.017 A 
HETATM   34  N7  UNL     1       7.593   4.426  29.734  1.00  0.00    -0.363 N 
HETATM   35  C19 UNL     1       6.784   4.142  30.752  1.00  0.00     0.006 A 
ATOM     36  H7  UNL     1       7.735   5.362  29.352  1.00  0.00     0.165 HD
HETATM   37  C20 UNL     1       5.931   5.092  31.519  1.00  0.00     0.068 C 
HETATM   38  C21 UNL     1       6.863   2.798  30.970  1.00  0.00     0.033 A 
HETATM   39  C22 UNL     1       7.758   2.269  30.035  1.00  0.00    -0.037 A 
HETATM   40  C23 UNL     1       8.045   0.819  29.945  1.00  0.00     0.050 C 
ENDBRANCH  32  33
ENDBRANCH  31  32
ENDBRANCH   8  31
TORSDOF 13
ENDMDL
MODEL 2
REMARK VINA RESULT: -8.117327343      2.729     13.561
REMARK  13 active torsions:
REMARK  status: ('A' for Active; 'I' for Inactive)
REMARK    1  A    between atoms: C2_2  and  N1_3 
REMARK    2  A    between atoms: N1_3  and  C3_4 
REMARK    3  A    between atoms: N1_3  and  C5_6 
REMARK    4  A    between atoms: C5_6  and  C6_7 
REMARK    5  A    between atoms: C6_7  and  C7_8 
REMARK    6  A    between atoms: C7_8  and  C8_9 
REMARK    7  A    between atoms: C10_14  and  C11_15 
REMARK    8  A    between atoms: C11_15  and  C12_16 
REMARK    9  A    between atoms: C12_16  and  C13_17 
REMARK   10  A    between atoms: C13_17  and  N3_18 
REMARK       I    between atoms: N3_18  and  C14_20 
REMARK       I    between atoms: C14_20  and  N6_25 
REMARK   11  A    between atoms: N6_25  and  C16_27 
REMARK   12  A    between atoms: C16_27  and  C17_28 
REMARK   13  A    between atoms: C17_28  and  C18_29 
ROOT
HETATM    1  N3  UNL     1      13.374   9.200  24.049  1.00  0.00    -0.226 N 
ATOM      2  H3  UNL     1      14.221   9.154  24.615  1.00  0.00     0.177 HD
HETATM    3  C14 UNL     1      13.410   9.847  22.801  1.00  0.00     0.682 C 
HETATM    4  N4  UNL     1      12.404   9.812  22.014  1.00  0.00    -0.126 N 
ATOM      5  H4  UNL     1      11.565   9.308  22.300  1.00  0.00     0.197 HD
HETATM    6  C15 UNL     1      12.429  10.448  20.777  1.00  0.00     0.196 C 
HETATM    7  N5  UNL     1      12.469  10.980  19.763  1.00  0.00    -0.171 NA
HETATM    8  N6  UNL     1      14.547  10.612  22.314  1.00  0.00    -0.225 N 
ATOM      9  H6  UNL     1      14.547  11.629  22.382  1.00  0.00     0.177 HD
ENDROOT
BRANCH   1  10
HETATM   10  C13 UNL     1      12.158   8.598  24.539  1.00  0.00     0.138 C 
BRANCH  10  11
HETATM   11  C12 UNL     1      12.295   7.818  25.802  1.00  0.00     0.023 C 
BRANCH  11  12
HETATM   12  C11 UNL     1      10.993   7.482  26.475  1.00  0.00     0.036 C 
BRANCH  12  13
HETATM   13  C10 UNL     1      11.047   6.056  26.958  1.00  0.00     0.176 C 
HETATM   14  C9  UNL     1      10.305   5.986  28.258  1.00  0.00     0.241 C 
HETATM   15  N2  UNL     1       9.673   4.753  28.571  1.00  0.00    -0.346 N 
HETATM   16  O1  UNL     1      10.233   6.977  29.055  1.00  0.00    -0.271 OA
HETATM   17  C8  UNL     1      10.125   3.519  27.886  1.00  0.00     0.176 C 
ATOM     18  H2  UNL     1       8.920   4.716  29.257  1.00  0.00     0.163 HD
HETATM   19  C24 UNL     1      10.027   3.837  26.446  1.00  0.00     0.241 C 
HETATM   20  N8  UNL     1      10.315   5.203  26.051  1.00  0.00    -0.346 N 
HETATM   21  O2  UNL     1       9.716   3.030  25.538  1.00  0.00    -0.271 OA
ATOM     22  H8  UNL     1      10.005   5.555  25.146  1.00  0.00     0.163 HD
BRANCH  17  23
HETATM   23  C7  UNL     1       9.194   2.448  28.337  1.00  0.00     0.036 C 
BRANCH  23  24
HETATM   24  C6  UNL     1       7.875   2.882  28.872  1.00  0.00     0.033 C 
BRANCH  24  25
HETATM   25  C5  UNL     1       7.505   1.854  29.953  1.00  0.00     0.272 C 
BRANCH  25  26
HETATM   26  N1  UNL     1       7.165   2.465  31.192  1.00  0.00     0.087 N 
BRANCH  26  27
HETATM   27  C2  UNL     1       6.204   1.757  31.988  1.00  0.00     0.268 C 
HETATM   28  C1  UNL     1       6.773   0.754  32.935  1.00  0.00     0.037 C 
ENDBRANCH  26  27
BRANCH  26  29
HETATM   29  C3  UNL     1       6.701   3.820  30.966  1.00  0.00     0.268 C 
HETATM   30  C4  UNL     1       6.105   4.480  32.160  1.00  0.00     0.037 C 
ENDBRANCH  26  29
ENDBRANCH  25  26
ENDBRANCH  24  25
ENDBRANCH  23  24
ENDBRANCH  17  23
ENDBRANCH  12  13
ENDBRANCH  11  12
ENDBRANCH  10  11
ENDBRANCH   1  10
BRANCH   8  31
HETATM   31  C16 UNL     1      15.652   9.938  21.746  1.00  0.00     0.144 C 
BRANCH  31  32
HETATM   32  C17 UNL     1      16.812  10.702  21.250  1.00  0.00     0.077 C 
BRANCH  32  33
HETATM   33  C18 UNL     1      16.720  11.185  19.868  1.00  0.00     0.017 A 
HETATM   34  N7  UNL     1      15.537  11.293  19.185  1.00  0.00    -0.363 N 
HETATM   35  C19 UNL     1      15.740  11.746  17.950  1.00  0.00     0.006 A 
ATOM     36  H7  UNL     1      14.623  11.056  19.571  1.00  0.00     0.165 HD
HETATM   37  C20 UNL     1      14.712  12.009  16.905  1.00  0.00     0.068 C 
HETATM   38  C21 UNL     1      17.082  11.945  17.806  1.00  0.00     0.033 A 
HETATM   39  C22 UNL     1      17.694  11.593  19.014  1.00  0.00    -0.037 A 
HETATM   40  C23 UNL     1      19.151  11.737  19.234  1.00  0.00     0.050 C 
ENDBRANCH  32  33
ENDBRANCH  31  32
ENDBRANCH   8  31
TORSDOF 13
ENDMDL
MODEL 3
REMARK VINA RESULT: -8.033482047      1.513      2.359
REMARK  13 active torsions:
REMARK  status: ('A' for Active; 'I' for Inactive)
REMARK    1  A    between atoms: C2_2  and  N1_3 
REMARK    2  A    between atoms: N1_3  and  C3_4 
REMARK    3  A    between atoms: N1_3  and  C5_6 
REMARK    4  A    between atoms: C5_6  and  C6_7 
REMARK    5  A    between atoms: C6_7  and  C7_8 
REMARK    6  A    between atoms: C7_8  and  C8_9 
REMARK    7  A    between atoms: C10_14  and  C11_15 
REMARK    8  A    between atoms: C11_15  and  C12_16 
REMARK    9  A    between atoms: C12_16  and  C13_17 
REMARK   10  A    between atoms: C13_17  and  N3_18 
REMARK       I    between atoms: N3_18  and  C14_20 
REMARK       I    between atoms: C14_20  and  N6_25 
REMARK   11  A    between atoms: N6_25  and  C16_27 
REMARK   12  A    between atoms: C16_27  and  C17_28 
REMARK   13  A    between atoms: C17_28  and  C18_29 
ROOT
HETATM    1  N3  UNL     1      11.029   6.205  26.752  1.00  0.00    -0.226 N 
ATOM      2  H3  UNL     1      11.687   5.453  26.549  1.00  0.00     0.177 HD
HETATM    3  C14 UNL     1       9.714   5.890  27.136  1.00  0.00     0.682 C 
HETATM    4  N4  UNL     1       8.905   6.802  27.517  1.00  0.00    -0.126 N 
ATOM      5  H4  UNL     1       9.221   7.772  27.540  1.00  0.00     0.197 HD
HETATM    6  C15 UNL     1       7.602   6.502  27.901  1.00  0.00     0.196 C 
HETATM    7  N5  UNL     1       6.532   6.234  28.212  1.00  0.00    -0.171 NA
HETATM    8  N6  UNL     1       9.160   4.546  27.115  1.00  0.00    -0.225 N 
ATOM      9  H6  UNL     1       8.569   4.247  26.340  1.00  0.00     0.177 HD
ENDROOT
BRANCH   1  10
HETATM   10  C13 UNL     1      11.463   7.577  26.640  1.00  0.00     0.138 C 
BRANCH  10  11
HETATM   11  C12 UNL     1      12.459   7.847  25.565  1.00  0.00     0.023 C 
BRANCH  11  12
HETATM   12  C11 UNL     1      13.772   8.395  26.051  1.00  0.00     0.036 C 
BRANCH  12  13
HETATM   13  C10 UNL     1      14.317   9.345  25.017  1.00  0.00     0.176 C 
HETATM   14  C9  UNL     1      15.713   8.910  24.688  1.00  0.00     0.241 C 
HETATM   15  N2  UNL     1      16.179   9.188  23.376  1.00  0.00    -0.346 N 
HETATM   16  O1  UNL     1      16.458   8.318  25.535  1.00  0.00    -0.271 OA
HETATM   17  C8  UNL     1      15.502  10.239  22.580  1.00  0.00     0.176 C 
ATOM     18  H2  UNL     1      16.969   8.673  22.987  1.00  0.00     0.163 HD
HETATM   19  C24 UNL     1      14.078   9.847  22.585  1.00  0.00     0.241 C 
HETATM   20  N8  UNL     1      13.572   9.211  23.786  1.00  0.00    -0.346 N 
HETATM   21  O2  UNL     1      13.269  10.017  21.642  1.00  0.00    -0.271 OA
ATOM     22  H8  UNL     1      12.705   8.676  23.762  1.00  0.00     0.163 HD
BRANCH  17  23
HETATM   23  C7  UNL     1      16.140  10.193  21.235  1.00  0.00     0.036 C 
BRANCH  23  24
HETATM   24  C6  UNL     1      17.503  10.779  21.114  1.00  0.00     0.033 C 
BRANCH  24  25
HETATM   25  C5  UNL     1      17.387  11.891  20.059  1.00  0.00     0.272 C 
BRANCH  25  26
HETATM   26  N1  UNL     1      17.868  11.485  18.783  1.00  0.00     0.087 N 
BRANCH  26  27
HETATM   27  C2  UNL     1      19.234  11.820  18.503  1.00  0.00     0.268 C 
HETATM   28  C1  UNL     1      19.485  12.405  17.153  1.00  0.00     0.037 C 
ENDBRANCH  26  27
BRANCH  26  29
HETATM   29  C3  UNL     1      17.015  12.018  17.738  1.00  0.00     0.268 C 
HETATM   30  C4  UNL     1      15.558  11.811  17.960  1.00  0.00     0.037 C 
ENDBRANCH  26  29
ENDBRANCH  25  26
ENDBRANCH  24  25
ENDBRANCH  23  24
ENDBRANCH  17  23
ENDBRANCH  12  13
ENDBRANCH  11  12
ENDBRANCH  10  11
ENDBRANCH   1  10
BRANCH   8  31
HETATM   31  C16 UNL     1       9.446   3.654  28.173  1.00  0.00     0.144 C 
BRANCH  31  32
HETATM   32  C17 UNL     1       8.521   2.547  28.481  1.00  0.00     0.077 C 
BRANCH  32  33
HETATM   33  C18 UNL     1       7.761   2.673  29.729  1.00  0.00     0.017 A 
HETATM   34  N7  UNL     1       7.246   3.859  30.180  1.00  0.00    -0.363 N 
HETATM   35  C19 UNL     1       6.611   3.694  31.339  1.00  0.00     0.006 A 
ATOM     36  H7  UNL     1       7.337   4.752  29.694  1.00  0.00     0.165 HD
HETATM   37  C20 UNL     1       5.910   4.734  32.141  1.00  0.00     0.068 C 
HETATM   38  C21 UNL     1       6.704   2.372  31.666  1.00  0.00     0.033 A 
HETATM   39  C22 UNL     1       7.426   1.735  30.652  1.00  0.00    -0.037 A 
HETATM   40  C23 UNL     1       7.671   0.274  30.654  1.00  0.00     0.050 C 
ENDBRANCH  32  33
ENDBRANCH  31  32
ENDBRANCH   8  31
TORSDOF 13
ENDMDL
MODEL 4
REMARK VINA RESULT: -7.912787140      2.763     13.390
REMARK  13 active torsions:
REMARK  status: ('A' for Active; 'I' for Inactive)
REMARK    1  A    between atoms: C2_2  and  N1_3 
REMARK    2  A    between atoms: N1_3  and  C3_4 
REMARK    3  A    between atoms: N1_3  and  C5_6 
REMARK    4  A    between atoms: C5_6  and  C6_7 
REMARK    5  A    between atoms: C6_7  and  C7_8 
REMARK    6  A    between atoms: C7_8  and  C8_9 
REMARK    7  A    between atoms: C10_14  and  C11_15 
REMARK    8  A    between atoms: C11_15  and  C12_16 
REMARK    9  A    between atoms: C12_16  and  C13_17 
REMARK   10  A    between atoms: C13_17  and  N3_18 
REMARK       I    between atoms: N3_18  and  C14_20 
REMARK       I    between atoms: C14_20  and  N6_25 
REMARK   11  A    between atoms: N6_25  and  C16_27 
REMARK   12  A    between atoms: C16_27  and  C17_28 
REMARK   13  A    between atoms: C17_28  and  C18_29 
ROOT
HETATM    1  N3  UNL     1      13.855   9.377  24.247  1.00  0.00    -0.226 N 
ATOM      2  H3  UNL     1      14.733   9.403  24.765  1.00  0.00     0.177 HD
HETATM    3  C14 UNL     1      13.798   9.924  22.953  1.00  0.00     0.682 C 
HETATM    4  N4  UNL     1      12.751   9.796  22.232  1.00  0.00    -0.126 N 
ATOM      5  H4  UNL     1      11.948   9.289  22.604  1.00  0.00     0.197 HD
HETATM    6  C15 UNL     1      12.684  10.332  20.950  1.00  0.00     0.196 C 
HETATM    7  N5  UNL     1      12.648  10.783  19.897  1.00  0.00    -0.171 NA
HETATM    8  N6  UNL     1      14.878  10.684  22.343  1.00  0.00    -0.225 N 
ATOM      9  H6  UNL     1      14.845  11.703  22.332  1.00  0.00     0.177 HD
ENDROOT
BRANCH   1  10
HETATM   10  C13 UNL     1      12.690   8.778  24.853  1.00  0.00     0.138 C 
BRANCH  10  11
HETATM   11  C12 UNL     1      12.959   7.915  26.038  1.00  0.00     0.023 C 
BRANCH  11  12
HETATM   12  C11 UNL     1      12.081   6.699  26.140  1.00  0.00     0.036 C 
BRANCH  12  13
HETATM   13  C10 UNL     1      10.819   7.069  26.876  1.00  0.00     0.176 C 
HETATM   14  C9  UNL     1       9.895   5.890  26.818  1.00  0.00     0.241 C 
HETATM   15  N2  UNL     1       8.994   5.727  27.904  1.00  0.00    -0.346 N 
HETATM   16  O1  UNL     1       9.906   5.064  25.849  1.00  0.00    -0.271 OA
HETATM   17  C8  UNL     1       8.686   6.894  28.764  1.00  0.00     0.176 C 
ATOM     18  H2  UNL     1       8.565   4.821  28.089  1.00  0.00     0.163 HD
HETATM   19  C24 UNL     1      10.006   7.382  29.214  1.00  0.00     0.241 C 
HETATM   20  N8  UNL     1      11.108   7.262  28.278  1.00  0.00    -0.346 N 
HETATM   21  O2  UNL     1      10.257   7.888  30.334  1.00  0.00    -0.271 OA
ATOM     22  H8  UNL     1      12.072   7.314  28.606  1.00  0.00     0.163 HD
BRANCH  17  23
HETATM   23  C7  UNL     1       7.827   6.366  29.860  1.00  0.00     0.036 C 
BRANCH  23  24
HETATM   24  C6  UNL     1       7.048   5.131  29.572  1.00  0.00     0.033 C 
BRANCH  24  25
HETATM   25  C5  UNL     1       6.719   4.517  30.942  1.00  0.00     0.272 C 
BRANCH  25  26
HETATM   26  N1  UNL     1       7.128   3.158  31.042  1.00  0.00     0.087 N 
BRANCH  26  27
HETATM   27  C2  UNL     1       7.086   2.408  29.820  1.00  0.00     0.268 C 
HETATM   28  C1  UNL     1       8.276   1.547  29.556  1.00  0.00     0.037 C 
ENDBRANCH  26  27
BRANCH  26  29
HETATM   29  C3  UNL     1       6.344   2.476  32.054  1.00  0.00     0.268 C 
HETATM   30  C4  UNL     1       5.043   1.936  31.571  1.00  0.00     0.037 C 
ENDBRANCH  26  29
ENDBRANCH  25  26
ENDBRANCH  24  25
ENDBRANCH  23  24
ENDBRANCH  17  23
ENDBRANCH  12  13
ENDBRANCH  11  12
ENDBRANCH  10  11
ENDBRANCH   1  10
BRANCH   8  31
HETATM   31  C16 UNL     1      15.972  10.003  21.765  1.00  0.00     0.144 C 
BRANCH  31  32
HETATM   32  C17 UNL     1      17.097  10.762  21.187  1.00  0.00     0.077 C 
BRANCH  32  33
HETATM   33  C18 UNL     1      16.918  11.223  19.806  1.00  0.00     0.017 A 
HETATM   34  N7  UNL     1      15.693  11.339  19.203  1.00  0.00    -0.363 N 
HETATM   35  C19 UNL     1      15.817  11.769  17.950  1.00  0.00     0.006 A 
ATOM     36  H7  UNL     1      14.804  11.125  19.655  1.00  0.00     0.165 HD
HETATM   37  C20 UNL     1      14.724  12.032  16.973  1.00  0.00     0.068 C 
HETATM   38  C21 UNL     1      17.149  11.942  17.711  1.00  0.00     0.033 A 
HETATM   39  C22 UNL     1      17.837  11.600  18.879  1.00  0.00    -0.037 A 
HETATM   40  C23 UNL     1      19.308  11.723  18.996  1.00  0.00     0.050 C 
ENDBRANCH  32  33
ENDBRANCH  31  32
ENDBRANCH   8  31
TORSDOF 13
ENDMDL
MODEL 5
REMARK VINA RESULT: -7.855719195      1.433      2.257
REMARK  13 active torsions:
REMARK  status: ('A' for Active; 'I' for Inactive)
REMARK    1  A    between atoms: C2_2  and  N1_3 
REMARK    2  A    between atoms: N1_3  and  C3_4 
REMARK    3  A    between atoms: N1_3  and  C5_6 
REMARK    4  A    between atoms: C5_6  and  C6_7 
REMARK    5  A    between atoms: C6_7  and  C7_8 
REMARK    6  A    between atoms: C7_8  and  C8_9 
REMARK    7  A    between atoms: C10_14  and  C11_15 
REMARK    8  A    between atoms: C11_15  and  C12_16 
REMARK    9  A    between atoms: C12_16  and  C13_17 
REMARK   10  A    between atoms: C13_17  and  N3_18 
REMARK       I    between atoms: N3_18  and  C14_20 
REMARK       I    between atoms: C14_20  and  N6_25 
REMARK   11  A    between atoms: N6_25  and  C16_27 
REMARK   12  A    between atoms: C16_27  and  C17_28 
REMARK   13  A    between atoms: C17_28  and  C18_29 
ROOT
HETATM    1  N3  UNL     1      11.256   6.218  26.783  1.00  0.00    -0.226 N 
ATOM      2  H3  UNL     1      11.306   6.479  27.768  1.00  0.00     0.177 HD
HETATM    3  C14 UNL     1      10.947   4.891  26.434  1.00  0.00     0.682 C 
HETATM    4  N4  UNL     1      10.754   4.562  25.215  1.00  0.00    -0.126 N 
ATOM      5  H4  UNL     1      10.827   5.274  24.488  1.00  0.00     0.197 HD
HETATM    6  C15 UNL     1      10.447   3.253  24.857  1.00  0.00     0.196 C 
HETATM    7  N5  UNL     1      10.196   2.169  24.584  1.00  0.00    -0.171 NA
HETATM    8  N6  UNL     1      10.845   3.801  27.390  1.00  0.00    -0.225 N 
ATOM      9  H6  UNL     1      11.623   3.154  27.515  1.00  0.00     0.177 HD
ENDROOT
BRANCH   1  10
HETATM   10  C13 UNL     1      11.504   7.215  25.770  1.00  0.00     0.138 C 
BRANCH  10  11
HETATM   11  C12 UNL     1      12.342   8.369  26.202  1.00  0.00     0.023 C 
BRANCH  11  12
HETATM   12  C11 UNL     1      13.818   8.190  25.976  1.00  0.00     0.036 C 
BRANCH  12  13
HETATM   13  C10 UNL     1      14.290   9.222  24.985  1.00  0.00     0.176 C 
HETATM   14  C9  UNL     1      15.687   8.862  24.582  1.00  0.00     0.241 C 
HETATM   15  N2  UNL     1      16.095   9.237  23.274  1.00  0.00    -0.346 N 
HETATM   16  O1  UNL     1      16.484   8.248  25.363  1.00  0.00    -0.271 OA
HETATM   17  C8  UNL     1      15.351  10.307  22.568  1.00  0.00     0.176 C 
ATOM     18  H2  UNL     1      16.887   8.777  22.827  1.00  0.00     0.163 HD
HETATM   19  C24 UNL     1      13.942   9.862  22.598  1.00  0.00     0.241 C 
HETATM   20  N8  UNL     1      13.505   9.134  23.775  1.00  0.00    -0.346 N 
HETATM   21  O2  UNL     1      13.093  10.057  21.696  1.00  0.00    -0.271 OA
ATOM     22  H8  UNL     1      12.657   8.569  23.748  1.00  0.00     0.163 HD
BRANCH  17  23
HETATM   23  C7  UNL     1      15.940  10.368  21.202  1.00  0.00     0.036 C 
BRANCH  23  24
HETATM   24  C6  UNL     1      17.346  10.843  21.094  1.00  0.00     0.033 C 
BRANCH  24  25
HETATM   25  C5  UNL     1      17.333  11.945  20.022  1.00  0.00     0.272 C 
BRANCH  25  26
HETATM   26  N1  UNL     1      18.126  11.612  18.888  1.00  0.00     0.087 N 
BRANCH  26  27
HETATM   27  C2  UNL     1      19.336  12.366  18.737  1.00  0.00     0.268 C 
HETATM   28  C1  UNL     1      19.620  12.851  17.355  1.00  0.00     0.037 C 
ENDBRANCH  26  27
BRANCH  26  29
HETATM   29  C3  UNL     1      17.333  11.724  17.679  1.00  0.00     0.268 C 
HETATM   30  C4  UNL     1      15.890  12.011  17.907  1.00  0.00     0.037 C 
ENDBRANCH  26  29
ENDBRANCH  25  26
ENDBRANCH  24  25
ENDBRANCH  23  24
ENDBRANCH  17  23
ENDBRANCH  12  13
ENDBRANCH  11  12
ENDBRANCH  10  11
ENDBRANCH   1  10
BRANCH   8  31
HETATM   31  C16 UNL     1       9.662   3.642  28.146  1.00  0.00     0.144 C 
BRANCH  31  32
HETATM   32  C17 UNL     1       9.048   2.309  28.292  1.00  0.00     0.077 C 
BRANCH  32  33
HETATM   33  C18 UNL     1       8.200   2.117  29.473  1.00  0.00     0.017 A 
HETATM   34  N7  UNL     1       8.067   0.915  30.118  1.00  0.00    -0.363 N 
HETATM   35  C19 UNL     1       7.232   1.018  31.150  1.00  0.00     0.006 A 
ATOM     36  H7  UNL     1       8.544   0.056  29.843  1.00  0.00     0.165 HD
HETATM   37  C20 UNL     1       6.836  -0.057  32.101  1.00  0.00     0.068 C 
HETATM   38  C21 UNL     1       6.799   2.311  31.194  1.00  0.00     0.033 A 
HETATM   39  C22 UNL     1       7.411   2.998  30.140  1.00  0.00    -0.037 A 
HETATM   40  C23 UNL     1       7.210   4.449  29.920  1.00  0.00     0.050 C 
ENDBRANCH  32  33
ENDBRANCH  31  32
ENDBRANCH   8  31
TORSDOF 13
ENDMDL
