MODEL 1
REMARK VINA RESULT: -7.774028806      0.000      0.000
REMARK  13 active torsions:
REMARK  status: ('A' for Active; 'I' for Inactive)
REMARK    1  A    between atoms: C2_2  and  C3_3 
REMARK       I    between atoms: C3_3  and  N1_5 
REMARK    2  A    between atoms: N1_5  and  C4_7 
REMARK    3  A    between atoms: C4_7  and  C5_8 
REMARK    4  A    between atoms: C5_8  and  N2_9 
REMARK    5  A    between atoms: N2_9  and  C6_12 
REMARK    6  A    between atoms: C6_12  and  C7_13 
REMARK    7  A    between atoms: C7_13  and  C8_14 
REMARK    8  A    between atoms: C8_14  and  C9_15 
REMARK    9  A    between atoms: C9_15  and  C10_16 
REMARK   10  A    between atoms: C10_16  and  C11_17 
REMARK   11  A    between atoms: C10_16  and  N4_29 
REMARK   12  A    between atoms: C11_17  and  N3_18 
REMARK   13  A    between atoms: N4_29  and  C22_31 
ROOT
HETATM    1  C10 UNL     1      11.873  10.417  22.769  1.00  0.00     0.034 C 
ENDROOT
BRANCH   1   2
HETATM    2  C9  UNL     1      11.401  11.252  21.650  1.00  0.00     0.058 C 
BRANCH   2   3
HETATM    3  C8  UNL     1      12.045  10.827  20.312  1.00  0.00     0.008 C 
BRANCH   3   4
HETATM    4  C7  UNL     1      11.754  11.834  19.224  1.00  0.00     0.028 C 
BRANCH   4   5
HETATM    5  C6  UNL     1      12.950  11.939  18.289  1.00  0.00     0.232 C 
BRANCH   5   6
HETATM    6  N2  UNL     1      14.151  11.479  18.916  1.00  0.00    -0.074 N 
ATOM      7  H22 UNL     1      14.046  10.525  19.262  1.00  0.00     0.277 HD
ATOM      8  H21 UNL     1      14.310  11.955  19.803  1.00  0.00     0.277 HD
BRANCH   6   9
HETATM    9  C5  UNL     1      15.305  11.596  18.040  1.00  0.00     0.251 C 
BRANCH   9  10
HETATM   10  C4  UNL     1      16.539  11.936  18.812  1.00  0.00     0.150 C 
BRANCH  10  11
HETATM   11  N1  UNL     1      17.758  11.949  18.078  1.00  0.00    -0.356 N 
HETATM   12  C3  UNL     1      18.985  11.582  18.671  1.00  0.00     0.240 C 
HETATM   13  O1  UNL     1      19.051  11.228  19.874  1.00  0.00    -0.269 OA
ATOM     14  H1  UNL     1      17.744  12.230  17.098  1.00  0.00     0.162 HD
BRANCH  12  15
HETATM   15  C2  UNL     1      20.200  11.613  17.872  1.00  0.00     0.064 C 
HETATM   16  C1  UNL     1      20.791  10.488  17.527  1.00  0.00     0.017 C 
ENDBRANCH  12  15
ENDBRANCH  10  11
ENDBRANCH   9  10
ENDBRANCH   6   9
ENDBRANCH   5   6
ENDBRANCH   4   5
ENDBRANCH   3   4
ENDBRANCH   2   3
ENDBRANCH   1   2
BRANCH   1  17
HETATM   17  C11 UNL     1      10.842   9.701  23.573  1.00  0.00     0.227 C 
BRANCH  17  18
HETATM   18  N3  UNL     1      10.426   8.384  23.305  1.00  0.00    -0.049 N 
HETATM   19  C12 UNL     1      10.555   7.846  22.014  1.00  0.00     0.278 C 
HETATM   20  C13 UNL     1       9.005   8.326  23.681  1.00  0.00     0.243 C 
HETATM   21  C14 UNL     1       8.210   7.203  23.223  1.00  0.00     0.033 C 
HETATM   22  C15 UNL     1       8.389   5.859  23.768  1.00  0.00    -0.009 C 
HETATM   23  C16 UNL     1       7.170   5.447  24.623  1.00  0.00     0.011 C 
HETATM   24  C17 UNL     1       9.569   5.514  24.553  1.00  0.00    -0.043 C 
HETATM   25  C18 UNL     1       9.774   3.986  24.421  1.00  0.00     0.015 C 
HETATM   26  C19 UNL     1       9.378   5.685  26.066  1.00  0.00     0.015 C 
HETATM   27  C20 UNL     1      10.881   6.097  24.176  1.00  0.00     0.037 C 
HETATM   28  C21 UNL     1      11.043   7.551  24.339  1.00  0.00     0.243 C 
ENDBRANCH  17  18
ENDBRANCH   1  17
BRANCH   1  29
HETATM   29  N4  UNL     1      12.913  10.995  23.542  1.00  0.00    -0.348 N 
ATOM     30  H4  UNL     1      12.725  11.827  24.102  1.00  0.00     0.167 HD
BRANCH  29  31
HETATM   31  C22 UNL     1      14.203  10.429  23.545  1.00  0.00     0.094 C 
HETATM   32  C23 UNL     1      14.353   9.291  24.549  1.00  0.00     0.179 C 
HETATM   33  C24 UNL     1      15.796   8.987  24.662  1.00  0.00     0.232 C 
HETATM   34  O2  UNL     1      16.317   8.782  25.763  1.00  0.00    -0.273 OA
HETATM   35  N5  UNL     1      16.603   8.932  23.466  1.00  0.00    -0.279 N 
HETATM   36  C25 UNL     1      16.122   9.559  22.282  1.00  0.00     0.328 C 
ATOM     37  H5  UNL     1      17.502   8.451  23.469  1.00  0.00     0.173 HD
HETATM   38  O3  UNL     1      16.827   9.510  21.240  1.00  0.00    -0.247 OA
HETATM   39  N6  UNL     1      14.867  10.221  22.309  1.00  0.00    -0.297 N 
ATOM     40  H6  UNL     1      14.443  10.547  21.440  1.00  0.00     0.172 HD
ENDBRANCH  29  31
ENDBRANCH   1  29
TORSDOF 13
ENDMDL
MODEL 2
REMARK VINA RESULT: -7.754912877      4.058      7.210
REMARK  13 active torsions:
REMARK  status: ('A' for Active; 'I' for Inactive)
REMARK    1  A    between atoms: C2_2  and  C3_3 
REMARK       I    between atoms: C3_3  and  N1_5 
REMARK    2  A    between atoms: N1_5  and  C4_7 
REMARK    3  A    between atoms: C4_7  and  C5_8 
REMARK    4  A    between atoms: C5_8  and  N2_9 
REMARK    5  A    between atoms: N2_9  and  C6_12 
REMARK    6  A    between atoms: C6_12  and  C7_13 
REMARK    7  A    between atoms: C7_13  and  C8_14 
REMARK    8  A    between atoms: C8_14  and  C9_15 
REMARK    9  A    between atoms: C9_15  and  C10_16 
REMARK   10  A    between atoms: C10_16  and  C11_17 
REMARK   11  A    between atoms: C10_16  and  N4_29 
REMARK   12  A    between atoms: C11_17  and  N3_18 
REMARK   13  A    between atoms: N4_29  and  C22_31 
ROOT
HETATM    1  C10 UNL     1      10.987   5.543  24.915  1.00  0.00     0.034 C 
ENDROOT
BRANCH   1   2
HETATM    2  C9  UNL     1      10.779   6.326  23.683  1.00  0.00     0.058 C 
BRANCH   2   3
HETATM    3  C8  UNL     1      10.650   7.835  23.984  1.00  0.00     0.008 C 
BRANCH   3   4
HETATM    4  C7  UNL     1      11.459   8.656  23.008  1.00  0.00     0.028 C 
BRANCH   4   5
HETATM    5  C6  UNL     1      11.381  10.127  23.387  1.00  0.00     0.232 C 
BRANCH   5   6
HETATM    6  N2  UNL     1      12.655  10.769  23.271  1.00  0.00    -0.074 N 
ATOM      7  H22 UNL     1      13.028  11.018  24.187  1.00  0.00     0.277 HD
ATOM      8  H21 UNL     1      12.562  11.704  22.875  1.00  0.00     0.277 HD
BRANCH   6   9
HETATM    9  C5  UNL     1      13.604   9.968  22.516  1.00  0.00     0.251 C 
BRANCH   9  10
HETATM   10  C4  UNL     1      14.926   9.899  23.209  1.00  0.00     0.150 C 
BRANCH  10  11
HETATM   11  N1  UNL     1      14.909  10.093  24.619  1.00  0.00    -0.356 N 
HETATM   12  C3  UNL     1      15.690   9.301  25.487  1.00  0.00     0.240 C 
HETATM   13  O1  UNL     1      16.433   8.387  25.050  1.00  0.00    -0.269 OA
ATOM     14  H1  UNL     1      14.318  10.826  25.012  1.00  0.00     0.162 HD
BRANCH  12  15
HETATM   15  C2  UNL     1      15.633   9.545  26.919  1.00  0.00     0.064 C 
HETATM   16  C1  UNL     1      15.543  10.777  27.375  1.00  0.00     0.017 C 
ENDBRANCH  12  15
ENDBRANCH  10  11
ENDBRANCH   9  10
ENDBRANCH   6   9
ENDBRANCH   5   6
ENDBRANCH   4   5
ENDBRANCH   3   4
ENDBRANCH   2   3
ENDBRANCH   1   2
BRANCH   1  17
HETATM   17  C11 UNL     1      11.285   6.297  26.166  1.00  0.00     0.227 C 
BRANCH  17  18
HETATM   18  N3  UNL     1      10.595   6.096  27.375  1.00  0.00    -0.049 N 
HETATM   19  C12 UNL     1      11.109   5.227  28.352  1.00  0.00     0.278 C 
HETATM   20  C13 UNL     1       9.256   5.615  27.000  1.00  0.00     0.243 C 
HETATM   21  C14 UNL     1       8.422   5.013  28.022  1.00  0.00     0.033 C 
HETATM   22  C15 UNL     1       7.817   5.806  29.089  1.00  0.00    -0.009 C 
HETATM   23  C16 UNL     1       6.285   5.892  28.909  1.00  0.00     0.011 C 
HETATM   24  C17 UNL     1       8.268   7.165  29.370  1.00  0.00    -0.043 C 
HETATM   25  C18 UNL     1       7.936   7.460  30.851  1.00  0.00     0.015 C 
HETATM   26  C19 UNL     1       7.466   8.247  28.635  1.00  0.00     0.015 C 
HETATM   27  C20 UNL     1       9.712   7.484  29.243  1.00  0.00     0.037 C 
HETATM   28  C21 UNL     1      10.298   7.433  27.895  1.00  0.00     0.243 C 
ENDBRANCH  17  18
ENDBRANCH   1  17
BRANCH   1  29
HETATM   29  N4  UNL     1      11.767   4.369  24.747  1.00  0.00    -0.348 N 
ATOM     30  H4  UNL     1      12.783   4.424  24.810  1.00  0.00     0.167 HD
BRANCH  29  31
HETATM   31  C22 UNL     1      11.150   3.129  24.495  1.00  0.00     0.094 C 
HETATM   32  C23 UNL     1      11.712   2.421  23.266  1.00  0.00     0.179 C 
HETATM   33  C24 UNL     1      10.802   1.300  22.945  1.00  0.00     0.232 C 
HETATM   34  O2  UNL     1      10.474   1.063  21.778  1.00  0.00    -0.273 OA
HETATM   35  N5  UNL     1      10.293   0.475  24.014  1.00  0.00    -0.279 N 
HETATM   36  C25 UNL     1      10.323   0.977  25.345  1.00  0.00     0.328 C 
ATOM     37  H5  UNL     1       9.919  -0.453  23.819  1.00  0.00     0.173 HD
HETATM   38  O3  UNL     1       9.878   0.255  26.277  1.00  0.00    -0.247 OA
HETATM   39  N6  UNL     1      10.850   2.273  25.585  1.00  0.00    -0.297 N 
ATOM     40  H6  UNL     1      11.013   2.589  26.542  1.00  0.00     0.172 HD
ENDBRANCH  29  31
ENDBRANCH   1  29
TORSDOF 13
ENDMDL
MODEL 3
REMARK VINA RESULT: -7.750043603      7.953     10.021
REMARK  13 active torsions:
REMARK  status: ('A' for Active; 'I' for Inactive)
REMARK    1  A    between atoms: C2_2  and  C3_3 
REMARK       I    between atoms: C3_3  and  N1_5 
REMARK    2  A    between atoms: N1_5  and  C4_7 
REMARK    3  A    between atoms: C4_7  and  C5_8 
REMARK    4  A    between atoms: C5_8  and  N2_9 
REMARK    5  A    between atoms: N2_9  and  C6_12 
REMARK    6  A    between atoms: C6_12  and  C7_13 
REMARK    7  A    between atoms: C7_13  and  C8_14 
REMARK    8  A    between atoms: C8_14  and  C9_15 
REMARK    9  A    between atoms: C9_15  and  C10_16 
REMARK   10  A    between atoms: C10_16  and  C11_17 
REMARK   11  A    between atoms: C10_16  and  N4_29 
REMARK   12  A    between atoms: C11_17  and  N3_18 
REMARK   13  A    between atoms: N4_29  and  C22_31 
ROOT
HETATM    1  C10 UNL     1       7.544   5.258  26.610  1.00  0.00     0.034 C 
ENDROOT
BRANCH   1   2
HETATM    2  C9  UNL     1       7.703   5.158  25.148  1.00  0.00     0.058 C 
BRANCH   2   3
HETATM    3  C8  UNL     1       9.097   5.644  24.694  1.00  0.00     0.008 C 
BRANCH   3   4
HETATM    4  C7  UNL     1       9.939   4.494  24.195  1.00  0.00     0.028 C 
BRANCH   4   5
HETATM    5  C6  UNL     1      10.916   4.065  25.280  1.00  0.00     0.232 C 
BRANCH   5   6
HETATM    6  N2  UNL     1      11.695   2.937  24.872  1.00  0.00    -0.074 N 
ATOM      7  H22 UNL     1      12.194   2.527  25.661  1.00  0.00     0.277 HD
ATOM      8  H21 UNL     1      12.494   3.225  24.308  1.00  0.00     0.277 HD
BRANCH   6   9
HETATM    9  C5  UNL     1      10.894   1.940  24.181  1.00  0.00     0.251 C 
BRANCH   9  10
HETATM   10  C4  UNL     1      11.380   1.728  22.783  1.00  0.00     0.150 C 
BRANCH  10  11
HETATM   11  N1  UNL     1      11.555   0.376  22.376  1.00  0.00    -0.356 N 
HETATM   12  C3  UNL     1      12.642  -0.021  21.567  1.00  0.00     0.240 C 
HETATM   13  O1  UNL     1      13.501   0.806  21.173  1.00  0.00    -0.269 OA
ATOM     14  H1  UNL     1      10.878  -0.325  22.676  1.00  0.00     0.162 HD
BRANCH  12  15
HETATM   15  C2  UNL     1      12.771  -1.417  21.181  1.00  0.00     0.064 C 
HETATM   16  C1  UNL     1      13.824  -2.110  21.559  1.00  0.00     0.017 C 
ENDBRANCH  12  15
ENDBRANCH  10  11
ENDBRANCH   9  10
ENDBRANCH   6   9
ENDBRANCH   5   6
ENDBRANCH   4   5
ENDBRANCH   3   4
ENDBRANCH   2   3
ENDBRANCH   1   2
BRANCH   1  17
HETATM   17  C11 UNL     1       6.865   4.127  27.306  1.00  0.00     0.227 C 
BRANCH  17  18
HETATM   18  N3  UNL     1       7.288   3.615  28.546  1.00  0.00    -0.049 N 
HETATM   19  C12 UNL     1       8.542   3.967  29.072  1.00  0.00     0.278 C 
HETATM   20  C13 UNL     1       7.248   2.150  28.411  1.00  0.00     0.243 C 
HETATM   21  C14 UNL     1       7.931   1.343  29.403  1.00  0.00     0.033 C 
HETATM   22  C15 UNL     1       7.429   1.210  30.768  1.00  0.00    -0.009 C 
HETATM   23  C16 UNL     1       6.894  -0.217  31.022  1.00  0.00     0.011 C 
HETATM   24  C17 UNL     1       6.415   2.121  31.291  1.00  0.00    -0.043 C 
HETATM   25  C18 UNL     1       6.575   2.147  32.829  1.00  0.00     0.015 C 
HETATM   26  C19 UNL     1       4.978   1.608  31.123  1.00  0.00     0.015 C 
HETATM   27  C20 UNL     1       6.454   3.549  30.890  1.00  0.00     0.037 C 
HETATM   28  C21 UNL     1       6.184   3.860  29.477  1.00  0.00     0.243 C 
ENDBRANCH  17  18
ENDBRANCH   1  17
BRANCH   1  29
HETATM   29  N4  UNL     1       7.158   6.541  27.078  1.00  0.00    -0.348 N 
ATOM     30  H4  UNL     1       6.452   7.074  26.569  1.00  0.00     0.167 HD
BRANCH  29  31
HETATM   31  C22 UNL     1       7.740   7.086  28.239  1.00  0.00     0.094 C 
HETATM   32  C23 UNL     1       9.206   7.463  28.051  1.00  0.00     0.179 C 
HETATM   33  C24 UNL     1       9.768   7.739  29.391  1.00  0.00     0.232 C 
HETATM   34  O2  UNL     1      10.884   7.317  29.710  1.00  0.00    -0.273 OA
HETATM   35  N5  UNL     1       8.997   8.512  30.336  1.00  0.00    -0.279 N 
HETATM   36  C25 UNL     1       7.593   8.635  30.139  1.00  0.00     0.328 C 
ATOM     37  H5  UNL     1       9.451   8.961  31.130  1.00  0.00     0.173 HD
HETATM   38  O3  UNL     1       6.922   9.310  30.965  1.00  0.00    -0.247 OA
HETATM   39  N6  UNL     1       6.989   7.997  29.025  1.00  0.00    -0.297 N 
ATOM     40  H6  UNL     1       6.016   8.194  28.788  1.00  0.00     0.172 HD
ENDBRANCH  29  31
ENDBRANCH   1  29
TORSDOF 13
ENDMDL
MODEL 4
REMARK VINA RESULT: -7.576450207      5.751      8.837
REMARK  13 active torsions:
REMARK  status: ('A' for Active; 'I' for Inactive)
REMARK    1  A    between atoms: C2_2  and  C3_3 
REMARK       I    between atoms: C3_3  and  N1_5 
REMARK    2  A    between atoms: N1_5  and  C4_7 
REMARK    3  A    between atoms: C4_7  and  C5_8 
REMARK    4  A    between atoms: C5_8  and  N2_9 
REMARK    5  A    between atoms: N2_9  and  C6_12 
REMARK    6  A    between atoms: C6_12  and  C7_13 
REMARK    7  A    between atoms: C7_13  and  C8_14 
REMARK    8  A    between atoms: C8_14  and  C9_15 
REMARK    9  A    between atoms: C9_15  and  C10_16 
REMARK   10  A    between atoms: C10_16  and  C11_17 
REMARK   11  A    between atoms: C10_16  and  N4_29 
REMARK   12  A    between atoms: C11_17  and  N3_18 
REMARK   13  A    between atoms: N4_29  and  C22_31 
ROOT
HETATM    1  C10 UNL     1       8.269   5.053  26.140  1.00  0.00     0.034 C 
ENDROOT
BRANCH   1   2
HETATM    2  C9  UNL     1       8.819   4.614  24.845  1.00  0.00     0.058 C 
BRANCH   2   3
HETATM    3  C8  UNL     1      10.112   3.789  25.026  1.00  0.00     0.008 C 
BRANCH   3   4
HETATM    4  C7  UNL     1      11.061   4.468  25.983  1.00  0.00     0.028 C 
BRANCH   4   5
HETATM    5  C6  UNL     1      11.548   5.778  25.381  1.00  0.00     0.232 C 
BRANCH   5   6
HETATM    6  N2  UNL     1      12.289   6.551  26.329  1.00  0.00    -0.074 N 
ATOM      7  H22 UNL     1      13.251   6.220  26.406  1.00  0.00     0.277 HD
ATOM      8  H21 UNL     1      11.978   6.364  27.282  1.00  0.00     0.277 HD
BRANCH   6   9
HETATM    9  C5  UNL     1      12.245   7.973  26.030  1.00  0.00     0.251 C 
BRANCH   9  10
HETATM   10  C4  UNL     1      13.613   8.515  25.771  1.00  0.00     0.150 C 
BRANCH  10  11
HETATM   11  N1  UNL     1      14.367   8.896  26.916  1.00  0.00    -0.356 N 
HETATM   12  C3  UNL     1      14.872  10.205  27.071  1.00  0.00     0.240 C 
HETATM   13  O1  UNL     1      14.677  11.089  26.201  1.00  0.00    -0.269 OA
ATOM     14  H1  UNL     1      14.547   8.205  27.645  1.00  0.00     0.162 HD
BRANCH  12  15
HETATM   15  C2  UNL     1      15.636  10.538  28.263  1.00  0.00     0.064 C 
HETATM   16  C1  UNL     1      15.787  11.796  28.618  1.00  0.00     0.017 C 
ENDBRANCH  12  15
ENDBRANCH  10  11
ENDBRANCH   9  10
ENDBRANCH   6   9
ENDBRANCH   5   6
ENDBRANCH   4   5
ENDBRANCH   3   4
ENDBRANCH   2   3
ENDBRANCH   1   2
BRANCH   1  17
HETATM   17  C11 UNL     1       7.411   4.088  26.884  1.00  0.00     0.227 C 
BRANCH  17  18
HETATM   18  N3  UNL     1       7.656   3.698  28.214  1.00  0.00    -0.049 N 
HETATM   19  C12 UNL     1       8.852   4.063  28.854  1.00  0.00     0.278 C 
HETATM   20  C13 UNL     1       7.564   2.230  28.226  1.00  0.00     0.243 C 
HETATM   21  C14 UNL     1       8.084   1.511  29.373  1.00  0.00     0.033 C 
HETATM   22  C15 UNL     1       7.414   1.543  30.671  1.00  0.00    -0.009 C 
HETATM   23  C16 UNL     1       6.787   0.170  31.001  1.00  0.00     0.011 C 
HETATM   24  C17 UNL     1       6.388   2.538  30.967  1.00  0.00    -0.043 C 
HETATM   25  C18 UNL     1       6.362   2.724  32.502  1.00  0.00     0.015 C 
HETATM   26  C19 UNL     1       4.960   2.059  30.673  1.00  0.00     0.015 C 
HETATM   27  C20 UNL     1       6.542   3.913  30.429  1.00  0.00     0.037 C 
HETATM   28  C21 UNL     1       6.460   4.079  28.970  1.00  0.00     0.243 C 
ENDBRANCH  17  18
ENDBRANCH   1  17
BRANCH   1  29
HETATM   29  N4  UNL     1       7.790   6.389  26.158  1.00  0.00    -0.348 N 
ATOM     30  H4  UNL     1       7.203   6.726  25.395  1.00  0.00     0.167 HD
BRANCH  29  31
HETATM   31  C22 UNL     1       8.117   7.253  27.221  1.00  0.00     0.094 C 
HETATM   32  C23 UNL     1       6.902   7.675  28.043  1.00  0.00     0.179 C 
HETATM   33  C24 UNL     1       7.326   8.786  28.921  1.00  0.00     0.232 C 
HETATM   34  O2  UNL     1       6.609   9.780  29.077  1.00  0.00    -0.273 OA
HETATM   35  N5  UNL     1       8.596   8.704  29.603  1.00  0.00    -0.279 N 
HETATM   36  C25 UNL     1       9.579   7.797  29.118  1.00  0.00     0.328 C 
ATOM     37  H5  UNL     1       8.785   9.287  30.418  1.00  0.00     0.173 HD
HETATM   38  O3  UNL     1      10.687   7.727  29.714  1.00  0.00    -0.247 OA
HETATM   39  N6  UNL     1       9.287   7.001  27.980  1.00  0.00    -0.297 N 
ATOM     40  H6  UNL     1       9.919   6.246  27.709  1.00  0.00     0.172 HD
ENDBRANCH  29  31
ENDBRANCH   1  29
TORSDOF 13
ENDMDL
MODEL 5
REMARK VINA RESULT: -7.546111503      4.590      7.935
REMARK  13 active torsions:
REMARK  status: ('A' for Active; 'I' for Inactive)
REMARK    1  A    between atoms: C2_2  and  C3_3 
REMARK       I    between atoms: C3_3  and  N1_5 
REMARK    2  A    between atoms: N1_5  and  C4_7 
REMARK    3  A    between atoms: C4_7  and  C5_8 
REMARK    4  A    between atoms: C5_8  and  N2_9 
REMARK    5  A    between atoms: N2_9  and  C6_12 
REMARK    6  A    between atoms: C6_12  and  C7_13 
REMARK    7  A    between atoms: C7_13  and  C8_14 
REMARK    8  A    between atoms: C8_14  and  C9_15 
REMARK    9  A    between atoms: C9_15  and  C10_16 
REMARK   10  A    between atoms: C10_16  and  C11_17 
REMARK   11  A    between atoms: C10_16  and  N4_29 
REMARK   12  A    between atoms: C11_17  and  N3_18 
REMARK   13  A    between atoms: N4_29  and  C22_31 
ROOT
HETATM    1  C10 UNL     1       9.457   5.305  25.602  1.00  0.00     0.034 C 
ENDROOT
BRANCH   1   2
HETATM    2  C9  UNL     1       9.341   6.518  24.773  1.00  0.00     0.058 C 
BRANCH   2   3
HETATM    3  C8  UNL     1      10.655   6.820  24.020  1.00  0.00     0.008 C 
BRANCH   3   4
HETATM    4  C7  UNL     1      11.454   7.889  24.727  1.00  0.00     0.028 C 
BRANCH   4   5
HETATM    5  C6  UNL     1      11.451   9.165  23.898  1.00  0.00     0.232 C 
BRANCH   5   6
HETATM    6  N2  UNL     1      12.598   9.242  23.046  1.00  0.00    -0.074 N 
ATOM      7  H22 UNL     1      12.333   9.464  22.087  1.00  0.00     0.277 HD
ATOM      8  H21 UNL     1      13.006   8.320  22.891  1.00  0.00     0.277 HD
BRANCH   6   9
HETATM    9  C5  UNL     1      13.590  10.180  23.548  1.00  0.00     0.251 C 
BRANCH   9  10
HETATM   10  C4  UNL     1      14.764   9.464  24.134  1.00  0.00     0.150 C 
BRANCH  10  11
HETATM   11  N1  UNL     1      15.421  10.113  25.217  1.00  0.00    -0.356 N 
HETATM   12  C3  UNL     1      14.913  10.058  26.533  1.00  0.00     0.240 C 
HETATM   13  O1  UNL     1      13.856   9.434  26.802  1.00  0.00    -0.269 OA
ATOM     14  H1  UNL     1      16.281  10.630  25.038  1.00  0.00     0.162 HD
BRANCH  12  15
HETATM   15  C2  UNL     1      15.626  10.739  27.601  1.00  0.00     0.064 C 
HETATM   16  C1  UNL     1      15.320  11.982  27.911  1.00  0.00     0.017 C 
ENDBRANCH  12  15
ENDBRANCH  10  11
ENDBRANCH   9  10
ENDBRANCH   6   9
ENDBRANCH   5   6
ENDBRANCH   4   5
ENDBRANCH   3   4
ENDBRANCH   2   3
ENDBRANCH   1   2
BRANCH   1  17
HETATM   17  C11 UNL     1       9.192   5.444  27.063  1.00  0.00     0.227 C 
BRANCH  17  18
HETATM   18  N3  UNL     1       7.999   5.022  27.677  1.00  0.00    -0.049 N 
HETATM   19  C12 UNL     1       6.776   5.629  27.348  1.00  0.00     0.278 C 
HETATM   20  C13 UNL     1       8.212   5.185  29.124  1.00  0.00     0.243 C 
HETATM   21  C14 UNL     1       7.060   5.143  30.004  1.00  0.00     0.033 C 
HETATM   22  C15 UNL     1       6.338   3.901  30.271  1.00  0.00    -0.009 C 
HETATM   23  C16 UNL     1       6.565   3.434  31.726  1.00  0.00     0.011 C 
HETATM   24  C17 UNL     1       6.530   2.722  29.433  1.00  0.00    -0.043 C 
HETATM   25  C18 UNL     1       5.244   1.869  29.543  1.00  0.00     0.015 C 
HETATM   26  C19 UNL     1       7.604   1.759  29.957  1.00  0.00     0.015 C 
HETATM   27  C20 UNL     1       6.732   2.900  27.973  1.00  0.00     0.037 C 
HETATM   28  C21 UNL     1       7.972   3.564  27.541  1.00  0.00     0.243 C 
ENDBRANCH  17  18
ENDBRANCH   1  17
BRANCH   1  29
HETATM   29  N4  UNL     1      10.569   4.479  25.291  1.00  0.00    -0.348 N 
ATOM     30  H4  UNL     1      11.516   4.847  25.390  1.00  0.00     0.167 HD
BRANCH  29  31
HETATM   31  C22 UNL     1      10.378   3.156  24.848  1.00  0.00     0.094 C 
HETATM   32  C23 UNL     1      11.102   2.855  23.539  1.00  0.00     0.179 C 
HETATM   33  C24 UNL     1      10.593   1.559  23.040  1.00  0.00     0.232 C 
HETATM   34  O2  UNL     1      10.324   1.401  21.845  1.00  0.00    -0.273 OA
HETATM   35  N5  UNL     1      10.408   0.467  23.966  1.00  0.00    -0.279 N 
HETATM   36  C25 UNL     1      10.313   0.754  25.357  1.00  0.00     0.328 C 
ATOM     37  H5  UNL     1      10.347  -0.493  23.629  1.00  0.00     0.173 HD
HETATM   38  O3  UNL     1      10.153  -0.200  26.164  1.00  0.00    -0.247 OA
HETATM   39  N6  UNL     1      10.402   2.101  25.795  1.00  0.00    -0.297 N 
ATOM     40  H6  UNL     1      10.482   2.310  26.791  1.00  0.00     0.172 HD
ENDBRANCH  29  31
ENDBRANCH   1  29
TORSDOF 13
ENDMDL
