MODEL 1
REMARK VINA RESULT: -6.549143996      0.000      0.000
REMARK  2 active torsions:
REMARK  status: ('A' for Active; 'I' for Inactive)
REMARK    1  A    between atoms: C2_2  and  C3_3 
REMARK    2  A    between atoms: C7_7  and  C8_8 
ROOT
HETATM    1  C3  UNL     1      25.900   5.786   3.882  1.00  0.00     0.012 C 
HETATM    2  C4  UNL     1      26.516   4.452   3.439  1.00  0.00     0.009 C 
HETATM    3  C5  UNL     1      27.516   4.835   2.370  1.00  0.00     0.001 C 
HETATM    4  C6  UNL     1      27.495   6.355   2.294  1.00  0.00     0.005 C 
HETATM    5  C7  UNL     1      27.075   6.699   3.720  1.00  0.00    -0.003 C 
ENDROOT
BRANCH   5   6
HETATM    6  C8  UNL     1      26.770   8.140   3.908  1.00  0.00    -0.010 A 
HETATM    7  C9  UNL     1      27.811   8.935   4.645  1.00  0.00     0.005 A 
HETATM    8  C10 UNL     1      27.482   9.226   3.223  1.00  0.00     0.005 A 
ENDBRANCH   5   6
BRANCH   1   9
HETATM    9  C2  UNL     1      25.357   5.722   5.235  1.00  0.00    -0.032 C 
HETATM   10  C1  UNL     1      26.146   5.370   6.238  1.00  0.00     0.007 C 
ENDBRANCH   1   9
TORSDOF 2
ENDMDL
MODEL 2
REMARK VINA RESULT: -6.522302793      0.917      2.697
REMARK  2 active torsions:
REMARK  status: ('A' for Active; 'I' for Inactive)
REMARK    1  A    between atoms: C2_2  and  C3_3 
REMARK    2  A    between atoms: C7_7  and  C8_8 
ROOT
HETATM    1  C3  UNL     1      26.759   5.645   4.113  1.00  0.00     0.012 C 
HETATM    2  C4  UNL     1      25.593   5.055   4.916  1.00  0.00     0.009 C 
HETATM    3  C5  UNL     1      25.531   5.901   6.169  1.00  0.00     0.001 C 
HETATM    4  C6  UNL     1      26.595   6.977   6.007  1.00  0.00     0.005 C 
HETATM    5  C7  UNL     1      26.646   7.090   4.486  1.00  0.00    -0.003 C 
ENDROOT
BRANCH   5   6
HETATM    6  C8  UNL     1      27.761   7.943   4.000  1.00  0.00    -0.010 A 
HETATM    7  C9  UNL     1      27.355   9.160   3.218  1.00  0.00     0.005 A 
HETATM    8  C10 UNL     1      28.058   9.281   4.523  1.00  0.00     0.005 A 
ENDBRANCH   5   6
BRANCH   1   9
HETATM    9  C2  UNL     1      26.641   5.371   2.683  1.00  0.00    -0.032 C 
HETATM   10  C1  UNL     1      27.475   4.516   2.114  1.00  0.00     0.007 C 
ENDBRANCH   1   9
TORSDOF 2
ENDMDL
MODEL 3
REMARK VINA RESULT: -6.342921071      1.680      3.235
REMARK  2 active torsions:
REMARK  status: ('A' for Active; 'I' for Inactive)
REMARK    1  A    between atoms: C2_2  and  C3_3 
REMARK    2  A    between atoms: C7_7  and  C8_8 
ROOT
HETATM    1  C3  UNL     1      27.617   6.858   3.252  1.00  0.00     0.012 C 
HETATM    2  C4  UNL     1      26.879   7.108   4.573  1.00  0.00     0.009 C 
HETATM    3  C5  UNL     1      26.937   8.608   4.760  1.00  0.00     0.001 C 
HETATM    4  C6  UNL     1      27.626   9.164   3.522  1.00  0.00     0.005 C 
HETATM    5  C7  UNL     1      27.254   8.097   2.496  1.00  0.00    -0.003 C 
ENDROOT
BRANCH   5   6
HETATM    6  C8  UNL     1      27.962   8.261   1.200  1.00  0.00    -0.010 A 
HETATM    7  C9  UNL     1      27.082   8.489   0.003  1.00  0.00     0.005 A 
HETATM    8  C10 UNL     1      28.041   9.528   0.463  1.00  0.00     0.005 A 
ENDBRANCH   5   6
BRANCH   1   9
HETATM    9  C2  UNL     1      27.205   5.610   2.616  1.00  0.00    -0.032 C 
HETATM   10  C1  UNL     1      26.473   4.743   3.297  1.00  0.00     0.007 C 
ENDBRANCH   1   9
TORSDOF 2
ENDMDL
MODEL 4
REMARK VINA RESULT: -6.164616306      1.253      2.982
REMARK  2 active torsions:
REMARK  status: ('A' for Active; 'I' for Inactive)
REMARK    1  A    between atoms: C2_2  and  C3_3 
REMARK    2  A    between atoms: C7_7  and  C8_8 
ROOT
HETATM    1  C3  UNL     1      27.535   6.754   3.594  1.00  0.00     0.012 C 
HETATM    2  C4  UNL     1      26.649   6.437   4.806  1.00  0.00     0.009 C 
HETATM    3  C5  UNL     1      26.501   7.761   5.522  1.00  0.00     0.001 C 
HETATM    4  C6  UNL     1      27.228   8.789   4.668  1.00  0.00     0.005 C 
HETATM    5  C7  UNL     1      27.092   8.151   3.288  1.00  0.00    -0.003 C 
ENDROOT
BRANCH   5   6
HETATM    6  C8  UNL     1      27.893   8.839   2.244  1.00  0.00    -0.010 A 
HETATM    7  C9  UNL     1      27.164   9.156   0.968  1.00  0.00     0.005 A 
HETATM    8  C10 UNL     1      27.691  10.237   1.844  1.00  0.00     0.005 A 
ENDBRANCH   5   6
BRANCH   1   9
HETATM    9  C2  UNL     1      27.345   5.800   2.505  1.00  0.00    -0.032 C 
HETATM   10  C1  UNL     1      26.805   4.619   2.762  1.00  0.00     0.007 C 
ENDBRANCH   1   9
TORSDOF 2
ENDMDL
MODEL 5
REMARK VINA RESULT: -6.152200863      1.430      3.761
REMARK  2 active torsions:
REMARK  status: ('A' for Active; 'I' for Inactive)
REMARK    1  A    between atoms: C2_2  and  C3_3 
REMARK    2  A    between atoms: C7_7  and  C8_8 
ROOT
HETATM    1  C3  UNL     1      28.202   8.462   3.272  1.00  0.00     0.012 C 
HETATM    2  C4  UNL     1      27.795   9.756   2.556  1.00  0.00     0.009 C 
HETATM    3  C5  UNL     1      27.618   9.347   1.110  1.00  0.00     0.001 C 
HETATM    4  C6  UNL     1      27.851   7.844   1.063  1.00  0.00     0.005 C 
HETATM    5  C7  UNL     1      27.433   7.454   2.477  1.00  0.00    -0.003 C 
ENDROOT
BRANCH   5   6
HETATM    6  C8  UNL     1      27.741   6.039   2.809  1.00  0.00    -0.010 A 
HETATM    7  C9  UNL     1      26.596   5.235   3.359  1.00  0.00     0.005 A 
HETATM    8  C10 UNL     1      27.225   4.889   2.056  1.00  0.00     0.005 A 
ENDBRANCH   5   6
BRANCH   1   9
HETATM    9  C2  UNL     1      27.881   8.493   4.696  1.00  0.00    -0.032 C 
HETATM   10  C1  UNL     1      26.618   8.611   5.076  1.00  0.00     0.007 C 
ENDBRANCH   1   9
TORSDOF 2
ENDMDL
