MODEL 1
REMARK VINA RESULT: -5.545173266      0.000      0.000
REMARK  2 active torsions:
REMARK  status: ('A' for Active; 'I' for Inactive)
REMARK    1  A    between atoms: C2_2  and  C3_3 
REMARK    2  A    between atoms: C3_3  and  S1_4 
ROOT
HETATM    1  S1  UNL     1      27.677   8.997   4.005  1.00  0.00    -0.216 SA
HETATM    2  C4  UNL     1      26.729   9.660   2.624  1.00  0.00     0.063 C 
HETATM    3  C5  UNL     1      27.707   9.560   1.449  1.00  0.00     0.009 C 
HETATM    4  C6  UNL     1      27.704   8.133   1.010  1.00  0.00     0.001 C 
HETATM    5  C7  UNL     1      28.050   7.148   2.066  1.00  0.00     0.009 C 
HETATM    6  C8  UNL     1      28.678   7.717   3.289  1.00  0.00     0.063 C 
ENDROOT
BRANCH   1   7
HETATM    7  C3  UNL     1      26.526   8.385   5.180  1.00  0.00     0.089 C 
BRANCH   7   8
HETATM    8  C2  UNL     1      26.933   7.084   5.777  1.00  0.00    -0.027 C 
HETATM    9  C1  UNL     1      26.016   6.152   5.930  1.00  0.00     0.007 C 
ENDBRANCH   7   8
ENDBRANCH   1   7
TORSDOF 2
ENDMDL
MODEL 2
REMARK VINA RESULT: -5.179108061      1.288      1.835
REMARK  2 active torsions:
REMARK  status: ('A' for Active; 'I' for Inactive)
REMARK    1  A    between atoms: C2_2  and  C3_3 
REMARK    2  A    between atoms: C3_3  and  S1_4 
ROOT
HETATM    1  S1  UNL     1      27.618   7.080   3.560  1.00  0.00    -0.216 SA
HETATM    2  C4  UNL     1      26.682   8.600   3.800  1.00  0.00     0.063 C 
HETATM    3  C5  UNL     1      27.554   9.660   3.119  1.00  0.00     0.009 C 
HETATM    4  C6  UNL     1      27.320   9.526   1.650  1.00  0.00     0.001 C 
HETATM    5  C7  UNL     1      27.594   8.179   1.088  1.00  0.00     0.009 C 
HETATM    6  C8  UNL     1      28.378   7.268   1.966  1.00  0.00     0.063 C 
ENDROOT
BRANCH   1   7
HETATM    7  C3  UNL     1      26.475   5.750   3.618  1.00  0.00     0.089 C 
BRANCH   7   8
HETATM    8  C2  UNL     1      25.506   5.859   4.741  1.00  0.00    -0.027 C 
HETATM    9  C1  UNL     1      25.928   5.592   5.960  1.00  0.00     0.007 C 
ENDBRANCH   7   8
ENDBRANCH   1   7
TORSDOF 2
ENDMDL
MODEL 3
REMARK VINA RESULT: -5.161536881      0.858      1.946
REMARK  2 active torsions:
REMARK  status: ('A' for Active; 'I' for Inactive)
REMARK    1  A    between atoms: C2_2  and  C3_3 
REMARK    2  A    between atoms: C3_3  and  S1_4 
ROOT
HETATM    1  S1  UNL     1      26.818   7.773   3.417  1.00  0.00    -0.216 SA
HETATM    2  C4  UNL     1      28.091   7.283   2.240  1.00  0.00     0.063 C 
HETATM    3  C5  UNL     1      27.622   7.926   0.931  1.00  0.00     0.009 C 
HETATM    4  C6  UNL     1      27.986   9.372   1.010  1.00  0.00     0.001 C 
HETATM    5  C7  UNL     1      27.431  10.099   2.179  1.00  0.00     0.009 C 
HETATM    6  C8  UNL     1      26.333   9.401   2.903  1.00  0.00     0.063 C 
ENDROOT
BRANCH   1   7
HETATM    7  C3  UNL     1      27.549   7.751   5.013  1.00  0.00     0.089 C 
BRANCH   7   8
HETATM    8  C2  UNL     1      26.725   7.037   6.025  1.00  0.00    -0.027 C 
HETATM    9  C1  UNL     1      25.932   6.069   5.616  1.00  0.00     0.007 C 
ENDBRANCH   7   8
ENDBRANCH   1   7
TORSDOF 2
ENDMDL
MODEL 4
REMARK VINA RESULT: -5.141773568      1.566      3.967
REMARK  2 active torsions:
REMARK  status: ('A' for Active; 'I' for Inactive)
REMARK    1  A    between atoms: C2_2  and  C3_3 
REMARK    2  A    between atoms: C3_3  and  S1_4 
ROOT
HETATM    1  S1  UNL     1      27.481   7.339   4.344  1.00  0.00    -0.216 SA
HETATM    2  C4  UNL     1      27.100   6.403   2.853  1.00  0.00     0.063 C 
HETATM    3  C5  UNL     1      27.009   4.960   3.359  1.00  0.00     0.009 C 
HETATM    4  C6  UNL     1      25.675   4.820   4.014  1.00  0.00     0.001 C 
HETATM    5  C7  UNL     1      25.409   5.781   5.115  1.00  0.00     0.009 C 
HETATM    6  C8  UNL     1      26.602   6.499   5.638  1.00  0.00     0.063 C 
ENDROOT
BRANCH   1   7
HETATM    7  C3  UNL     1      26.913   8.980   4.088  1.00  0.00     0.089 C 
BRANCH   7   8
HETATM    8  C2  UNL     1      26.685   9.304   2.654  1.00  0.00    -0.027 C 
HETATM    9  C1  UNL     1      27.600  10.005   2.018  1.00  0.00     0.007 C 
ENDBRANCH   7   8
ENDBRANCH   1   7
TORSDOF 2
ENDMDL
MODEL 5
REMARK VINA RESULT: -5.042102970      1.754      2.503
REMARK  2 active torsions:
REMARK  status: ('A' for Active; 'I' for Inactive)
REMARK    1  A    between atoms: C2_2  and  C3_3 
REMARK    2  A    between atoms: C3_3  and  S1_4 
ROOT
HETATM    1  S1  UNL     1      27.939   6.878   2.777  1.00  0.00    -0.216 SA
HETATM    2  C4  UNL     1      27.039   8.086   3.765  1.00  0.00     0.063 C 
HETATM    3  C5  UNL     1      27.739   9.406   3.426  1.00  0.00     0.009 C 
HETATM    4  C6  UNL     1      27.222   9.833   2.092  1.00  0.00     0.001 C 
HETATM    5  C7  UNL     1      27.406   8.845   0.999  1.00  0.00     0.009 C 
HETATM    6  C8  UNL     1      28.365   7.744   1.288  1.00  0.00     0.063 C 
ENDROOT
BRANCH   1   7
HETATM    7  C3  UNL     1      26.855   5.527   2.494  1.00  0.00     0.089 C 
BRANCH   7   8
HETATM    8  C2  UNL     1      26.509   4.783   3.736  1.00  0.00    -0.027 C 
HETATM    9  C1  UNL     1      25.327   4.991   4.280  1.00  0.00     0.007 C 
ENDBRANCH   7   8
ENDBRANCH   1   7
TORSDOF 2
ENDMDL
