MODEL 1
REMARK VINA RESULT: -6.674049072      0.000      0.000
REMARK  3 active torsions:
REMARK  status: ('A' for Active; 'I' for Inactive)
REMARK    1  A    between atoms: C2_2  and  C3_3 
REMARK    2  A    between atoms: C3_3  and  C4_4 
REMARK    3  A    between atoms: C4_4  and  C6_6 
ROOT
HETATM    1  C6  UNL     1      27.093   8.518   2.869  1.00  0.00     0.026 C 
HETATM    2  C7  UNL     1      28.257   7.698   2.261  1.00  0.00     0.010 C 
HETATM    3  C8  UNL     1      27.830   7.971   0.792  1.00  0.00     0.001 C 
HETATM    4  C9  UNL     1      27.840   9.518   0.841  1.00  0.00     0.001 C 
HETATM    5  C10 UNL     1      27.440   9.858   2.308  1.00  0.00     0.010 C 
ENDROOT
BRANCH   1   6
HETATM    6  C4  UNL     1      27.278   8.462   4.400  1.00  0.00    -0.018 C 
HETATM    7  C5  UNL     1      28.261   9.358   4.789  1.00  0.00     0.028 C 
BRANCH   6   8
HETATM    8  C3  UNL     1      26.808   7.615   5.132  1.00  0.00    -0.122 C 
BRANCH   8   9
HETATM    9  C2  UNL     1      26.270   6.646   5.969  1.00  0.00     0.046 C 
HETATM   10  C1  UNL     1      25.696   5.445   5.862  1.00  0.00     0.020 C 
ENDBRANCH   8   9
ENDBRANCH   6   8
ENDBRANCH   1   6
TORSDOF 3
ENDMDL
MODEL 2
REMARK VINA RESULT: -6.606033899      1.028      4.445
REMARK  3 active torsions:
REMARK  status: ('A' for Active; 'I' for Inactive)
REMARK    1  A    between atoms: C2_2  and  C3_3 
REMARK    2  A    between atoms: C3_3  and  C4_4 
REMARK    3  A    between atoms: C4_4  and  C6_6 
ROOT
HETATM    1  C6  UNL     1      26.346   7.385   4.369  1.00  0.00     0.026 C 
HETATM    2  C7  UNL     1      26.899   7.070   5.781  1.00  0.00     0.010 C 
HETATM    3  C8  UNL     1      25.783   6.040   6.110  1.00  0.00     0.001 C 
HETATM    4  C9  UNL     1      25.991   5.092   4.906  1.00  0.00     0.001 C 
HETATM    5  C10 UNL     1      26.484   6.028   3.761  1.00  0.00     0.010 C 
ENDROOT
BRANCH   1   6
HETATM    6  C4  UNL     1      27.317   8.406   3.742  1.00  0.00    -0.018 C 
HETATM    7  C5  UNL     1      28.103   8.978   4.729  1.00  0.00     0.028 C 
BRANCH   6   8
HETATM    8  C3  UNL     1      27.260   8.818   2.601  1.00  0.00    -0.122 C 
BRANCH   8   9
HETATM    9  C2  UNL     1      27.196   9.290   1.296  1.00  0.00     0.046 C 
HETATM   10  C1  UNL     1      27.177   8.792   0.057  1.00  0.00     0.020 C 
ENDBRANCH   8   9
ENDBRANCH   6   8
ENDBRANCH   1   6
TORSDOF 3
ENDMDL
MODEL 3
REMARK VINA RESULT: -6.363967603      1.450      4.977
REMARK  3 active torsions:
REMARK  status: ('A' for Active; 'I' for Inactive)
REMARK    1  A    between atoms: C2_2  and  C3_3 
REMARK    2  A    between atoms: C3_3  and  C4_4 
REMARK    3  A    between atoms: C4_4  and  C6_6 
ROOT
HETATM    1  C6  UNL     1      26.286   6.327   3.973  1.00  0.00     0.026 C 
HETATM    2  C7  UNL     1      27.261   6.913   5.023  1.00  0.00     0.010 C 
HETATM    3  C8  UNL     1      26.197   6.953   6.154  1.00  0.00     0.001 C 
HETATM    4  C9  UNL     1      25.795   5.459   6.136  1.00  0.00     0.001 C 
HETATM    5  C10 UNL     1      25.974   5.032   4.648  1.00  0.00     0.010 C 
ENDROOT
BRANCH   1   6
HETATM    6  C4  UNL     1      27.107   6.129   2.682  1.00  0.00    -0.018 C 
HETATM    7  C5  UNL     1      27.342   4.779   2.475  1.00  0.00     0.028 C 
BRANCH   6   8
HETATM    8  C3  UNL     1      27.659   7.014   2.059  1.00  0.00    -0.122 C 
BRANCH   8   9
HETATM    9  C2  UNL     1      28.290   8.025   1.346  1.00  0.00     0.046 C 
HETATM   10  C1  UNL     1      27.954   9.033   0.537  1.00  0.00     0.020 C 
ENDBRANCH   8   9
ENDBRANCH   6   8
ENDBRANCH   1   6
TORSDOF 3
ENDMDL
MODEL 4
REMARK VINA RESULT: -6.331625745      1.121      2.096
REMARK  3 active torsions:
REMARK  status: ('A' for Active; 'I' for Inactive)
REMARK    1  A    between atoms: C2_2  and  C3_3 
REMARK    2  A    between atoms: C3_3  and  C4_4 
REMARK    3  A    between atoms: C4_4  and  C6_6 
ROOT
HETATM    1  C6  UNL     1      27.991   8.042   2.576  1.00  0.00     0.026 C 
HETATM    2  C7  UNL     1      26.862   9.086   2.756  1.00  0.00     0.010 C 
HETATM    3  C8  UNL     1      27.636  10.216   2.023  1.00  0.00     0.001 C 
HETATM    4  C9  UNL     1      27.885   9.484   0.683  1.00  0.00     0.001 C 
HETATM    5  C10 UNL     1      28.013   7.983   1.084  1.00  0.00     0.010 C 
ENDROOT
BRANCH   1   6
HETATM    6  C4  UNL     1      27.474   6.732   3.204  1.00  0.00    -0.018 C 
HETATM    7  C5  UNL     1      27.566   5.700   2.284  1.00  0.00     0.028 C 
BRANCH   6   8
HETATM    8  C3  UNL     1      26.870   6.648   4.255  1.00  0.00    -0.122 C 
BRANCH   8   9
HETATM    9  C2  UNL     1      26.181   6.552   5.457  1.00  0.00     0.046 C 
HETATM   10  C1  UNL     1      25.627   5.602   6.214  1.00  0.00     0.020 C 
ENDBRANCH   8   9
ENDBRANCH   6   8
ENDBRANCH   1   6
TORSDOF 3
ENDMDL
MODEL 5
REMARK VINA RESULT: -6.206611330      1.055      4.420
REMARK  3 active torsions:
REMARK  status: ('A' for Active; 'I' for Inactive)
REMARK    1  A    between atoms: C2_2  and  C3_3 
REMARK    2  A    between atoms: C3_3  and  C4_4 
REMARK    3  A    between atoms: C4_4  and  C6_6 
ROOT
HETATM    1  C6  UNL     1      27.229   6.754   4.528  1.00  0.00     0.026 C 
HETATM    2  C7  UNL     1      26.011   6.127   3.808  1.00  0.00     0.010 C 
HETATM    3  C8  UNL     1      25.850   4.978   4.842  1.00  0.00     0.001 C 
HETATM    4  C9  UNL     1      25.707   5.843   6.116  1.00  0.00     0.001 C 
HETATM    5  C10 UNL     1      26.575   7.104   5.823  1.00  0.00     0.010 C 
ENDROOT
BRANCH   1   6
HETATM    6  C4  UNL     1      27.616   8.006   3.713  1.00  0.00    -0.018 C 
HETATM    7  C5  UNL     1      27.624   9.120   4.536  1.00  0.00     0.028 C 
BRANCH   6   8
HETATM    8  C3  UNL     1      27.684   8.060   2.502  1.00  0.00    -0.122 C 
BRANCH   8   9
HETATM    9  C2  UNL     1      27.762   8.122   1.116  1.00  0.00     0.046 C 
HETATM   10  C1  UNL     1      27.197   8.803   0.116  1.00  0.00     0.020 C 
ENDBRANCH   8   9
ENDBRANCH   6   8
ENDBRANCH   1   6
TORSDOF 3
ENDMDL
