MODEL 1
REMARK VINA RESULT: -6.495257034      0.000      0.000
REMARK  2 active torsions:
REMARK  status: ('A' for Active; 'I' for Inactive)
REMARK    1  A    between atoms: C1_1  and  C8_8 
REMARK    2  A    between atoms: C2_2  and  C3_3 
ROOT
HETATM    1  C3  UNL     1      26.869   8.388   2.968  1.00  0.00     0.016 C 
HETATM    2  C4  UNL     1      28.007   8.679   2.069  1.00  0.00    -0.006 C 
HETATM    3  C5  UNL     1      27.918  10.100   2.517  1.00  0.00     0.010 C 
HETATM    4  C6  UNL     1      26.498   9.707   2.372  1.00  0.00    -0.006 C 
HETATM    5  C7  UNL     1      26.961   9.078   1.060  1.00  0.00     0.010 C 
ENDROOT
BRANCH   1   6
HETATM    6  C2  UNL     1      27.192   8.309   4.392  1.00  0.00    -0.025 C 
HETATM    7  C1  UNL     1      26.696   7.478   5.284  1.00  0.00    -0.025 C 
BRANCH   7   8
HETATM    8  C8  UNL     1      25.701   6.420   5.102  1.00  0.00     0.008 A 
HETATM    9  C9  UNL     1      25.947   5.089   4.563  1.00  0.00     0.009 A 
HETATM   10  C10 UNL     1      25.912   5.210   6.041  1.00  0.00     0.009 A 
ENDBRANCH   7   8
ENDBRANCH   1   6
TORSDOF 2
ENDMDL
MODEL 2
REMARK VINA RESULT: -6.409273136      0.953      1.224
REMARK  2 active torsions:
REMARK  status: ('A' for Active; 'I' for Inactive)
REMARK    1  A    between atoms: C1_1  and  C8_8 
REMARK    2  A    between atoms: C2_2  and  C3_3 
ROOT
HETATM    1  C3  UNL     1      27.609   8.063   1.949  1.00  0.00     0.016 C 
HETATM    2  C4  UNL     1      28.327   8.751   0.853  1.00  0.00    -0.006 C 
HETATM    3  C5  UNL     1      27.926  10.043   1.486  1.00  0.00     0.010 C 
HETATM    4  C6  UNL     1      26.710   9.212   1.627  1.00  0.00    -0.006 C 
HETATM    5  C7  UNL     1      26.984   8.828   0.174  1.00  0.00     0.010 C 
ENDROOT
BRANCH   1   6
HETATM    6  C2  UNL     1      28.301   8.032   3.237  1.00  0.00    -0.025 C 
HETATM    7  C1  UNL     1      27.796   7.727   4.413  1.00  0.00    -0.025 C 
BRANCH   7   8
HETATM    8  C8  UNL     1      26.427   7.339   4.753  1.00  0.00     0.008 A 
HETATM    9  C9  UNL     1      25.893   5.983   4.767  1.00  0.00     0.009 A 
HETATM   10  C10 UNL     1      26.324   6.539   6.073  1.00  0.00     0.009 A 
ENDBRANCH   7   8
ENDBRANCH   1   6
TORSDOF 2
ENDMDL
MODEL 3
REMARK VINA RESULT: -6.368345697      0.990      1.299
REMARK  2 active torsions:
REMARK  status: ('A' for Active; 'I' for Inactive)
REMARK    1  A    between atoms: C1_1  and  C8_8 
REMARK    2  A    between atoms: C2_2  and  C3_3 
ROOT
HETATM    1  C3  UNL     1      26.893   7.762   3.960  1.00  0.00     0.016 C 
HETATM    2  C4  UNL     1      28.205   8.003   3.320  1.00  0.00    -0.006 C 
HETATM    3  C5  UNL     1      28.163   9.379   3.897  1.00  0.00     0.010 C 
HETATM    4  C6  UNL     1      26.768   9.162   3.454  1.00  0.00    -0.006 C 
HETATM    5  C7  UNL     1      27.415   8.605   2.187  1.00  0.00     0.010 C 
ENDROOT
BRANCH   1   6
HETATM    6  C2  UNL     1      26.927   7.519   5.402  1.00  0.00    -0.025 C 
HETATM    7  C1  UNL     1      26.330   6.555   6.068  1.00  0.00    -0.025 C 
BRANCH   7   8
HETATM    8  C8  UNL     1      25.482   5.475   5.562  1.00  0.00     0.008 A 
HETATM    9  C9  UNL     1      25.148   5.223   4.167  1.00  0.00     0.009 A 
HETATM   10  C10 UNL     1      26.256   4.420   4.738  1.00  0.00     0.009 A 
ENDBRANCH   7   8
ENDBRANCH   1   6
TORSDOF 2
ENDMDL
MODEL 4
REMARK VINA RESULT: -6.284438587      1.027      2.000
REMARK  2 active torsions:
REMARK  status: ('A' for Active; 'I' for Inactive)
REMARK    1  A    between atoms: C1_1  and  C8_8 
REMARK    2  A    between atoms: C2_2  and  C3_3 
ROOT
HETATM    1  C3  UNL     1      27.911   8.791   2.126  1.00  0.00     0.016 C 
HETATM    2  C4  UNL     1      28.013   9.525   0.845  1.00  0.00    -0.006 C 
HETATM    3  C5  UNL     1      26.824   8.751   0.379  1.00  0.00     0.010 C 
HETATM    4  C6  UNL     1      27.616   7.737   1.110  1.00  0.00    -0.006 C 
HETATM    5  C7  UNL     1      28.802   8.337   0.358  1.00  0.00     0.010 C 
ENDROOT
BRANCH   1   6
HETATM    6  C2  UNL     1      26.849   9.238   3.027  1.00  0.00    -0.025 C 
HETATM    7  C1  UNL     1      26.471   8.684   4.160  1.00  0.00    -0.025 C 
BRANCH   7   8
HETATM    8  C8  UNL     1      26.999   7.492   4.822  1.00  0.00     0.008 A 
HETATM    9  C9  UNL     1      26.501   6.898   6.056  1.00  0.00     0.009 A 
HETATM   10  C10 UNL     1      26.028   6.288   4.788  1.00  0.00     0.009 A 
ENDBRANCH   7   8
ENDBRANCH   1   6
TORSDOF 2
ENDMDL
MODEL 5
REMARK VINA RESULT: -6.262791435      1.314      2.385
REMARK  2 active torsions:
REMARK  status: ('A' for Active; 'I' for Inactive)
REMARK    1  A    between atoms: C1_1  and  C8_8 
REMARK    2  A    between atoms: C2_2  and  C3_3 
ROOT
HETATM    1  C3  UNL     1      27.703   7.272   3.775  1.00  0.00     0.016 C 
HETATM    2  C4  UNL     1      26.787   8.433   3.799  1.00  0.00    -0.006 C 
HETATM    3  C5  UNL     1      27.531   8.965   2.619  1.00  0.00     0.010 C 
HETATM    4  C6  UNL     1      28.609   8.420   3.474  1.00  0.00    -0.006 C 
HETATM    5  C7  UNL     1      27.860   9.118   4.607  1.00  0.00     0.010 C 
ENDROOT
BRANCH   1   6
HETATM    6  C2  UNL     1      27.435   6.277   2.736  1.00  0.00    -0.025 C 
HETATM    7  C1  UNL     1      26.790   5.137   2.863  1.00  0.00    -0.025 C 
BRANCH   7   8
HETATM    8  C8  UNL     1      26.171   4.558   4.056  1.00  0.00     0.008 A 
HETATM    9  C9  UNL     1      25.967   5.229   5.334  1.00  0.00     0.009 A 
HETATM   10  C10 UNL     1      24.806   5.195   4.411  1.00  0.00     0.009 A 
ENDBRANCH   7   8
ENDBRANCH   1   6
TORSDOF 2
ENDMDL
