MODEL 1
REMARK VINA RESULT: -5.378770450      0.000      0.000
REMARK  0 active torsions:
REMARK  status: ('A' for Active; 'I' for Inactive)
ROOT
HETATM    1  C1  UNL     1      27.854   7.619   5.759  1.00  0.00     0.010 C 
HETATM    2  C2  UNL     1      26.482   7.070   5.588  1.00  0.00    -0.014 C 
HETATM    3  C3  UNL     1      26.288   5.728   6.303  1.00  0.00     0.009 C 
HETATM    4  C4  UNL     1      25.575   4.863   5.324  1.00  0.00    -0.014 C 
HETATM    5  C5  UNL     1      26.617   4.361   4.320  1.00  0.00     0.005 C 
HETATM    6  C6  UNL     1      27.026   5.657   3.617  1.00  0.00     0.005 C 
HETATM    7  C7  UNL     1      26.123   6.734   4.164  1.00  0.00    -0.010 C 
HETATM    8  C8  UNL     1      24.863   5.883   4.423  1.00  0.00     0.009 C 
ENDROOT
TORSDOF 0
ENDMDL
MODEL 2
REMARK VINA RESULT: -4.821994097      0.988      1.204
REMARK  0 active torsions:
REMARK  status: ('A' for Active; 'I' for Inactive)
ROOT
HETATM    1  C1  UNL     1      28.297   7.268   3.826  1.00  0.00     0.010 C 
HETATM    2  C2  UNL     1      26.891   7.099   4.279  1.00  0.00    -0.014 C 
HETATM    3  C3  UNL     1      26.787   6.728   5.763  1.00  0.00     0.009 C 
HETATM    4  C4  UNL     1      25.787   5.627   5.822  1.00  0.00    -0.014 C 
HETATM    5  C5  UNL     1      26.498   4.344   5.384  1.00  0.00     0.005 C 
HETATM    6  C6  UNL     1      26.809   4.641   3.915  1.00  0.00     0.005 C 
HETATM    7  C7  UNL     1      26.157   5.967   3.609  1.00  0.00    -0.010 C 
HETATM    8  C8  UNL     1      24.945   5.864   4.558  1.00  0.00     0.009 C 
ENDROOT
TORSDOF 0
ENDMDL
MODEL 3
REMARK VINA RESULT: -4.807324720      0.877      1.231
REMARK  0 active torsions:
REMARK  status: ('A' for Active; 'I' for Inactive)
ROOT
HETATM    1  C1  UNL     1      27.254   6.567   6.902  1.00  0.00     0.010 C 
HETATM    2  C2  UNL     1      26.158   6.137   5.995  1.00  0.00    -0.014 C 
HETATM    3  C3  UNL     1      26.347   4.707   5.476  1.00  0.00     0.009 C 
HETATM    4  C4  UNL     1      26.048   4.777   4.019  1.00  0.00    -0.014 C 
HETATM    5  C5  UNL     1      27.284   5.362   3.330  1.00  0.00     0.005 C 
HETATM    6  C6  UNL     1      27.312   6.786   3.890  1.00  0.00     0.005 C 
HETATM    7  C7  UNL     1      26.061   6.934   4.720  1.00  0.00    -0.010 C 
HETATM    8  C8  UNL     1      25.128   6.004   3.918  1.00  0.00     0.009 C 
ENDROOT
TORSDOF 0
ENDMDL
MODEL 4
REMARK VINA RESULT: -4.786431436      0.927      2.462
REMARK  0 active torsions:
REMARK  status: ('A' for Active; 'I' for Inactive)
ROOT
HETATM    1  C1  UNL     1      27.942   4.956   2.780  1.00  0.00     0.010 C 
HETATM    2  C2  UNL     1      26.882   5.875   3.271  1.00  0.00    -0.014 C 
HETATM    3  C3  UNL     1      27.420   6.942   4.231  1.00  0.00     0.009 C 
HETATM    4  C4  UNL     1      26.449   6.981   5.358  1.00  0.00    -0.014 C 
HETATM    5  C5  UNL     1      26.754   5.782   6.261  1.00  0.00     0.005 C 
HETATM    6  C6  UNL     1      26.398   4.604   5.352  1.00  0.00     0.005 C 
HETATM    7  C7  UNL     1      25.815   5.204   4.097  1.00  0.00    -0.010 C 
HETATM    8  C8  UNL     1      25.157   6.456   4.713  1.00  0.00     0.009 C 
ENDROOT
TORSDOF 0
ENDMDL
MODEL 5
REMARK VINA RESULT: -4.595811677      0.868      2.789
REMARK  0 active torsions:
REMARK  status: ('A' for Active; 'I' for Inactive)
ROOT
HETATM    1  C1  UNL     1      26.772   3.924   3.829  1.00  0.00     0.010 C 
HETATM    2  C2  UNL     1      26.349   5.349   3.865  1.00  0.00    -0.014 C 
HETATM    3  C3  UNL     1      27.522   6.310   4.089  1.00  0.00     0.009 C 
HETATM    4  C4  UNL     1      27.044   7.278   5.114  1.00  0.00    -0.014 C 
HETATM    5  C5  UNL     1      27.143   6.584   6.475  1.00  0.00     0.005 C 
HETATM    6  C6  UNL     1      26.104   5.470   6.336  1.00  0.00     0.005 C 
HETATM    7  C7  UNL     1      25.427   5.692   5.007  1.00  0.00    -0.010 C 
HETATM    8  C8  UNL     1      25.518   7.230   4.944  1.00  0.00     0.009 C 
ENDROOT
TORSDOF 0
ENDMDL
