MODEL 1
REMARK VINA RESULT: -6.062402561      0.000      0.000
REMARK  0 active torsions:
REMARK  status: ('A' for Active; 'I' for Inactive)
ROOT
HETATM    1  C1  UNL     1      27.052   5.219   2.647  1.00  0.00     0.015 C 
HETATM    2  C2  UNL     1      26.700   5.645   4.015  1.00  0.00    -0.043 C 
HETATM    3  C3  UNL     1      27.372   6.888   4.528  1.00  0.00     0.009 C 
HETATM    4  C4  UNL     1      26.919   7.262   5.892  1.00  0.00     0.001 C 
HETATM    5  C5  UNL     1      26.106   6.239   6.603  1.00  0.00     0.005 C 
HETATM    6  C6  UNL     1      25.505   5.224   5.664  1.00  0.00    -0.013 C 
HETATM    7  C7  UNL     1      25.201   5.816   4.297  1.00  0.00     0.013 C 
HETATM    8  C8  UNL     1      26.692   4.514   4.998  1.00  0.00     0.013 C 
ENDROOT
TORSDOF 0
ENDMDL
MODEL 2
REMARK VINA RESULT: -5.492840341      0.903      1.062
REMARK  0 active torsions:
REMARK  status: ('A' for Active; 'I' for Inactive)
ROOT
HETATM    1  C1  UNL     1      27.807   6.845   3.024  1.00  0.00     0.015 C 
HETATM    2  C2  UNL     1      27.032   6.427   4.210  1.00  0.00    -0.043 C 
HETATM    3  C3  UNL     1      27.384   7.091   5.513  1.00  0.00     0.009 C 
HETATM    4  C4  UNL     1      26.522   6.642   6.634  1.00  0.00     0.001 C 
HETATM    5  C5  UNL     1      25.662   5.462   6.352  1.00  0.00     0.005 C 
HETATM    6  C6  UNL     1      25.473   5.224   4.875  1.00  0.00    -0.013 C 
HETATM    7  C7  UNL     1      25.506   6.518   4.077  1.00  0.00     0.013 C 
HETATM    8  C8  UNL     1      26.873   4.942   4.313  1.00  0.00     0.013 C 
ENDROOT
TORSDOF 0
ENDMDL
MODEL 3
REMARK VINA RESULT: -5.178989286      0.837      2.704
REMARK  0 active torsions:
REMARK  status: ('A' for Active; 'I' for Inactive)
ROOT
HETATM    1  C1  UNL     1      26.277   7.179   6.537  1.00  0.00     0.015 C 
HETATM    2  C2  UNL     1      26.562   6.421   5.303  1.00  0.00    -0.043 C 
HETATM    3  C3  UNL     1      27.585   7.009   4.371  1.00  0.00     0.009 C 
HETATM    4  C4  UNL     1      27.836   6.152   3.184  1.00  0.00     0.001 C 
HETATM    5  C5  UNL     1      26.881   5.029   2.987  1.00  0.00     0.005 C 
HETATM    6  C6  UNL     1      26.128   4.683   4.246  1.00  0.00    -0.013 C 
HETATM    7  C7  UNL     1      26.950   4.949   5.498  1.00  0.00     0.013 C 
HETATM    8  C8  UNL     1      25.323   5.938   4.612  1.00  0.00     0.013 C 
ENDROOT
TORSDOF 0
ENDMDL
MODEL 4
REMARK VINA RESULT: -4.727119357      0.936      2.932
REMARK  0 active torsions:
REMARK  status: ('A' for Active; 'I' for Inactive)
ROOT
HETATM    1  C1  UNL     1      25.533   5.338   6.452  1.00  0.00     0.015 C 
HETATM    2  C2  UNL     1      26.274   5.666   5.218  1.00  0.00    -0.043 C 
HETATM    3  C3  UNL     1      26.529   4.532   4.264  1.00  0.00     0.009 C 
HETATM    4  C4  UNL     1      27.236   4.968   3.034  1.00  0.00     0.001 C 
HETATM    5  C5  UNL     1      27.789   6.348   3.064  1.00  0.00     0.005 C 
HETATM    6  C6  UNL     1      27.148   7.205   4.126  1.00  0.00    -0.013 C 
HETATM    7  C7  UNL     1      25.700   6.815   4.380  1.00  0.00     0.013 C 
HETATM    8  C8  UNL     1      27.474   6.528   5.465  1.00  0.00     0.013 C 
ENDROOT
TORSDOF 0
ENDMDL
MODEL 5
REMARK VINA RESULT: -4.585894607      0.984      2.352
REMARK  0 active torsions:
REMARK  status: ('A' for Active; 'I' for Inactive)
ROOT
HETATM    1  C1  UNL     1      28.131   7.598   3.352  1.00  0.00     0.015 C 
HETATM    2  C2  UNL     1      27.251   6.683   4.107  1.00  0.00    -0.043 C 
HETATM    3  C3  UNL     1      27.082   5.297   3.549  1.00  0.00     0.009 C 
HETATM    4  C4  UNL     1      26.220   4.440   4.401  1.00  0.00     0.001 C 
HETATM    5  C5  UNL     1      25.481   5.143   5.482  1.00  0.00     0.005 C 
HETATM    6  C6  UNL     1      26.080   6.486   5.814  1.00  0.00    -0.013 C 
HETATM    7  C7  UNL     1      27.584   6.513   5.595  1.00  0.00     0.013 C 
HETATM    8  C8  UNL     1      25.965   7.324   4.532  1.00  0.00     0.013 C 
ENDROOT
TORSDOF 0
ENDMDL
