MODEL 1
REMARK VINA RESULT: -3.930974188      0.000      0.000
REMARK  1 active torsions:
REMARK  status: ('A' for Active; 'I' for Inactive)
REMARK    1  A    between atoms: C7_7  and  N1_9 
ROOT
HETATM    1  C1  UNL     1      26.919   7.578   6.784  1.00  0.00     0.010 C 
HETATM    2  C2  UNL     1      27.007   6.975   5.425  1.00  0.00    -0.012 C 
HETATM    3  C3  UNL     1      25.735   7.239   4.594  1.00  0.00     0.011 C 
HETATM    4  C4  UNL     1      25.364   5.829   4.264  1.00  0.00     0.022 C 
HETATM    5  C5  UNL     1      25.503   5.184   5.652  1.00  0.00     0.014 C 
HETATM    6  C6  UNL     1      26.991   5.478   5.406  1.00  0.00     0.025 C 
HETATM    7  C7  UNL     1      26.683   5.149   3.973  1.00  0.00     0.127 C 
HETATM    8  C8  UNL     1      27.532   5.800   2.941  1.00  0.00     0.047 C 
ENDROOT
BRANCH   7   9
HETATM    9  N1  UNL     1      26.613   3.720   3.790  1.00  0.00    -0.070 N 
ATOM     10  H13 UNL     1      27.474   3.379   3.362  1.00  0.00     0.275 HD
ATOM     11  H12 UNL     1      26.662   3.249   4.693  1.00  0.00     0.275 HD
ATOM     12  H11 UNL     1      25.805   3.387   3.265  1.00  0.00     0.275 HD
ENDBRANCH   7   9
TORSDOF 1
ENDMDL
MODEL 2
REMARK VINA RESULT: -3.919275717      1.758      3.158
REMARK  1 active torsions:
REMARK  status: ('A' for Active; 'I' for Inactive)
REMARK    1  A    between atoms: C7_7  and  N1_9 
ROOT
HETATM    1  C1  UNL     1      27.168   4.853   2.400  1.00  0.00     0.010 C 
HETATM    2  C2  UNL     1      26.667   5.080   3.785  1.00  0.00    -0.012 C 
HETATM    3  C3  UNL     1      25.409   5.971   3.804  1.00  0.00     0.011 C 
HETATM    4  C4  UNL     1      25.892   7.053   4.716  1.00  0.00     0.022 C 
HETATM    5  C5  UNL     1      27.272   7.329   4.096  1.00  0.00     0.014 C 
HETATM    6  C6  UNL     1      27.562   5.922   4.641  1.00  0.00     0.025 C 
HETATM    7  C7  UNL     1      26.675   6.324   5.784  1.00  0.00     0.127 C 
HETATM    8  C8  UNL     1      25.951   5.232   6.485  1.00  0.00     0.047 C 
ENDROOT
BRANCH   7   9
HETATM    9  N1  UNL     1      27.396   7.170   6.704  1.00  0.00    -0.070 N 
ATOM     10  H13 UNL     1      28.355   7.300   6.382  1.00  0.00     0.275 HD
ATOM     11  H12 UNL     1      27.053   8.128   6.640  1.00  0.00     0.275 HD
ATOM     12  H11 UNL     1      27.392   6.860   7.675  1.00  0.00     0.275 HD
ENDBRANCH   7   9
TORSDOF 1
ENDMDL
MODEL 3
REMARK VINA RESULT: -3.711522103      1.803      3.080
REMARK  1 active torsions:
REMARK  status: ('A' for Active; 'I' for Inactive)
REMARK    1  A    between atoms: C7_7  and  N1_9 
ROOT
HETATM    1  C1  UNL     1      27.662   5.477   2.466  1.00  0.00     0.010 C 
HETATM    2  C2  UNL     1      27.344   5.328   3.914  1.00  0.00    -0.012 C 
HETATM    3  C3  UNL     1      25.929   4.759   4.138  1.00  0.00     0.011 C 
HETATM    4  C4  UNL     1      25.365   5.842   5.000  1.00  0.00     0.022 C 
HETATM    5  C5  UNL     1      25.801   7.078   4.196  1.00  0.00     0.014 C 
HETATM    6  C6  UNL     1      27.195   6.622   4.654  1.00  0.00     0.025 C 
HETATM    7  C7  UNL     1      26.501   6.220   5.923  1.00  0.00     0.127 C 
HETATM    8  C8  UNL     1      27.108   5.102   6.693  1.00  0.00     0.047 C 
ENDROOT
BRANCH   7   9
HETATM    9  N1  UNL     1      26.263   7.376   6.753  1.00  0.00    -0.070 N 
ATOM     10  H13 UNL     1      26.907   8.126   6.502  1.00  0.00     0.275 HD
ATOM     11  H12 UNL     1      25.375   7.810   6.501  1.00  0.00     0.275 HD
ATOM     12  H11 UNL     1      26.297   7.206   7.758  1.00  0.00     0.275 HD
ENDBRANCH   7   9
TORSDOF 1
ENDMDL
MODEL 4
REMARK VINA RESULT: -3.704923787      0.958      1.021
REMARK  1 active torsions:
REMARK  status: ('A' for Active; 'I' for Inactive)
REMARK    1  A    between atoms: C7_7  and  N1_9 
ROOT
HETATM    1  C1  UNL     1      26.360   6.671   6.857  1.00  0.00     0.010 C 
HETATM    2  C2  UNL     1      26.863   6.748   5.457  1.00  0.00    -0.012 C 
HETATM    3  C3  UNL     1      25.764   7.197   4.473  1.00  0.00     0.011 C 
HETATM    4  C4  UNL     1      25.806   6.046   3.520  1.00  0.00     0.022 C 
HETATM    5  C5  UNL     1      25.801   4.875   4.516  1.00  0.00     0.014 C 
HETATM    6  C6  UNL     1      27.198   5.424   4.842  1.00  0.00     0.025 C 
HETATM    7  C7  UNL     1      27.276   5.730   3.374  1.00  0.00     0.127 C 
HETATM    8  C8  UNL     1      28.146   6.867   2.973  1.00  0.00     0.047 C 
ENDROOT
BRANCH   7   9
HETATM    9  N1  UNL     1      27.578   4.533   2.628  1.00  0.00    -0.070 N 
ATOM     10  H13 UNL     1      26.890   3.809   2.833  1.00  0.00     0.275 HD
ATOM     11  H12 UNL     1      27.391   4.682   1.636  1.00  0.00     0.275 HD
ATOM     12  H11 UNL     1      28.521   4.166   2.755  1.00  0.00     0.275 HD
ENDBRANCH   7   9
TORSDOF 1
ENDMDL
MODEL 5
REMARK VINA RESULT: -3.500777253      1.578      2.126
REMARK  1 active torsions:
REMARK  status: ('A' for Active; 'I' for Inactive)
REMARK    1  A    between atoms: C7_7  and  N1_9 
ROOT
HETATM    1  C1  UNL     1      28.739   7.922   4.262  1.00  0.00     0.010 C 
HETATM    2  C2  UNL     1      27.762   6.798   4.289  1.00  0.00    -0.012 C 
HETATM    3  C3  UNL     1      26.376   7.226   3.767  1.00  0.00     0.011 C 
HETATM    4  C4  UNL     1      25.544   6.851   4.951  1.00  0.00     0.022 C 
HETATM    5  C5  UNL     1      26.392   7.464   6.078  1.00  0.00     0.014 C 
HETATM    6  C6  UNL     1      27.366   6.351   5.662  1.00  0.00     0.025 C 
HETATM    7  C7  UNL     1      26.126   5.538   5.421  1.00  0.00     0.127 C 
HETATM    8  C8  UNL     1      26.218   4.467   4.394  1.00  0.00     0.047 C 
ENDROOT
BRANCH   7   9
HETATM    9  N1  UNL     1      25.601   5.042   6.669  1.00  0.00    -0.070 N 
ATOM     10  H13 UNL     1      24.756   5.555   6.922  1.00  0.00     0.275 HD
ATOM     11  H12 UNL     1      25.211   4.108   6.539  1.00  0.00     0.275 HD
ATOM     12  H11 UNL     1      26.257   5.041   7.449  1.00  0.00     0.275 HD
ENDBRANCH   7   9
TORSDOF 1
ENDMDL
