MODEL 1
REMARK VINA RESULT: -7.252730947      0.000      0.000
REMARK  3 active torsions:
REMARK  status: ('A' for Active; 'I' for Inactive)
REMARK    1  A    between atoms: C2_2  and  C3_3 
REMARK    2  A    between atoms: C3_3  and  C4_4 
REMARK    3  A    between atoms: C5_5  and  C6_6 
ROOT
HETATM    1  C6  UNL     1      28.181   8.555   3.555  1.00  0.00     0.008 C 
HETATM    2  C7  UNL     1      27.005   9.353   2.996  1.00  0.00     0.008 C 
HETATM    3  C8  UNL     1      27.523   9.643   1.587  1.00  0.00     0.001 C 
HETATM    4  C9  UNL     1      27.948   8.238   1.160  1.00  0.00     0.001 C 
HETATM    5  C10 UNL     1      28.466   7.599   2.432  1.00  0.00     0.008 C 
ENDROOT
BRANCH   1   6
HETATM    6  C5  UNL     1      27.832   7.873   4.817  1.00  0.00    -0.026 C 
HETATM    7  C4  UNL     1      26.632   7.328   4.954  1.00  0.00    -0.026 C 
BRANCH   7   8
HETATM    8  C3  UNL     1      26.294   6.644   6.233  1.00  0.00     0.053 C 
BRANCH   8   9
HETATM    9  C2  UNL     1      25.782   5.285   5.892  1.00  0.00    -0.033 C 
HETATM   10  C1  UNL     1      25.441   5.002   4.640  1.00  0.00     0.007 C 
ENDBRANCH   8   9
ENDBRANCH   7   8
ENDBRANCH   1   6
TORSDOF 3
ENDMDL
MODEL 2
REMARK VINA RESULT: -6.839077978      0.940      4.825
REMARK  3 active torsions:
REMARK  status: ('A' for Active; 'I' for Inactive)
REMARK    1  A    between atoms: C2_2  and  C3_3 
REMARK    2  A    between atoms: C3_3  and  C4_4 
REMARK    3  A    between atoms: C5_5  and  C6_6 
ROOT
HETATM    1  C6  UNL     1      26.989   6.890   4.621  1.00  0.00     0.008 C 
HETATM    2  C7  UNL     1      26.057   5.911   3.911  1.00  0.00     0.008 C 
HETATM    3  C8  UNL     1      26.048   4.766   4.923  1.00  0.00     0.001 C 
HETATM    4  C9  UNL     1      25.742   5.540   6.205  1.00  0.00     0.001 C 
HETATM    5  C10 UNL     1      26.451   6.865   6.023  1.00  0.00     0.008 C 
ENDROOT
BRANCH   1   6
HETATM    6  C5  UNL     1      26.944   8.233   4.011  1.00  0.00    -0.026 C 
HETATM    7  C4  UNL     1      27.608   8.462   2.888  1.00  0.00    -0.026 C 
BRANCH   7   8
HETATM    8  C3  UNL     1      27.553   9.822   2.283  1.00  0.00     0.053 C 
BRANCH   8   9
HETATM    9  C2  UNL     1      27.797   9.672   0.820  1.00  0.00    -0.033 C 
HETATM   10  C1  UNL     1      27.116   8.767   0.126  1.00  0.00     0.007 C 
ENDBRANCH   8   9
ENDBRANCH   7   8
ENDBRANCH   1   6
TORSDOF 3
ENDMDL
MODEL 3
REMARK VINA RESULT: -6.709036545      1.087      1.648
REMARK  3 active torsions:
REMARK  status: ('A' for Active; 'I' for Inactive)
REMARK    1  A    between atoms: C2_2  and  C3_3 
REMARK    2  A    between atoms: C3_3  and  C4_4 
REMARK    3  A    between atoms: C5_5  and  C6_6 
ROOT
HETATM    1  C6  UNL     1      28.199   7.840   2.455  1.00  0.00     0.008 C 
HETATM    2  C7  UNL     1      27.189   8.898   2.893  1.00  0.00     0.008 C 
HETATM    3  C8  UNL     1      27.688  10.095   2.083  1.00  0.00     0.001 C 
HETATM    4  C9  UNL     1      27.791   9.461   0.696  1.00  0.00     0.001 C 
HETATM    5  C10 UNL     1      28.225   8.035   0.966  1.00  0.00     0.008 C 
ENDROOT
BRANCH   1   6
HETATM    6  C5  UNL     1      27.776   6.481   2.850  1.00  0.00    -0.026 C 
HETATM    7  C4  UNL     1      26.712   6.328   3.624  1.00  0.00    -0.026 C 
BRANCH   7   8
HETATM    8  C3  UNL     1      26.297   4.952   4.014  1.00  0.00     0.053 C 
BRANCH   8   9
HETATM    9  C2  UNL     1      25.813   5.013   5.423  1.00  0.00    -0.033 C 
HETATM   10  C1  UNL     1      26.077   6.081   6.167  1.00  0.00     0.007 C 
ENDBRANCH   8   9
ENDBRANCH   7   8
ENDBRANCH   1   6
TORSDOF 3
ENDMDL
MODEL 4
REMARK VINA RESULT: -6.575348590      0.849      4.851
REMARK  3 active torsions:
REMARK  status: ('A' for Active; 'I' for Inactive)
REMARK    1  A    between atoms: C2_2  and  C3_3 
REMARK    2  A    between atoms: C3_3  and  C4_4 
REMARK    3  A    between atoms: C5_5  and  C6_6 
ROOT
HETATM    1  C6  UNL     1      27.230   6.077   4.049  1.00  0.00     0.008 C 
HETATM    2  C7  UNL     1      25.873   5.407   4.256  1.00  0.00     0.008 C 
HETATM    3  C8  UNL     1      25.832   5.352   5.783  1.00  0.00     0.001 C 
HETATM    4  C9  UNL     1      26.187   6.801   6.117  1.00  0.00     0.001 C 
HETATM    5  C10 UNL     1      27.171   7.205   5.039  1.00  0.00     0.008 C 
ENDROOT
BRANCH   1   6
HETATM    6  C5  UNL     1      27.406   6.541   2.658  1.00  0.00    -0.026 C 
HETATM    7  C4  UNL     1      28.173   7.593   2.413  1.00  0.00    -0.026 C 
BRANCH   7   8
HETATM    8  C3  UNL     1      28.342   8.048   1.005  1.00  0.00     0.053 C 
BRANCH   8   9
HETATM    9  C2  UNL     1      27.635   9.354   0.869  1.00  0.00    -0.033 C 
HETATM   10  C1  UNL     1      27.510  10.151   1.924  1.00  0.00     0.007 C 
ENDBRANCH   8   9
ENDBRANCH   7   8
ENDBRANCH   1   6
TORSDOF 3
ENDMDL
MODEL 5
REMARK VINA RESULT: -6.535275472      0.986      4.725
REMARK  3 active torsions:
REMARK  status: ('A' for Active; 'I' for Inactive)
REMARK    1  A    between atoms: C2_2  and  C3_3 
REMARK    2  A    between atoms: C3_3  and  C4_4 
REMARK    3  A    between atoms: C5_5  and  C6_6 
ROOT
HETATM    1  C6  UNL     1      26.230   7.077   4.669  1.00  0.00     0.008 C 
HETATM    2  C7  UNL     1      26.585   6.616   6.080  1.00  0.00     0.008 C 
HETATM    3  C8  UNL     1      25.718   5.359   6.177  1.00  0.00     0.001 C 
HETATM    4  C9  UNL     1      26.105   4.663   4.873  1.00  0.00     0.001 C 
HETATM    5  C10 UNL     1      26.325   5.795   3.892  1.00  0.00     0.008 C 
ENDROOT
BRANCH   1   6
HETATM    6  C5  UNL     1      27.159   8.116   4.182  1.00  0.00    -0.026 C 
HETATM    7  C4  UNL     1      26.932   8.700   3.015  1.00  0.00    -0.026 C 
BRANCH   7   8
HETATM    8  C3  UNL     1      27.877   9.747   2.536  1.00  0.00     0.053 C 
BRANCH   8   9
HETATM    9  C2  UNL     1      27.745   9.826   1.053  1.00  0.00    -0.033 C 
HETATM   10  C1  UNL     1      27.285   8.781   0.374  1.00  0.00     0.007 C 
ENDBRANCH   8   9
ENDBRANCH   7   8
ENDBRANCH   1   6
TORSDOF 3
ENDMDL
