MODEL 1
REMARK VINA RESULT: -7.254079175      0.000      0.000
REMARK  3 active torsions:
REMARK  status: ('A' for Active; 'I' for Inactive)
REMARK    1  A    between atoms: C2_2  and  C3_3 
REMARK    2  A    between atoms: C4_4  and  C5_5 
REMARK    3  A    between atoms: C5_5  and  C6_6 
ROOT
HETATM    1  C6  UNL     1      26.612   7.206   4.755  1.00  0.00    -0.011 C 
HETATM    2  C7  UNL     1      26.599   6.561   6.139  1.00  0.00     0.005 C 
HETATM    3  C8  UNL     1      25.545   5.494   5.953  1.00  0.00     0.000 C 
HETATM    4  C9  UNL     1      25.942   4.887   4.625  1.00  0.00     0.000 C 
HETATM    5  C10 UNL     1      26.678   5.982   3.868  1.00  0.00     0.005 C 
ENDROOT
BRANCH   1   6
HETATM    6  C5  UNL     1      27.841   8.084   4.584  1.00  0.00     0.031 C 
BRANCH   6   7
HETATM    7  C4  UNL     1      28.061   8.414   3.175  1.00  0.00    -0.026 C 
HETATM    8  C3  UNL     1      27.400   9.389   2.567  1.00  0.00    -0.005 C 
BRANCH   8   9
HETATM    9  C2  UNL     1      27.609   9.722   1.179  1.00  0.00    -0.011 C 
HETATM   10  C1  UNL     1      27.291   8.878   0.236  1.00  0.00     0.011 C 
ENDBRANCH   8   9
ENDBRANCH   6   7
ENDBRANCH   1   6
TORSDOF 3
ENDMDL
MODEL 2
REMARK VINA RESULT: -7.028817529      0.715      4.619
REMARK  3 active torsions:
REMARK  status: ('A' for Active; 'I' for Inactive)
REMARK    1  A    between atoms: C2_2  and  C3_3 
REMARK    2  A    between atoms: C4_4  and  C5_5 
REMARK    3  A    between atoms: C5_5  and  C6_6 
ROOT
HETATM    1  C6  UNL     1      28.298   8.764   3.413  1.00  0.00    -0.011 C 
HETATM    2  C7  UNL     1      27.167   9.533   2.733  1.00  0.00     0.005 C 
HETATM    3  C8  UNL     1      27.621   9.503   1.291  1.00  0.00     0.000 C 
HETATM    4  C9  UNL     1      28.025   8.055   1.119  1.00  0.00     0.000 C 
HETATM    5  C10 UNL     1      28.415   7.561   2.503  1.00  0.00     0.005 C 
ENDROOT
BRANCH   1   6
HETATM    6  C5  UNL     1      27.897   8.358   4.823  1.00  0.00     0.031 C 
BRANCH   6   7
HETATM    7  C4  UNL     1      27.072   7.149   4.809  1.00  0.00    -0.026 C 
HETATM    8  C3  UNL     1      26.513   6.665   5.909  1.00  0.00    -0.005 C 
BRANCH   8   9
HETATM    9  C2  UNL     1      25.699   5.474   5.907  1.00  0.00    -0.011 C 
HETATM   10  C1  UNL     1      25.477   4.821   4.800  1.00  0.00     0.011 C 
ENDBRANCH   8   9
ENDBRANCH   6   7
ENDBRANCH   1   6
TORSDOF 3
ENDMDL
MODEL 3
REMARK VINA RESULT: -7.013341774      0.375      1.303
REMARK  3 active torsions:
REMARK  status: ('A' for Active; 'I' for Inactive)
REMARK    1  A    between atoms: C2_2  and  C3_3 
REMARK    2  A    between atoms: C4_4  and  C5_5 
REMARK    3  A    between atoms: C5_5  and  C6_6 
ROOT
HETATM    1  C6  UNL     1      27.180   6.836   4.924  1.00  0.00    -0.011 C 
HETATM    2  C7  UNL     1      26.360   6.054   3.900  1.00  0.00     0.005 C 
HETATM    3  C8  UNL     1      26.090   4.775   4.660  1.00  0.00     0.000 C 
HETATM    4  C9  UNL     1      25.671   5.297   6.017  1.00  0.00     0.000 C 
HETATM    5  C10 UNL     1      26.336   6.656   6.166  1.00  0.00     0.005 C 
ENDROOT
BRANCH   1   6
HETATM    6  C5  UNL     1      27.279   8.300   4.525  1.00  0.00     0.031 C 
BRANCH   6   7
HETATM    7  C4  UNL     1      27.681   8.439   3.125  1.00  0.00    -0.026 C 
HETATM    8  C3  UNL     1      27.318   9.479   2.386  1.00  0.00    -0.005 C 
BRANCH   8   9
HETATM    9  C2  UNL     1      27.708   9.625   1.006  1.00  0.00    -0.011 C 
HETATM   10  C1  UNL     1      27.224   8.834   0.089  1.00  0.00     0.011 C 
ENDBRANCH   8   9
ENDBRANCH   6   7
ENDBRANCH   1   6
TORSDOF 3
ENDMDL
MODEL 4
REMARK VINA RESULT: -6.791196993      0.909      4.802
REMARK  3 active torsions:
REMARK  status: ('A' for Active; 'I' for Inactive)
REMARK    1  A    between atoms: C2_2  and  C3_3 
REMARK    2  A    between atoms: C4_4  and  C5_5 
REMARK    3  A    between atoms: C5_5  and  C6_6 
ROOT
HETATM    1  C6  UNL     1      27.613   8.621   2.840  1.00  0.00    -0.011 C 
HETATM    2  C7  UNL     1      28.344   7.739   1.830  1.00  0.00     0.005 C 
HETATM    3  C8  UNL     1      27.608   8.085   0.555  1.00  0.00     0.000 C 
HETATM    4  C9  UNL     1      27.544   9.595   0.628  1.00  0.00     0.000 C 
HETATM    5  C10 UNL     1      27.599   9.945   2.107  1.00  0.00     0.005 C 
ENDROOT
BRANCH   1   6
HETATM    6  C5  UNL     1      28.397   8.712   4.138  1.00  0.00     0.031 C 
BRANCH   6   7
HETATM    7  C4  UNL     1      27.905   7.745   5.120  1.00  0.00    -0.026 C 
HETATM    8  C3  UNL     1      26.626   7.402   5.194  1.00  0.00    -0.005 C 
BRANCH   8   9
HETATM    9  C2  UNL     1      26.131   6.450   6.158  1.00  0.00    -0.011 C 
HETATM   10  C1  UNL     1      25.704   5.278   5.777  1.00  0.00     0.011 C 
ENDBRANCH   8   9
ENDBRANCH   6   7
ENDBRANCH   1   6
TORSDOF 3
ENDMDL
MODEL 5
REMARK VINA RESULT: -6.647285004      1.046      4.964
REMARK  3 active torsions:
REMARK  status: ('A' for Active; 'I' for Inactive)
REMARK    1  A    between atoms: C2_2  and  C3_3 
REMARK    2  A    between atoms: C4_4  and  C5_5 
REMARK    3  A    between atoms: C5_5  and  C6_6 
ROOT
HETATM    1  C6  UNL     1      28.260   7.779   2.150  1.00  0.00    -0.011 C 
HETATM    2  C7  UNL     1      27.287   8.744   2.825  1.00  0.00     0.005 C 
HETATM    3  C8  UNL     1      27.646  10.044   2.143  1.00  0.00     0.000 C 
HETATM    4  C9  UNL     1      27.720   9.628   0.690  1.00  0.00     0.000 C 
HETATM    5  C10 UNL     1      28.068   8.147   0.696  1.00  0.00     0.005 C 
ENDROOT
BRANCH   1   6
HETATM    6  C5  UNL     1      27.858   6.338   2.418  1.00  0.00     0.031 C 
BRANCH   6   7
HETATM    7  C4  UNL     1      27.062   6.231   3.641  1.00  0.00    -0.026 C 
HETATM    8  C3  UNL     1      26.288   5.184   3.890  1.00  0.00    -0.005 C 
BRANCH   8   9
HETATM    9  C2  UNL     1      25.499   5.068   5.092  1.00  0.00    -0.011 C 
HETATM   10  C1  UNL     1      25.815   5.742   6.163  1.00  0.00     0.011 C 
ENDBRANCH   8   9
ENDBRANCH   6   7
ENDBRANCH   1   6
TORSDOF 3
ENDMDL
