MODEL 1
REMARK VINA RESULT: -6.011912622      0.000      0.000
REMARK  3 active torsions:
REMARK  status: ('A' for Active; 'I' for Inactive)
REMARK    1  A    between atoms: C2_2  and  C3_3 
REMARK    2  A    between atoms: C4_4  and  C5_5 
REMARK    3  A    between atoms: C5_5  and  C6_6 
ROOT
HETATM    1  C5  UNL     1      27.641   7.987   2.731  1.00  0.00    -0.006 C 
HETATM    2  C8  UNL     1      26.639   9.109   2.561  1.00  0.00     0.017 C 
HETATM    3  C9  UNL     1      27.731   9.827   1.755  1.00  0.00     0.003 C 
HETATM    4  C10 UNL     1      28.233   8.446   1.391  1.00  0.00     0.017 C 
ENDROOT
BRANCH   1   5
HETATM    5  C4  UNL     1      28.562   8.159   3.850  1.00  0.00    -0.013 C 
HETATM    6  C3  UNL     1      28.189   8.112   5.087  1.00  0.00    -0.004 C 
BRANCH   6   7
HETATM    7  C2  UNL     1      26.820   7.882   5.495  1.00  0.00    -0.011 C 
HETATM    8  C1  UNL     1      26.479   6.785   6.198  1.00  0.00     0.011 C 
ENDBRANCH   6   7
ENDBRANCH   1   5
BRANCH   1   9
HETATM    9  C6  UNL     1      27.085   6.606   2.645  1.00  0.00    -0.023 C 
HETATM   10  C7  UNL     1      27.872   5.556   2.476  1.00  0.00     0.008 C 
ENDBRANCH   1   9
TORSDOF 3
ENDMDL
MODEL 2
REMARK VINA RESULT: -5.658557311      0.871      3.585
REMARK  3 active torsions:
REMARK  status: ('A' for Active; 'I' for Inactive)
REMARK    1  A    between atoms: C2_2  and  C3_3 
REMARK    2  A    between atoms: C4_4  and  C5_5 
REMARK    3  A    between atoms: C5_5  and  C6_6 
ROOT
HETATM    1  C5  UNL     1      27.431   7.816   3.447  1.00  0.00    -0.006 C 
HETATM    2  C8  UNL     1      28.805   8.095   4.017  1.00  0.00     0.017 C 
HETATM    3  C9  UNL     1      28.103   8.234   5.376  1.00  0.00     0.003 C 
HETATM    4  C10 UNL     1      27.077   7.261   4.834  1.00  0.00     0.017 C 
ENDROOT
BRANCH   1   5
HETATM    5  C4  UNL     1      26.664   9.008   3.097  1.00  0.00    -0.013 C 
HETATM    6  C3  UNL     1      26.848   9.671   2.003  1.00  0.00    -0.004 C 
BRANCH   6   7
HETATM    7  C2  UNL     1      27.832   9.304   1.008  1.00  0.00    -0.011 C 
HETATM    8  C1  UNL     1      27.463   8.985  -0.248  1.00  0.00     0.011 C 
ENDBRANCH   6   7
ENDBRANCH   1   5
BRANCH   1   9
HETATM    9  C6  UNL     1      27.370   6.759   2.397  1.00  0.00    -0.023 C 
HETATM   10  C7  UNL     1      27.326   5.475   2.715  1.00  0.00     0.008 C 
ENDBRANCH   1   9
TORSDOF 3
ENDMDL
MODEL 3
REMARK VINA RESULT: -5.596379920      1.262      2.726
REMARK  3 active torsions:
REMARK  status: ('A' for Active; 'I' for Inactive)
REMARK    1  A    between atoms: C2_2  and  C3_3 
REMARK    2  A    between atoms: C4_4  and  C5_5 
REMARK    3  A    between atoms: C5_5  and  C6_6 
ROOT
HETATM    1  C5  UNL     1      27.730   7.870   3.716  1.00  0.00    -0.006 C 
HETATM    2  C8  UNL     1      28.389   9.207   3.456  1.00  0.00     0.017 C 
HETATM    3  C9  UNL     1      27.271   9.446   2.431  1.00  0.00     0.003 C 
HETATM    4  C10 UNL     1      26.417   8.549   3.301  1.00  0.00     0.017 C 
ENDROOT
BRANCH   1   5
HETATM    5  C4  UNL     1      28.135   6.805   2.803  1.00  0.00    -0.013 C 
HETATM    6  C3  UNL     1      27.486   5.694   2.681  1.00  0.00    -0.004 C 
BRANCH   6   7
HETATM    7  C2  UNL     1      26.289   5.387   3.433  1.00  0.00    -0.011 C 
HETATM    8  C1  UNL     1      26.200   4.260   4.166  1.00  0.00     0.011 C 
ENDBRANCH   6   7
ENDBRANCH   1   5
BRANCH   1   9
HETATM    9  C6  UNL     1      27.698   7.431   5.140  1.00  0.00    -0.023 C 
HETATM   10  C7  UNL     1      26.654   7.680   5.914  1.00  0.00     0.008 C 
ENDBRANCH   1   9
TORSDOF 3
ENDMDL
MODEL 4
REMARK VINA RESULT: -5.575492686      1.123      3.062
REMARK  3 active torsions:
REMARK  status: ('A' for Active; 'I' for Inactive)
REMARK    1  A    between atoms: C2_2  and  C3_3 
REMARK    2  A    between atoms: C4_4  and  C5_5 
REMARK    3  A    between atoms: C5_5  and  C6_6 
ROOT
HETATM    1  C5  UNL     1      27.566   8.066   3.272  1.00  0.00    -0.006 C 
HETATM    2  C8  UNL     1      26.692   7.757   4.469  1.00  0.00     0.017 C 
HETATM    3  C9  UNL     1      27.968   7.904   5.312  1.00  0.00     0.003 C 
HETATM    4  C10 UNL     1      28.444   8.867   4.245  1.00  0.00     0.017 C 
ENDROOT
BRANCH   1   5
HETATM    5  C4  UNL     1      28.252   6.910   2.705  1.00  0.00    -0.013 C 
HETATM    6  C3  UNL     1      27.728   5.729   2.662  1.00  0.00    -0.004 C 
BRANCH   6   7
HETATM    7  C2  UNL     1      26.408   5.426   3.170  1.00  0.00    -0.011 C 
HETATM    8  C1  UNL     1      26.199   4.364   3.972  1.00  0.00     0.011 C 
ENDBRANCH   6   7
ENDBRANCH   1   5
BRANCH   1   9
HETATM    9  C6  UNL     1      26.952   8.943   2.234  1.00  0.00    -0.023 C 
HETATM   10  C7  UNL     1      27.590  10.002   1.762  1.00  0.00     0.008 C 
ENDBRANCH   1   9
TORSDOF 3
ENDMDL
MODEL 5
REMARK VINA RESULT: -5.528649411      0.554      2.415
REMARK  3 active torsions:
REMARK  status: ('A' for Active; 'I' for Inactive)
REMARK    1  A    between atoms: C2_2  and  C3_3 
REMARK    2  A    between atoms: C4_4  and  C5_5 
REMARK    3  A    between atoms: C5_5  and  C6_6 
ROOT
HETATM    1  C5  UNL     1      27.775   8.046   3.012  1.00  0.00    -0.006 C 
HETATM    2  C8  UNL     1      28.578   7.431   1.886  1.00  0.00     0.017 C 
HETATM    3  C9  UNL     1      28.128   6.071   2.442  1.00  0.00     0.003 C 
HETATM    4  C10 UNL     1      26.891   6.793   2.933  1.00  0.00     0.017 C 
ENDROOT
BRANCH   1   5
HETATM    5  C4  UNL     1      28.492   8.159   4.278  1.00  0.00    -0.013 C 
HETATM    6  C3  UNL     1      27.935   7.952   5.426  1.00  0.00    -0.004 C 
BRANCH   6   7
HETATM    7  C2  UNL     1      26.544   7.585   5.580  1.00  0.00    -0.011 C 
HETATM    8  C1  UNL     1      26.188   6.491   6.281  1.00  0.00     0.011 C 
ENDBRANCH   6   7
ENDBRANCH   1   5
BRANCH   1   9
HETATM    9  C6  UNL     1      27.015   9.280   2.663  1.00  0.00    -0.023 C 
HETATM   10  C7  UNL     1      27.470  10.138   1.765  1.00  0.00     0.008 C 
ENDBRANCH   1   9
TORSDOF 3
ENDMDL
