MODEL 1
REMARK VINA RESULT: -6.266151557      0.000      0.000
REMARK  3 active torsions:
REMARK  status: ('A' for Active; 'I' for Inactive)
REMARK    1  A    between atoms: C2_2  and  C3_3 
REMARK    2  A    between atoms: C3_3  and  C4_4 
REMARK    3  A    between atoms: C6_6  and  C7_7 
ROOT
HETATM    1  C3  UNL     1      26.394   5.910   3.965  1.00  0.00    -0.041 C 
HETATM    2  C6  UNL     1      26.809   7.158   4.198  1.00  0.00    -0.006 C 
ENDROOT
BRANCH   1   3
HETATM    3  C2  UNL     1      25.594   5.301   5.014  1.00  0.00     0.001 C 
HETATM    4  C1  UNL     1      25.672   5.286   6.293  1.00  0.00     0.012 C 
ENDBRANCH   1   3
BRANCH   1   5
HETATM    5  C4  UNL     1      26.724   5.245   2.758  1.00  0.00     0.001 C 
HETATM    6  C5  UNL     1      27.723   4.509   2.368  1.00  0.00     0.012 C 
ENDBRANCH   1   5
BRANCH   2   7
HETATM    7  C7  UNL     1      27.579   8.148   3.530  1.00  0.00    -0.025 A 
HETATM    8  C8  UNL     1      28.816   8.624   4.407  1.00  0.00     0.019 C 
HETATM    9  C9  UNL     1      27.016   9.223   2.722  1.00  0.00     0.014 A 
HETATM   10  C10 UNL     1      27.947   8.215   2.098  1.00  0.00     0.014 A 
ENDBRANCH   2   7
TORSDOF 3
ENDMDL
MODEL 2
REMARK VINA RESULT: -6.145843616      0.770      2.401
REMARK  3 active torsions:
REMARK  status: ('A' for Active; 'I' for Inactive)
REMARK    1  A    between atoms: C2_2  and  C3_3 
REMARK    2  A    between atoms: C3_3  and  C4_4 
REMARK    3  A    between atoms: C6_6  and  C7_7 
ROOT
HETATM    1  C3  UNL     1      26.707   5.794   3.707  1.00  0.00    -0.041 C 
HETATM    2  C6  UNL     1      27.389   6.815   3.181  1.00  0.00    -0.006 C 
ENDROOT
BRANCH   1   3
HETATM    3  C2  UNL     1      26.888   4.507   3.056  1.00  0.00     0.001 C 
HETATM    4  C1  UNL     1      27.528   4.124   2.015  1.00  0.00     0.012 C 
ENDBRANCH   1   3
BRANCH   1   5
HETATM    5  C4  UNL     1      25.870   5.980   4.835  1.00  0.00     0.001 C 
HETATM    6  C5  UNL     1      26.054   5.949   6.122  1.00  0.00     0.012 C 
ENDBRANCH   1   5
BRANCH   2   7
HETATM    7  C7  UNL     1      27.553   8.204   3.430  1.00  0.00    -0.025 A 
HETATM    8  C8  UNL     1      28.525   8.473   4.658  1.00  0.00     0.019 C 
HETATM    9  C9  UNL     1      26.484   9.190   3.333  1.00  0.00     0.014 A 
HETATM   10  C10 UNL     1      27.699   9.303   2.448  1.00  0.00     0.014 A 
ENDBRANCH   2   7
TORSDOF 3
ENDMDL
MODEL 3
REMARK VINA RESULT: -6.082165299      0.579      1.399
REMARK  3 active torsions:
REMARK  status: ('A' for Active; 'I' for Inactive)
REMARK    1  A    between atoms: C2_2  and  C3_3 
REMARK    2  A    between atoms: C3_3  and  C4_4 
REMARK    3  A    between atoms: C6_6  and  C7_7 
ROOT
HETATM    1  C3  UNL     1      26.378   5.810   4.107  1.00  0.00    -0.041 C 
HETATM    2  C6  UNL     1      26.851   7.005   4.469  1.00  0.00    -0.006 C 
ENDROOT
BRANCH   1   3
HETATM    3  C2  UNL     1      25.591   5.109   5.109  1.00  0.00     0.001 C 
HETATM    4  C1  UNL     1      25.511   5.187   6.385  1.00  0.00     0.012 C 
ENDBRANCH   1   3
BRANCH   1   5
HETATM    5  C4  UNL     1      26.637   5.283   2.818  1.00  0.00     0.001 C 
HETATM    6  C5  UNL     1      27.590   4.562   2.303  1.00  0.00     0.012 C 
ENDBRANCH   1   5
BRANCH   2   7
HETATM    7  C7  UNL     1      27.636   8.039   3.892  1.00  0.00    -0.025 A 
HETATM    8  C8  UNL     1      26.751   9.040   3.031  1.00  0.00     0.019 C 
HETATM    9  C9  UNL     1      28.971   7.850   3.337  1.00  0.00     0.014 A 
HETATM   10  C10 UNL     1      28.761   8.788   4.499  1.00  0.00     0.014 A 
ENDBRANCH   2   7
TORSDOF 3
ENDMDL
MODEL 4
REMARK VINA RESULT: -6.047202122      1.229      1.972
REMARK  3 active torsions:
REMARK  status: ('A' for Active; 'I' for Inactive)
REMARK    1  A    between atoms: C2_2  and  C3_3 
REMARK    2  A    between atoms: C3_3  and  C4_4 
REMARK    3  A    between atoms: C6_6  and  C7_7 
ROOT
HETATM    1  C3  UNL     1      27.386   7.265   3.698  1.00  0.00    -0.041 C 
HETATM    2  C6  UNL     1      27.388   8.460   3.101  1.00  0.00    -0.006 C 
ENDROOT
BRANCH   1   3
HETATM    3  C2  UNL     1      26.992   7.256   5.097  1.00  0.00     0.001 C 
HETATM    4  C1  UNL     1      26.258   6.481   5.805  1.00  0.00     0.012 C 
ENDBRANCH   1   3
BRANCH   1   5
HETATM    5  C4  UNL     1      27.747   6.094   2.988  1.00  0.00     0.001 C 
HETATM    6  C5  UNL     1      27.088   5.078   2.513  1.00  0.00     0.012 C 
ENDBRANCH   1   5
BRANCH   2   7
HETATM    7  C7  UNL     1      27.679   8.987   1.814  1.00  0.00    -0.025 A 
HETATM    8  C8  UNL     1      27.814  10.571   1.843  1.00  0.00     0.019 C 
HETATM    9  C9  UNL     1      27.099   8.495   0.571  1.00  0.00     0.014 A 
HETATM   10  C10 UNL     1      28.591   8.443   0.782  1.00  0.00     0.014 A 
ENDBRANCH   2   7
TORSDOF 3
ENDMDL
MODEL 5
REMARK VINA RESULT: -5.948369504      1.089      3.771
REMARK  3 active torsions:
REMARK  status: ('A' for Active; 'I' for Inactive)
REMARK    1  A    between atoms: C2_2  and  C3_3 
REMARK    2  A    between atoms: C3_3  and  C4_4 
REMARK    3  A    between atoms: C6_6  and  C7_7 
ROOT
HETATM    1  C3  UNL     1      27.560   7.033   3.065  1.00  0.00    -0.041 C 
HETATM    2  C6  UNL     1      26.787   7.152   4.147  1.00  0.00    -0.006 C 
ENDROOT
BRANCH   1   3
HETATM    3  C2  UNL     1      27.906   8.275   2.392  1.00  0.00     0.001 C 
HETATM    4  C1  UNL     1      27.330   9.414   2.286  1.00  0.00     0.012 C 
ENDBRANCH   1   3
BRANCH   1   5
HETATM    5  C4  UNL     1      28.007   5.763   2.624  1.00  0.00     0.001 C 
HETATM    6  C5  UNL     1      27.417   4.704   2.150  1.00  0.00     0.012 C 
ENDBRANCH   1   5
BRANCH   2   7
HETATM    7  C7  UNL     1      26.196   6.292   5.112  1.00  0.00    -0.025 A 
HETATM    8  C8  UNL     1      24.946   5.510   4.517  1.00  0.00     0.019 C 
HETATM    9  C9  UNL     1      26.031   6.624   6.521  1.00  0.00     0.014 A 
HETATM   10  C10 UNL     1      26.868   5.437   6.117  1.00  0.00     0.014 A 
ENDBRANCH   2   7
TORSDOF 3
ENDMDL
