MODEL 1
REMARK VINA RESULT: -6.513828525      0.000      0.000
REMARK  2 active torsions:
REMARK  status: ('A' for Active; 'I' for Inactive)
REMARK    1  A    between atoms: C2_2  and  C3_3 
REMARK    2  A    between atoms: C3_3  and  C6_6 
ROOT
HETATM    1  C6  UNL     1      26.681   7.010   4.206  1.00  0.00     0.018 C 
HETATM    2  C7  UNL     1      27.459   7.364   5.432  1.00  0.00     0.009 C 
HETATM    3  C8  UNL     1      26.405   7.173   6.526  1.00  0.00     0.001 C 
HETATM    4  C9  UNL     1      25.779   5.857   6.091  1.00  0.00     0.001 C 
HETATM    5  C10 UNL     1      25.775   5.894   4.587  1.00  0.00     0.009 C 
ENDROOT
BRANCH   1   6
HETATM    6  C3  UNL     1      27.511   6.762   2.999  1.00  0.00    -0.059 C 
HETATM    7  C4  UNL     1      27.778   7.831   2.245  1.00  0.00    -0.024 C 
HETATM    8  C5  UNL     1      27.284   9.152   2.588  1.00  0.00     0.036 C 
BRANCH   6   9
HETATM    9  C2  UNL     1      28.036   5.473   2.598  1.00  0.00    -0.003 C 
HETATM   10  C1  UNL     1      27.369   4.543   2.022  1.00  0.00     0.012 C 
ENDBRANCH   6   9
ENDBRANCH   1   6
TORSDOF 2
ENDMDL
MODEL 2
REMARK VINA RESULT: -6.439053419      0.651      2.653
REMARK  2 active torsions:
REMARK  status: ('A' for Active; 'I' for Inactive)
REMARK    1  A    between atoms: C2_2  and  C3_3 
REMARK    2  A    between atoms: C3_3  and  C6_6 
ROOT
HETATM    1  C6  UNL     1      27.093   6.483   4.516  1.00  0.00     0.018 C 
HETATM    2  C7  UNL     1      25.732   5.865   4.525  1.00  0.00     0.009 C 
HETATM    3  C8  UNL     1      25.574   5.501   6.003  1.00  0.00     0.001 C 
HETATM    4  C9  UNL     1      26.097   6.766   6.666  1.00  0.00     0.001 C 
HETATM    5  C10 UNL     1      27.224   7.240   5.788  1.00  0.00     0.009 C 
ENDROOT
BRANCH   1   6
HETATM    6  C3  UNL     1      27.411   7.256   3.288  1.00  0.00    -0.059 C 
HETATM    7  C4  UNL     1      27.728   6.535   2.210  1.00  0.00    -0.024 C 
HETATM    8  C5  UNL     1      27.758   5.084   2.241  1.00  0.00     0.036 C 
BRANCH   6   9
HETATM    9  C2  UNL     1      27.401   8.701   3.186  1.00  0.00    -0.003 C 
HETATM   10  C1  UNL     1      27.318   9.370   2.098  1.00  0.00     0.012 C 
ENDBRANCH   6   9
ENDBRANCH   1   6
TORSDOF 2
ENDMDL
MODEL 3
REMARK VINA RESULT: -6.301302717      1.168      3.506
REMARK  2 active torsions:
REMARK  status: ('A' for Active; 'I' for Inactive)
REMARK    1  A    between atoms: C2_2  and  C3_3 
REMARK    2  A    between atoms: C3_3  and  C6_6 
ROOT
HETATM    1  C6  UNL     1      27.507   7.743   3.441  1.00  0.00     0.018 C 
HETATM    2  C7  UNL     1      26.556   8.853   3.125  1.00  0.00     0.009 C 
HETATM    3  C8  UNL     1      27.404   9.720   2.190  1.00  0.00     0.001 C 
HETATM    4  C9  UNL     1      28.023   8.656   1.298  1.00  0.00     0.001 C 
HETATM    5  C10 UNL     1      28.277   7.478   2.198  1.00  0.00     0.009 C 
ENDROOT
BRANCH   1   6
HETATM    6  C3  UNL     1      26.875   6.548   4.057  1.00  0.00    -0.059 C 
HETATM    7  C4  UNL     1      26.589   6.644   5.358  1.00  0.00    -0.024 C 
HETATM    8  C5  UNL     1      26.878   7.846   6.118  1.00  0.00     0.036 C 
BRANCH   6   9
HETATM    9  C2  UNL     1      26.559   5.318   3.359  1.00  0.00    -0.003 C 
HETATM   10  C1  UNL     1      26.251   4.205   3.912  1.00  0.00     0.012 C 
ENDBRANCH   6   9
ENDBRANCH   1   6
TORSDOF 2
ENDMDL
MODEL 4
REMARK VINA RESULT: -6.276459346      1.294      2.715
REMARK  2 active torsions:
REMARK  status: ('A' for Active; 'I' for Inactive)
REMARK    1  A    between atoms: C2_2  and  C3_3 
REMARK    2  A    between atoms: C3_3  and  C6_6 
ROOT
HETATM    1  C6  UNL     1      27.388   6.430   3.558  1.00  0.00     0.018 C 
HETATM    2  C7  UNL     1      27.143   5.230   2.701  1.00  0.00     0.009 C 
HETATM    3  C8  UNL     1      26.428   4.297   3.683  1.00  0.00     0.001 C 
HETATM    4  C9  UNL     1      25.458   5.265   4.341  1.00  0.00     0.001 C 
HETATM    5  C10 UNL     1      26.201   6.570   4.442  1.00  0.00     0.009 C 
ENDROOT
BRANCH   1   6
HETATM    6  C3  UNL     1      27.763   7.656   2.808  1.00  0.00    -0.059 C 
HETATM    7  C4  UNL     1      28.321   8.633   3.528  1.00  0.00    -0.024 C 
HETATM    8  C5  UNL     1      28.546   8.499   4.956  1.00  0.00     0.036 C 
BRANCH   6   9
HETATM    9  C2  UNL     1      27.568   7.857   1.387  1.00  0.00    -0.003 C 
HETATM   10  C1  UNL     1      27.581   8.987   0.785  1.00  0.00     0.012 C 
ENDBRANCH   6   9
ENDBRANCH   1   6
TORSDOF 2
ENDMDL
MODEL 5
REMARK VINA RESULT: -6.274918653      0.974      4.147
REMARK  2 active torsions:
REMARK  status: ('A' for Active; 'I' for Inactive)
REMARK    1  A    between atoms: C2_2  and  C3_3 
REMARK    2  A    between atoms: C3_3  and  C6_6 
ROOT
HETATM    1  C6  UNL     1      27.144   7.805   2.586  1.00  0.00     0.018 C 
HETATM    2  C7  UNL     1      28.427   7.822   1.819  1.00  0.00     0.009 C 
HETATM    3  C8  UNL     1      28.186   8.984   0.851  1.00  0.00     0.001 C 
HETATM    4  C9  UNL     1      27.574  10.013   1.789  1.00  0.00     0.001 C 
HETATM    5  C10 UNL     1      26.732   9.224   2.754  1.00  0.00     0.009 C 
ENDROOT
BRANCH   1   6
HETATM    6  C3  UNL     1      27.186   7.009   3.840  1.00  0.00    -0.059 C 
HETATM    7  C4  UNL     1      27.090   5.686   3.695  1.00  0.00    -0.024 C 
HETATM    8  C5  UNL     1      26.953   5.067   2.389  1.00  0.00     0.036 C 
BRANCH   6   9
HETATM    9  C2  UNL     1      27.320   7.560   5.173  1.00  0.00    -0.003 C 
HETATM   10  C1  UNL     1      26.682   7.164   6.210  1.00  0.00     0.012 C 
ENDBRANCH   6   9
ENDBRANCH   1   6
TORSDOF 2
ENDMDL
