MODEL 1
REMARK VINA RESULT: -6.480103420      0.000      0.000
REMARK  0 active torsions:
REMARK  status: ('A' for Active; 'I' for Inactive)
ROOT
HETATM    1  C1  UNL     1      27.060   4.998   2.932  1.00  0.00     0.001 C 
HETATM    2  C2  UNL     1      26.293   4.338   4.037  1.00  0.00     0.005 C 
HETATM    3  C3  UNL     1      25.594   5.469   4.746  1.00  0.00    -0.005 C 
HETATM    4  C4  UNL     1      25.867   5.485   6.247  1.00  0.00     0.011 C 
HETATM    5  C5  UNL     1      26.971   6.474   5.977  1.00  0.00    -0.005 A 
HETATM    6  C6  UNL     1      26.528   7.799   5.451  1.00  0.00     0.015 A 
HETATM    7  C7  UNL     1      26.490   6.630   4.580  1.00  0.00    -0.033 A 
HETATM    8  C8  UNL     1      27.375   6.416   3.406  1.00  0.00     0.010 C 
ENDROOT
TORSDOF 0
ENDMDL
MODEL 2
REMARK VINA RESULT: -6.363577105      0.918      1.250
REMARK  0 active torsions:
REMARK  status: ('A' for Active; 'I' for Inactive)
ROOT
HETATM    1  C1  UNL     1      26.380   4.351   3.967  1.00  0.00     0.001 C 
HETATM    2  C2  UNL     1      26.059   4.722   5.382  1.00  0.00     0.005 C 
HETATM    3  C3  UNL     1      25.693   6.183   5.321  1.00  0.00    -0.005 C 
HETATM    4  C4  UNL     1      26.498   7.035   6.297  1.00  0.00     0.011 C 
HETATM    5  C5  UNL     1      27.446   7.332   5.165  1.00  0.00    -0.005 A 
HETATM    6  C6  UNL     1      26.870   8.123   4.038  1.00  0.00     0.015 A 
HETATM    7  C7  UNL     1      26.490   6.725   4.204  1.00  0.00    -0.033 A 
HETATM    8  C8  UNL     1      26.877   5.625   3.284  1.00  0.00     0.010 C 
ENDROOT
TORSDOF 0
ENDMDL
MODEL 3
REMARK VINA RESULT: -6.309522694      0.879      1.128
REMARK  0 active torsions:
REMARK  status: ('A' for Active; 'I' for Inactive)
ROOT
HETATM    1  C1  UNL     1      27.772   6.517   2.832  1.00  0.00     0.001 C 
HETATM    2  C2  UNL     1      26.808   5.393   3.060  1.00  0.00     0.005 C 
HETATM    3  C3  UNL     1      25.839   5.921   4.086  1.00  0.00    -0.005 C 
HETATM    4  C4  UNL     1      25.703   5.003   5.297  1.00  0.00     0.011 C 
HETATM    5  C5  UNL     1      26.736   5.854   5.986  1.00  0.00    -0.005 A 
HETATM    6  C6  UNL     1      26.322   7.260   6.270  1.00  0.00     0.015 A 
HETATM    7  C7  UNL     1      26.630   6.863   4.901  1.00  0.00    -0.033 A 
HETATM    8  C8  UNL     1      27.810   7.327   4.128  1.00  0.00     0.010 C 
ENDROOT
TORSDOF 0
ENDMDL
MODEL 4
REMARK VINA RESULT: -6.103400588      0.908      2.195
REMARK  0 active torsions:
REMARK  status: ('A' for Active; 'I' for Inactive)
ROOT
HETATM    1  C1  UNL     1      27.762   7.698   4.187  1.00  0.00     0.001 C 
HETATM    2  C2  UNL     1      27.407   6.533   3.314  1.00  0.00     0.005 C 
HETATM    3  C3  UNL     1      26.114   6.008   3.882  1.00  0.00    -0.005 C 
HETATM    4  C4  UNL     1      26.171   4.517   4.200  1.00  0.00     0.011 C 
HETATM    5  C5  UNL     1      26.520   4.891   5.617  1.00  0.00    -0.005 A 
HETATM    6  C6  UNL     1      25.451   5.609   6.371  1.00  0.00     0.015 A 
HETATM    7  C7  UNL     1      26.186   6.309   5.325  1.00  0.00    -0.033 A 
HETATM    8  C8  UNL     1      27.147   7.417   5.558  1.00  0.00     0.010 C 
ENDROOT
TORSDOF 0
ENDMDL
MODEL 5
REMARK VINA RESULT: -6.098820664      0.793      2.973
REMARK  0 active torsions:
REMARK  status: ('A' for Active; 'I' for Inactive)
ROOT
HETATM    1  C1  UNL     1      25.973   5.599   6.047  1.00  0.00     0.001 C 
HETATM    2  C2  UNL     1      26.664   6.903   5.786  1.00  0.00     0.005 C 
HETATM    3  C3  UNL     1      26.509   7.129   4.305  1.00  0.00    -0.005 C 
HETATM    4  C4  UNL     1      27.839   7.388   3.604  1.00  0.00     0.011 C 
HETATM    5  C5  UNL     1      27.882   5.920   3.270  1.00  0.00    -0.005 A 
HETATM    6  C6  UNL     1      26.816   5.444   2.340  1.00  0.00     0.015 A 
HETATM    7  C7  UNL     1      26.473   5.776   3.718  1.00  0.00    -0.033 A 
HETATM    8  C8  UNL     1      26.065   4.791   4.753  1.00  0.00     0.010 C 
ENDROOT
TORSDOF 0
ENDMDL
