MODEL 1
REMARK VINA RESULT: -6.330087317      0.000      0.000
REMARK  1 active torsions:
REMARK  status: ('A' for Active; 'I' for Inactive)
REMARK    1  A    between atoms: O1_1  and  C1_3 
ROOT
HETATM    1  C1  UNL     1      27.644   7.411   4.218  1.00  0.00     0.040 C 
HETATM    2  C2  UNL     1      27.781   6.786   2.834  1.00  0.00     0.075 C 
HETATM    3  C3  UNL     1      27.024   5.405   2.798  1.00  0.00     0.086 C 
HETATM    4  C4  UNL     1      26.424   5.281   4.061  1.00  0.00    -0.182 C 
HETATM    5  C5  UNL     1      25.798   5.140   5.305  1.00  0.00     0.083 C 
HETATM    6  C6  UNL     1      26.229   6.394   6.139  1.00  0.00     0.041 C 
HETATM    7  C7  UNL     1      26.689   7.534   5.280  1.00  0.00     0.006 C 
ENDROOT
BRANCH   1   8
HETATM    8  O1  UNL     1      28.864   8.051   4.463  1.00  0.00    -0.365 OA
ATOM      9  H1  UNL     1      29.530   7.386   4.336  1.00  0.00     0.217 HD
ENDBRANCH   1   8
TORSDOF 1
ENDMDL
MODEL 2
REMARK VINA RESULT: -6.258765157      1.812      3.516
REMARK  1 active torsions:
REMARK  status: ('A' for Active; 'I' for Inactive)
REMARK    1  A    between atoms: O1_1  and  C1_3 
ROOT
HETATM    1  C1  UNL     1      26.230   5.203   4.334  1.00  0.00     0.040 C 
HETATM    2  C2  UNL     1      25.676   5.496   5.724  1.00  0.00     0.075 C 
HETATM    3  C3  UNL     1      26.338   6.808   6.294  1.00  0.00     0.086 C 
HETATM    4  C4  UNL     1      27.163   7.281   5.262  1.00  0.00    -0.182 C 
HETATM    5  C5  UNL     1      27.979   7.787   4.242  1.00  0.00     0.083 C 
HETATM    6  C6  UNL     1      27.885   6.751   3.072  1.00  0.00     0.041 C 
HETATM    7  C7  UNL     1      26.657   5.892   3.153  1.00  0.00     0.006 C 
ENDROOT
BRANCH   1   8
HETATM    8  O1  UNL     1      26.319   3.809   4.253  1.00  0.00    -0.365 OA
ATOM      9  H1  UNL     1      25.754   3.476   4.940  1.00  0.00     0.217 HD
ENDBRANCH   1   8
TORSDOF 1
ENDMDL
MODEL 3
REMARK VINA RESULT: -6.186308430      0.823      1.073
REMARK  1 active torsions:
REMARK  status: ('A' for Active; 'I' for Inactive)
REMARK    1  A    between atoms: O1_1  and  C1_3 
ROOT
HETATM    1  C1  UNL     1      27.377   6.768   3.752  1.00  0.00     0.040 C 
HETATM    2  C2  UNL     1      27.135   5.554   2.863  1.00  0.00     0.075 C 
HETATM    3  C3  UNL     1      26.398   4.431   3.685  1.00  0.00     0.086 C 
HETATM    4  C4  UNL     1      26.161   4.995   4.948  1.00  0.00    -0.182 C 
HETATM    5  C5  UNL     1      25.894   5.540   6.210  1.00  0.00     0.083 C 
HETATM    6  C6  UNL     1      26.533   6.969   6.198  1.00  0.00     0.041 C 
HETATM    7  C7  UNL     1      26.743   7.500   4.810  1.00  0.00     0.006 C 
ENDROOT
BRANCH   1   8
HETATM    8  O1  UNL     1      28.617   7.282   3.358  1.00  0.00    -0.365 OA
ATOM      9  H1  UNL     1      28.761   8.047   3.902  1.00  0.00     0.217 HD
ENDBRANCH   1   8
TORSDOF 1
ENDMDL
MODEL 4
REMARK VINA RESULT: -6.022998024      1.986      2.764
REMARK  1 active torsions:
REMARK  status: ('A' for Active; 'I' for Inactive)
REMARK    1  A    between atoms: O1_1  and  C1_3 
ROOT
HETATM    1  C1  UNL     1      26.077   5.243   4.691  1.00  0.00     0.040 C 
HETATM    2  C2  UNL     1      26.659   4.903   3.323  1.00  0.00     0.075 C 
HETATM    3  C3  UNL     1      27.550   6.098   2.813  1.00  0.00     0.086 C 
HETATM    4  C4  UNL     1      27.543   7.035   3.858  1.00  0.00    -0.182 C 
HETATM    5  C5  UNL     1      27.570   7.978   4.893  1.00  0.00     0.083 C 
HETATM    6  C6  UNL     1      26.635   7.406   6.011  1.00  0.00     0.041 C 
HETATM    7  C7  UNL     1      26.436   5.923   5.901  1.00  0.00     0.006 C 
ENDROOT
BRANCH   1   8
HETATM    8  O1  UNL     1      24.793   4.686   4.702  1.00  0.00    -0.365 OA
ATOM      9  H1  UNL     1      24.256   5.274   4.185  1.00  0.00     0.217 HD
ENDBRANCH   1   8
TORSDOF 1
ENDMDL
MODEL 5
REMARK VINA RESULT: -5.935890998      1.690      3.270
REMARK  1 active torsions:
REMARK  status: ('A' for Active; 'I' for Inactive)
REMARK    1  A    between atoms: O1_1  and  C1_3 
ROOT
HETATM    1  C1  UNL     1      26.243   5.985   5.200  1.00  0.00     0.040 C 
HETATM    2  C2  UNL     1      26.694   7.299   5.827  1.00  0.00     0.075 C 
HETATM    3  C3  UNL     1      27.717   8.021   4.871  1.00  0.00     0.086 C 
HETATM    4  C4  UNL     1      27.788   7.209   3.728  1.00  0.00    -0.182 C 
HETATM    5  C5  UNL     1      27.864   6.428   2.569  1.00  0.00     0.083 C 
HETATM    6  C6  UNL     1      26.952   5.183   2.837  1.00  0.00     0.041 C 
HETATM    7  C7  UNL     1      25.938   5.427   3.915  1.00  0.00     0.006 C 
ENDROOT
BRANCH   1   8
HETATM    8  O1  UNL     1      26.097   5.090   6.266  1.00  0.00    -0.365 OA
ATOM      9  H1  UNL     1      26.516   4.286   5.984  1.00  0.00     0.217 HD
ENDBRANCH   1   8
TORSDOF 1
ENDMDL
