MODEL 1
REMARK VINA RESULT: -4.504934336      0.000      0.000
REMARK  0 active torsions:
REMARK  status: ('A' for Active; 'I' for Inactive)
ROOT
HETATM    1  C1  UNL     1      27.524   7.901   5.166  1.00  0.00     0.010 C 
HETATM    2  C2  UNL     1      26.739   7.507   3.894  1.00  0.00    -0.010 C 
HETATM    3  C3  UNL     1      26.295   8.954   3.591  1.00  0.00     0.010 C 
HETATM    4  C4  UNL     1      27.738   9.409   3.270  1.00  0.00    -0.010 C 
HETATM    5  C5  UNL     1      27.841   8.461   2.052  1.00  0.00     0.010 C 
HETATM    6  C6  UNL     1      27.841   7.196   2.942  1.00  0.00    -0.010 C 
HETATM    7  C7  UNL     1      29.160   7.579   3.643  1.00  0.00     0.010 C 
HETATM    8  C8  UNL     1      28.514   8.780   4.371  1.00  0.00    -0.010 C 
ENDROOT
TORSDOF 0
ENDMDL
MODEL 2
REMARK VINA RESULT: -4.502791727      0.040      2.482
REMARK  0 active torsions:
REMARK  status: ('A' for Active; 'I' for Inactive)
ROOT
HETATM    1  C1  UNL     1      27.844   8.445   2.039  1.00  0.00     0.010 C 
HETATM    2  C2  UNL     1      27.845   7.206   2.962  1.00  0.00    -0.010 C 
HETATM    3  C3  UNL     1      29.153   7.607   3.676  1.00  0.00     0.010 C 
HETATM    4  C4  UNL     1      28.497   8.835   4.348  1.00  0.00    -0.010 C 
HETATM    5  C5  UNL     1      27.521   7.955   5.164  1.00  0.00     0.010 C 
HETATM    6  C6  UNL     1      26.736   7.525   3.902  1.00  0.00    -0.010 C 
HETATM    7  C7  UNL     1      26.281   8.965   3.585  1.00  0.00     0.010 C 
HETATM    8  C8  UNL     1      27.714   9.421   3.228  1.00  0.00    -0.010 C 
ENDROOT
TORSDOF 0
ENDMDL
MODEL 3
REMARK VINA RESULT: -4.497317882      0.664      2.070
REMARK  0 active torsions:
REMARK  status: ('A' for Active; 'I' for Inactive)
ROOT
HETATM    1  C1  UNL     1      27.275   6.470   3.313  1.00  0.00     0.010 C 
HETATM    2  C2  UNL     1      28.547   7.306   3.049  1.00  0.00    -0.010 C 
HETATM    3  C3  UNL     1      27.829   8.294   2.104  1.00  0.00     0.010 C 
HETATM    4  C4  UNL     1      26.971   8.881   3.248  1.00  0.00    -0.010 C 
HETATM    5  C5  UNL     1      28.211   9.432   3.990  1.00  0.00     0.010 C 
HETATM    6  C6  UNL     1      28.719   8.015   4.346  1.00  0.00    -0.010 C 
HETATM    7  C7  UNL     1      27.480   7.688   5.204  1.00  0.00     0.010 C 
HETATM    8  C8  UNL     1      26.542   7.657   3.975  1.00  0.00    -0.010 C 
ENDROOT
TORSDOF 0
ENDMDL
MODEL 4
REMARK VINA RESULT: -4.480936814      0.669      2.054
REMARK  0 active torsions:
REMARK  status: ('A' for Active; 'I' for Inactive)
ROOT
HETATM    1  C1  UNL     1      28.229   9.437   3.988  1.00  0.00     0.010 C 
HETATM    2  C2  UNL     1      28.720   8.017   4.347  1.00  0.00    -0.010 C 
HETATM    3  C3  UNL     1      27.475   7.687   5.198  1.00  0.00     0.010 C 
HETATM    4  C4  UNL     1      26.541   7.688   3.966  1.00  0.00    -0.010 C 
HETATM    5  C5  UNL     1      27.266   6.480   3.327  1.00  0.00     0.010 C 
HETATM    6  C6  UNL     1      28.549   7.300   3.054  1.00  0.00    -0.010 C 
HETATM    7  C7  UNL     1      27.831   8.272   2.095  1.00  0.00     0.010 C 
HETATM    8  C8  UNL     1      26.994   8.899   3.233  1.00  0.00    -0.010 C 
ENDROOT
TORSDOF 0
ENDMDL
MODEL 5
REMARK VINA RESULT: -4.457503072      0.692      1.979
REMARK  0 active torsions:
REMARK  status: ('A' for Active; 'I' for Inactive)
ROOT
HETATM    1  C1  UNL     1      27.136   6.473   3.364  1.00  0.00     0.010 C 
HETATM    2  C2  UNL     1      26.551   7.741   4.023  1.00  0.00    -0.010 C 
HETATM    3  C3  UNL     1      27.564   7.732   5.188  1.00  0.00     0.010 C 
HETATM    4  C4  UNL     1      28.754   8.055   4.253  1.00  0.00    -0.010 C 
HETATM    5  C5  UNL     1      28.171   9.436   3.872  1.00  0.00     0.010 C 
HETATM    6  C6  UNL     1      26.998   8.806   3.084  1.00  0.00    -0.010 C 
HETATM    7  C7  UNL     1      27.932   8.134   2.056  1.00  0.00     0.010 C 
HETATM    8  C8  UNL     1      28.500   7.148   3.103  1.00  0.00    -0.010 C 
ENDROOT
TORSDOF 0
ENDMDL
