MODEL 1
REMARK VINA RESULT: -6.136994161      0.000      0.000
REMARK  0 active torsions:
REMARK  status: ('A' for Active; 'I' for Inactive)
ROOT
HETATM    1  C1  UNL     1      26.027   6.387   6.291  1.00  0.00     0.001 C 
HETATM    2  C2  UNL     1      27.058   6.939   5.362  1.00  0.00     0.005 C 
HETATM    3  C3  UNL     1      26.469   6.752   3.959  1.00  0.00    -0.006 C 
HETATM    4  C4  UNL     1      25.682   5.475   4.080  1.00  0.00    -0.006 C 
HETATM    5  C5  UNL     1      25.464   5.219   5.547  1.00  0.00     0.005 C 
HETATM    6  C6  UNL     1      26.894   4.768   3.486  1.00  0.00    -0.005 A 
HETATM    7  C7  UNL     1      27.181   5.093   2.080  1.00  0.00     0.010 A 
HETATM    8  C8  UNL     1      27.485   6.144   3.059  1.00  0.00    -0.005 A 
ENDROOT
TORSDOF 0
ENDMDL
MODEL 2
REMARK VINA RESULT: -6.097868836      0.500      3.262
REMARK  0 active torsions:
REMARK  status: ('A' for Active; 'I' for Inactive)
ROOT
HETATM    1  C1  UNL     1      27.130   4.801   2.623  1.00  0.00     0.001 C 
HETATM    2  C2  UNL     1      26.409   4.313   3.836  1.00  0.00     0.005 C 
HETATM    3  C3  UNL     1      25.640   5.531   4.360  1.00  0.00    -0.006 C 
HETATM    4  C4  UNL     1      26.545   6.685   4.020  1.00  0.00    -0.006 C 
HETATM    5  C5  UNL     1      27.517   6.202   2.978  1.00  0.00     0.005 C 
HETATM    6  C6  UNL     1      27.057   6.599   5.453  1.00  0.00    -0.005 A 
HETATM    7  C7  UNL     1      26.079   6.967   6.490  1.00  0.00     0.010 A 
HETATM    8  C8  UNL     1      25.857   5.678   5.824  1.00  0.00    -0.005 A 
ENDROOT
TORSDOF 0
ENDMDL
MODEL 3
REMARK VINA RESULT: -5.986048995      1.208      2.658
REMARK  0 active torsions:
REMARK  status: ('A' for Active; 'I' for Inactive)
ROOT
HETATM    1  C1  UNL     1      25.360   5.290   5.248  1.00  0.00     0.001 C 
HETATM    2  C2  UNL     1      25.791   5.916   3.963  1.00  0.00     0.005 C 
HETATM    3  C3  UNL     1      27.192   6.471   4.241  1.00  0.00    -0.006 C 
HETATM    4  C4  UNL     1      27.120   6.886   5.687  1.00  0.00    -0.006 C 
HETATM    5  C5  UNL     1      25.932   6.191   6.295  1.00  0.00     0.005 C 
HETATM    6  C6  UNL     1      26.841   8.297   5.183  1.00  0.00    -0.005 A 
HETATM    7  C7  UNL     1      27.965   8.948   4.491  1.00  0.00     0.010 A 
HETATM    8  C8  UNL     1      27.290   7.873   3.753  1.00  0.00    -0.005 A 
ENDROOT
TORSDOF 0
ENDMDL
MODEL 4
REMARK VINA RESULT: -5.969237245      2.177      3.969
REMARK  0 active torsions:
REMARK  status: ('A' for Active; 'I' for Inactive)
ROOT
HETATM    1  C1  UNL     1      28.025   8.782   1.351  1.00  0.00     0.001 C 
HETATM    2  C2  UNL     1      27.420   9.510   2.506  1.00  0.00     0.005 C 
HETATM    3  C3  UNL     1      28.090   8.913   3.749  1.00  0.00    -0.006 C 
HETATM    4  C4  UNL     1      28.317   7.475   3.364  1.00  0.00    -0.006 C 
HETATM    5  C5  UNL     1      28.212   7.390   1.865  1.00  0.00     0.005 C 
HETATM    6  C6  UNL     1      27.027   7.158   4.109  1.00  0.00    -0.005 A 
HETATM    7  C7  UNL     1      27.086   7.341   5.569  1.00  0.00     0.010 A 
HETATM    8  C8  UNL     1      27.060   8.570   4.766  1.00  0.00    -0.005 A 
ENDROOT
TORSDOF 0
ENDMDL
MODEL 5
REMARK VINA RESULT: -5.944591968      1.031      1.456
REMARK  0 active torsions:
REMARK  status: ('A' for Active; 'I' for Inactive)
ROOT
HETATM    1  C1  UNL     1      25.949   5.940   6.100  1.00  0.00     0.001 C 
HETATM    2  C2  UNL     1      26.917   7.066   5.943  1.00  0.00     0.005 C 
HETATM    3  C3  UNL     1      26.673   7.607   4.530  1.00  0.00    -0.006 C 
HETATM    4  C4  UNL     1      26.295   6.377   3.748  1.00  0.00    -0.006 C 
HETATM    5  C5  UNL     1      25.903   5.316   4.741  1.00  0.00     0.005 C 
HETATM    6  C6  UNL     1      27.749   6.317   3.296  1.00  0.00    -0.005 A 
HETATM    7  C7  UNL     1      28.174   7.411   2.408  1.00  0.00     0.010 A 
HETATM    8  C8  UNL     1      27.969   7.768   3.817  1.00  0.00    -0.005 A 
ENDROOT
TORSDOF 0
ENDMDL
