MODEL 1
REMARK VINA RESULT: -5.175403484      0.000      0.000
REMARK  0 active torsions:
REMARK  status: ('A' for Active; 'I' for Inactive)
ROOT
HETATM    1  C1  UNL     1      26.643   6.628   6.142  1.00  0.00     0.005 C 
HETATM    2  C2  UNL     1      26.950   7.212   4.810  1.00  0.00     0.032 C 
HETATM    3  C3  UNL     1      26.338   6.509   3.650  1.00  0.00     0.122 C 
HETATM    4  C4  UNL     1      27.021   5.255   3.236  1.00  0.00     0.034 C 
HETATM    5  C5  UNL     1      26.382   4.206   4.100  1.00  0.00     0.034 C 
HETATM    6  C6  UNL     1      25.277   5.014   4.785  1.00  0.00     0.122 C 
HETATM    7  C7  UNL     1      25.819   5.400   6.136  1.00  0.00     0.032 C 
HETATM    8  O1  UNL     1      25.052   6.119   3.980  1.00  0.00    -0.381 OA
ENDROOT
TORSDOF 0
ENDMDL
MODEL 2
REMARK VINA RESULT: -5.133584916      0.523      2.739
REMARK  0 active torsions:
REMARK  status: ('A' for Active; 'I' for Inactive)
ROOT
HETATM    1  C1  UNL     1      27.305   5.143   3.093  1.00  0.00     0.005 C 
HETATM    2  C2  UNL     1      26.373   4.254   3.834  1.00  0.00     0.032 C 
HETATM    3  C3  UNL     1      25.474   4.937   4.802  1.00  0.00     0.122 C 
HETATM    4  C4  UNL     1      26.105   5.320   6.094  1.00  0.00     0.034 C 
HETATM    5  C5  UNL     1      26.689   6.674   5.811  1.00  0.00     0.034 C 
HETATM    6  C6  UNL     1      26.147   6.947   4.405  1.00  0.00     0.122 C 
HETATM    7  C7  UNL     1      27.253   6.577   3.453  1.00  0.00     0.032 C 
HETATM    8  O1  UNL     1      25.038   6.131   4.254  1.00  0.00    -0.381 OA
ENDROOT
TORSDOF 0
ENDMDL
MODEL 3
REMARK VINA RESULT: -5.044148763      2.498      3.658
REMARK  0 active torsions:
REMARK  status: ('A' for Active; 'I' for Inactive)
ROOT
HETATM    1  C1  UNL     1      26.506   6.956   4.447  1.00  0.00     0.005 C 
HETATM    2  C2  UNL     1      27.322   6.334   3.371  1.00  0.00     0.032 C 
HETATM    3  C3  UNL     1      28.413   7.185   2.826  1.00  0.00     0.122 C 
HETATM    4  C4  UNL     1      27.979   8.233   1.864  1.00  0.00     0.034 C 
HETATM    5  C5  UNL     1      27.629   9.396   2.747  1.00  0.00     0.034 C 
HETATM    6  C6  UNL     1      28.085   8.882   4.115  1.00  0.00     0.122 C 
HETATM    7  C7  UNL     1      26.850   8.352   4.795  1.00  0.00     0.032 C 
HETATM    8  O1  UNL     1      29.009   7.881   3.862  1.00  0.00    -0.381 OA
ENDROOT
TORSDOF 0
ENDMDL
MODEL 4
REMARK VINA RESULT: -4.886458210      2.787      4.023
REMARK  0 active torsions:
REMARK  status: ('A' for Active; 'I' for Inactive)
ROOT
HETATM    1  C1  UNL     1      27.849   8.846   1.437  1.00  0.00     0.005 C 
HETATM    2  C2  UNL     1      27.554   9.639   2.659  1.00  0.00     0.032 C 
HETATM    3  C3  UNL     1      27.766   8.927   3.947  1.00  0.00     0.122 C 
HETATM    4  C4  UNL     1      26.691   7.973   4.330  1.00  0.00     0.034 C 
HETATM    5  C5  UNL     1      27.099   6.695   3.654  1.00  0.00     0.034 C 
HETATM    6  C6  UNL     1      28.477   7.073   3.103  1.00  0.00     0.122 C 
HETATM    7  C7  UNL     1      28.262   7.443   1.659  1.00  0.00     0.032 C 
HETATM    8  O1  UNL     1      28.910   8.153   3.857  1.00  0.00    -0.381 OA
ENDROOT
TORSDOF 0
ENDMDL
MODEL 5
REMARK VINA RESULT: -4.636680358      1.774      3.606
REMARK  0 active torsions:
REMARK  status: ('A' for Active; 'I' for Inactive)
ROOT
HETATM    1  C1  UNL     1      27.823   6.278   2.590  1.00  0.00     0.005 C 
HETATM    2  C2  UNL     1      26.835   6.019   3.669  1.00  0.00     0.032 C 
HETATM    3  C3  UNL     1      26.437   7.207   4.469  1.00  0.00     0.122 C 
HETATM    4  C4  UNL     1      27.419   7.637   5.500  1.00  0.00     0.034 C 
HETATM    5  C5  UNL     1      28.337   8.556   4.747  1.00  0.00     0.034 C 
HETATM    6  C6  UNL     1      27.626   8.651   3.395  1.00  0.00     0.122 C 
HETATM    7  C7  UNL     1      28.320   7.668   2.489  1.00  0.00     0.032 C 
HETATM    8  O1  UNL     1      26.306   8.299   3.629  1.00  0.00    -0.381 OA
ENDROOT
TORSDOF 0
ENDMDL
