MODEL 1
REMARK VINA RESULT: -6.330282077      0.000      0.000
REMARK  11 active torsions:
REMARK  status: ('A' for Active; 'I' for Inactive)
REMARK    1  A    between atoms: N2_6  and  C4_8 
REMARK    2  A    between atoms: C4_8  and  C5_9 
REMARK    3  A    between atoms: C5_9  and  C6_10 
REMARK    4  A    between atoms: C6_10  and  C7_11 
REMARK    5  A    between atoms: C7_11  and  C8_12 
REMARK    6  A    between atoms: C8_12  and  C9_13 
REMARK    7  A    between atoms: C9_13  and  C10_14 
REMARK    8  A    between atoms: C10_14  and  C11_15 
REMARK    9  A    between atoms: C11_15  and  C12_16 
REMARK   10  A    between atoms: C12_16  and  N3_17 
REMARK   11  A    between atoms: C15_25  and  C16_26 
ROOT
HETATM    1  C1  UNL     1       9.810  17.724  60.092  1.00  0.00     0.070 C 
HETATM    2  C2  UNL     1      11.025  18.468  60.494  1.00  0.00     0.035 A 
HETATM    3  N1  UNL     1      11.235  18.788  61.806  1.00  0.00    -0.195 N 
ATOM      4  H1  UNL     1      10.539  18.479  62.485  1.00  0.00     0.184 HD
HETATM    5  C3  UNL     1      12.275  19.471  62.264  1.00  0.00     0.678 A 
HETATM    6  N2  UNL     1      12.442  19.758  63.524  1.00  0.00    -0.226 N 
ATOM      7  H2  UNL     1      13.257  20.286  63.837  1.00  0.00     0.177 HD
HETATM    8  N4  UNL     1      13.201  19.888  61.384  1.00  0.00    -0.193 N 
ATOM      9  H4  UNL     1      14.013  20.417  61.704  1.00  0.00     0.184 HD
HETATM   10  C13 UNL     1      13.053  19.607  60.105  1.00  0.00     0.056 A 
HETATM   11  C14 UNL     1      11.960  18.882  59.585  1.00  0.00     0.016 A 
HETATM   12  C15 UNL     1      12.012  18.699  58.159  1.00  0.00    -0.044 C 
HETATM   13  C19 UNL     1      12.102  20.111  57.559  1.00  0.00     0.150 C 
HETATM   14  N5  UNL     1      13.379  20.688  57.937  1.00  0.00    -0.412 N 
ATOM     15  H5  UNL     1      13.786  21.486  57.448  1.00  0.00     0.153 HD
HETATM   16  C20 UNL     1      14.027  20.056  59.048  1.00  0.00     0.173 C 
ENDROOT
BRANCH   6  17
HETATM   17  C4  UNL     1      11.448  19.312  64.463  1.00  0.00     0.138 C 
BRANCH  17  18
HETATM   18  C5  UNL     1      11.907  18.201  65.341  1.00  0.00     0.020 C 
BRANCH  18  19
HETATM   19  C6  UNL     1      11.262  16.889  65.059  1.00  0.00     0.002 C 
BRANCH  19  20
HETATM   20  C7  UNL     1       9.813  17.054  64.657  1.00  0.00     0.000 C 
BRANCH  20  21
HETATM   21  C8  UNL     1       9.439  16.039  63.587  1.00  0.00     0.000 C 
BRANCH  21  22
HETATM   22  C9  UNL     1       9.459  14.664  64.239  1.00  0.00     0.000 C 
BRANCH  22  23
HETATM   23  C10 UNL     1       8.091  14.260  64.699  1.00  0.00     0.002 C 
BRANCH  23  24
HETATM   24  C11 UNL     1       8.136  13.493  65.994  1.00  0.00     0.027 C 
BRANCH  24  25
HETATM   25  C12 UNL     1       9.376  13.798  66.786  1.00  0.00     0.229 C 
BRANCH  25  26
HETATM   26  N3  UNL     1       9.705  12.675  67.672  1.00  0.00    -0.079 N 
ATOM     27  H33 UNL     1       9.412  12.851  68.633  1.00  0.00     0.274 HD
ATOM     28  H32 UNL     1       9.123  11.859  67.484  1.00  0.00     0.274 HD
ATOM     29  H31 UNL     1      10.699  12.455  67.611  1.00  0.00     0.274 HD
ENDBRANCH  25  26
ENDBRANCH  24  25
ENDBRANCH  23  24
ENDBRANCH  22  23
ENDBRANCH  21  22
ENDBRANCH  20  21
ENDBRANCH  19  20
ENDBRANCH  18  19
ENDBRANCH  17  18
ENDBRANCH   6  17
BRANCH  12  30
HETATM   30  C16 UNL     1      11.212  17.758  57.406  1.00  0.00     0.017 A 
HETATM   31  C17 UNL     1      11.326  16.277  57.578  1.00  0.00     0.010 A 
HETATM   32  C18 UNL     1      11.906  16.854  56.364  1.00  0.00     0.010 A 
ENDBRANCH  12  30
TORSDOF 11
ENDMDL
MODEL 2
REMARK VINA RESULT: -6.267463984      1.413      1.613
REMARK  11 active torsions:
REMARK  status: ('A' for Active; 'I' for Inactive)
REMARK    1  A    between atoms: N2_6  and  C4_8 
REMARK    2  A    between atoms: C4_8  and  C5_9 
REMARK    3  A    between atoms: C5_9  and  C6_10 
REMARK    4  A    between atoms: C6_10  and  C7_11 
REMARK    5  A    between atoms: C7_11  and  C8_12 
REMARK    6  A    between atoms: C8_12  and  C9_13 
REMARK    7  A    between atoms: C9_13  and  C10_14 
REMARK    8  A    between atoms: C10_14  and  C11_15 
REMARK    9  A    between atoms: C11_15  and  C12_16 
REMARK   10  A    between atoms: C12_16  and  N3_17 
REMARK   11  A    between atoms: C15_25  and  C16_26 
ROOT
HETATM    1  C1  UNL     1       9.507  17.778  59.736  1.00  0.00     0.070 C 
HETATM    2  C2  UNL     1      10.696  18.405  60.357  1.00  0.00     0.035 A 
HETATM    3  N1  UNL     1      10.716  18.663  61.700  1.00  0.00    -0.195 N 
ATOM      4  H1  UNL     1       9.898  18.391  62.246  1.00  0.00     0.184 HD
HETATM    5  C3  UNL     1      11.719  19.242  62.346  1.00  0.00     0.678 A 
HETATM    6  N2  UNL     1      11.703  19.473  63.629  1.00  0.00    -0.226 N 
ATOM      7  H2  UNL     1      12.495  19.920  64.090  1.00  0.00     0.177 HD
HETATM    8  N4  UNL     1      12.803  19.608  61.643  1.00  0.00    -0.193 N 
ATOM      9  H4  UNL     1      13.591  20.057  62.110  1.00  0.00     0.184 HD
HETATM   10  C13 UNL     1      12.841  19.383  60.345  1.00  0.00     0.056 A 
HETATM   11  C14 UNL     1      11.794  18.769  59.627  1.00  0.00     0.016 A 
HETATM   12  C15 UNL     1      12.059  18.629  58.220  1.00  0.00    -0.044 C 
HETATM   13  C19 UNL     1      12.354  20.048  57.707  1.00  0.00     0.150 C 
HETATM   14  N5  UNL     1      13.594  20.503  58.307  1.00  0.00    -0.412 N 
ATOM     15  H5  UNL     1      14.134  21.280  57.925  1.00  0.00     0.153 HD
HETATM   16  C20 UNL     1      14.005  19.784  59.476  1.00  0.00     0.173 C 
ENDROOT
BRANCH   6  17
HETATM   17  C4  UNL     1      10.540  19.080  64.378  1.00  0.00     0.138 C 
BRANCH  17  18
HETATM   18  C5  UNL     1      10.808  18.032  65.400  1.00  0.00     0.020 C 
BRANCH  18  19
HETATM   19  C6  UNL     1      10.892  16.649  64.855  1.00  0.00     0.002 C 
BRANCH  19  20
HETATM   20  C7  UNL     1       9.670  16.298  64.034  1.00  0.00     0.000 C 
BRANCH  20  21
HETATM   21  C8  UNL     1       9.413  14.799  64.078  1.00  0.00     0.000 C 
BRANCH  21  22
HETATM   22  C9  UNL     1       9.394  14.385  65.542  1.00  0.00     0.000 C 
BRANCH  22  23
HETATM   23  C10 UNL     1       8.156  13.606  65.871  1.00  0.00     0.002 C 
BRANCH  23  24
HETATM   24  C11 UNL     1       7.097  13.756  64.811  1.00  0.00     0.027 C 
BRANCH  24  25
HETATM   25  C12 UNL     1       6.015  12.723  64.947  1.00  0.00     0.229 C 
BRANCH  25  26
HETATM   26  N3  UNL     1       5.345  12.514  63.658  1.00  0.00    -0.079 N 
ATOM     27  H33 UNL     1       4.458  13.015  63.605  1.00  0.00     0.274 HD
ATOM     28  H32 UNL     1       5.831  12.986  62.896  1.00  0.00     0.274 HD
ATOM     29  H31 UNL     1       5.231  11.517  63.476  1.00  0.00     0.274 HD
ENDBRANCH  25  26
ENDBRANCH  24  25
ENDBRANCH  23  24
ENDBRANCH  22  23
ENDBRANCH  21  22
ENDBRANCH  20  21
ENDBRANCH  19  20
ENDBRANCH  18  19
ENDBRANCH  17  18
ENDBRANCH   6  17
BRANCH  12  30
HETATM   30  C16 UNL     1      11.321  17.784  57.309  1.00  0.00     0.017 A 
HETATM   31  C17 UNL     1      11.295  16.293  57.426  1.00  0.00     0.010 A 
HETATM   32  C18 UNL     1      12.101  16.863  56.345  1.00  0.00     0.010 A 
ENDBRANCH  12  30
TORSDOF 11
ENDMDL
MODEL 3
REMARK VINA RESULT: -6.184173711      2.403      8.871
REMARK  11 active torsions:
REMARK  status: ('A' for Active; 'I' for Inactive)
REMARK    1  A    between atoms: N2_6  and  C4_8 
REMARK    2  A    between atoms: C4_8  and  C5_9 
REMARK    3  A    between atoms: C5_9  and  C6_10 
REMARK    4  A    between atoms: C6_10  and  C7_11 
REMARK    5  A    between atoms: C7_11  and  C8_12 
REMARK    6  A    between atoms: C8_12  and  C9_13 
REMARK    7  A    between atoms: C9_13  and  C10_14 
REMARK    8  A    between atoms: C10_14  and  C11_15 
REMARK    9  A    between atoms: C11_15  and  C12_16 
REMARK   10  A    between atoms: C12_16  and  N3_17 
REMARK   11  A    between atoms: C15_25  and  C16_26 
ROOT
HETATM    1  C1  UNL     1      12.751  19.839  62.539  1.00  0.00     0.070 C 
HETATM    2  C2  UNL     1      11.617  18.994  62.101  1.00  0.00     0.035 A 
HETATM    3  N1  UNL     1      11.253  18.959  60.783  1.00  0.00    -0.195 N 
ATOM      4  H1  UNL     1      11.801  19.516  60.127  1.00  0.00     0.184 HD
HETATM    5  C3  UNL     1      10.240  18.257  60.295  1.00  0.00     0.678 A 
HETATM    6  N2  UNL     1       9.921  18.248  59.031  1.00  0.00    -0.226 N 
ATOM      7  H2  UNL     1       9.135  17.694  58.693  1.00  0.00     0.177 HD
HETATM    8  N4  UNL     1       9.506  17.519  61.145  1.00  0.00    -0.193 N 
ATOM      9  H4  UNL     1       8.719  16.969  60.801  1.00  0.00     0.184 HD
HETATM   10  C13 UNL     1       9.811  17.513  62.427  1.00  0.00     0.056 A 
HETATM   11  C14 UNL     1      10.882  18.246  62.980  1.00  0.00     0.016 A 
HETATM   12  C15 UNL     1      11.022  18.085  64.402  1.00  0.00    -0.044 C 
HETATM   13  C19 UNL     1       9.670  18.497  65.006  1.00  0.00     0.150 C 
HETATM   14  N5  UNL     1       8.669  17.533  64.588  1.00  0.00    -0.412 N 
ATOM     15  H5  UNL     1       7.774  17.431  65.066  1.00  0.00     0.153 HD
HETATM   16  C20 UNL     1       9.028  16.736  63.453  1.00  0.00     0.173 C 
ENDROOT
BRANCH   6  17
HETATM   17  C4  UNL     1      10.708  19.040  58.124  1.00  0.00     0.138 C 
BRANCH  17  18
HETATM   18  C5  UNL     1      11.609  18.238  57.251  1.00  0.00     0.020 C 
BRANCH  18  19
HETATM   19  C6  UNL     1      13.030  18.210  57.695  1.00  0.00     0.002 C 
BRANCH  19  20
HETATM   20  C7  UNL     1      13.442  19.520  58.330  1.00  0.00     0.000 C 
BRANCH  20  21
HETATM   21  C8  UNL     1      14.657  20.097  57.618  1.00  0.00     0.000 C 
BRANCH  21  22
HETATM   22  C9  UNL     1      14.413  21.588  57.441  1.00  0.00     0.000 C 
BRANCH  22  23
HETATM   23  C10 UNL     1      15.434  22.202  56.531  1.00  0.00     0.002 C 
BRANCH  23  24
HETATM   24  C11 UNL     1      16.167  21.164  55.725  1.00  0.00     0.027 C 
BRANCH  24  25
HETATM   25  C12 UNL     1      16.133  21.466  54.254  1.00  0.00     0.229 C 
BRANCH  25  26
HETATM   26  N3  UNL     1      14.984  20.804  53.624  1.00  0.00    -0.079 N 
ATOM     27  H33 UNL     1      14.229  20.639  54.289  1.00  0.00     0.274 HD
ATOM     28  H32 UNL     1      14.490  21.426  52.984  1.00  0.00     0.274 HD
ATOM     29  H31 UNL     1      15.281  19.943  53.163  1.00  0.00     0.274 HD
ENDBRANCH  25  26
ENDBRANCH  24  25
ENDBRANCH  23  24
ENDBRANCH  22  23
ENDBRANCH  21  22
ENDBRANCH  20  21
ENDBRANCH  19  20
ENDBRANCH  18  19
ENDBRANCH  17  18
ENDBRANCH   6  17
BRANCH  12  30
HETATM   30  C16 UNL     1      12.184  18.459  65.177  1.00  0.00     0.017 A 
HETATM   31  C17 UNL     1      13.425  17.626  65.233  1.00  0.00     0.010 A 
HETATM   32  C18 UNL     1      12.561  17.615  66.415  1.00  0.00     0.010 A 
ENDBRANCH  12  30
TORSDOF 11
ENDMDL
MODEL 4
REMARK VINA RESULT: -6.128714604      4.479      9.125
REMARK  11 active torsions:
REMARK  status: ('A' for Active; 'I' for Inactive)
REMARK    1  A    between atoms: N2_6  and  C4_8 
REMARK    2  A    between atoms: C4_8  and  C5_9 
REMARK    3  A    between atoms: C5_9  and  C6_10 
REMARK    4  A    between atoms: C6_10  and  C7_11 
REMARK    5  A    between atoms: C7_11  and  C8_12 
REMARK    6  A    between atoms: C8_12  and  C9_13 
REMARK    7  A    between atoms: C9_13  and  C10_14 
REMARK    8  A    between atoms: C10_14  and  C11_15 
REMARK    9  A    between atoms: C11_15  and  C12_16 
REMARK   10  A    between atoms: C12_16  and  N3_17 
REMARK   11  A    between atoms: C15_25  and  C16_26 
ROOT
HETATM    1  C1  UNL     1      13.924  23.373  60.488  1.00  0.00     0.070 C 
HETATM    2  C2  UNL     1      13.266  22.411  61.401  1.00  0.00     0.035 A 
HETATM    3  N1  UNL     1      12.576  21.344  60.897  1.00  0.00    -0.195 N 
ATOM      4  H1  UNL     1      12.554  21.232  59.883  1.00  0.00     0.184 HD
HETATM    5  C3  UNL     1      11.933  20.442  61.626  1.00  0.00     0.678 A 
HETATM    6  N2  UNL     1      11.285  19.436  61.110  1.00  0.00    -0.226 N 
ATOM      7  H2  UNL     1      10.804  18.763  61.705  1.00  0.00     0.177 HD
HETATM    8  N4  UNL     1      11.951  20.574  62.963  1.00  0.00    -0.193 N 
ATOM      9  H4  UNL     1      11.464  19.899  63.553  1.00  0.00     0.184 HD
HETATM   10  C13 UNL     1      12.601  21.584  63.507  1.00  0.00     0.056 A 
HETATM   11  C14 UNL     1      13.295  22.558  62.761  1.00  0.00     0.016 A 
HETATM   12  C15 UNL     1      13.929  23.566  63.570  1.00  0.00    -0.044 C 
HETATM   13  C19 UNL     1      12.808  24.184  64.422  1.00  0.00     0.150 C 
HETATM   14  N5  UNL     1      12.323  23.173  65.343  1.00  0.00    -0.412 N 
ATOM     15  H5  UNL     1      11.787  23.406  66.179  1.00  0.00     0.153 HD
HETATM   16  C20 UNL     1      12.651  21.823  64.993  1.00  0.00     0.173 C 
ENDROOT
BRANCH   6  17
HETATM   17  C4  UNL     1      11.268  19.299  59.679  1.00  0.00     0.138 C 
BRANCH  17  18
HETATM   18  C5  UNL     1      12.024  18.118  59.178  1.00  0.00     0.020 C 
BRANCH  18  19
HETATM   19  C6  UNL     1      12.823  18.376  57.949  1.00  0.00     0.002 C 
BRANCH  19  20
HETATM   20  C7  UNL     1      13.934  19.371  58.203  1.00  0.00     0.000 C 
BRANCH  20  21
HETATM   21  C8  UNL     1      13.938  20.449  57.130  1.00  0.00     0.000 C 
BRANCH  21  22
HETATM   22  C9  UNL     1      14.996  21.472  57.519  1.00  0.00     0.000 C 
BRANCH  22  23
HETATM   23  C10 UNL     1      15.514  22.203  56.317  1.00  0.00     0.002 C 
BRANCH  23  24
HETATM   24  C11 UNL     1      16.458  21.355  55.506  1.00  0.00     0.027 C 
BRANCH  24  25
HETATM   25  C12 UNL     1      16.224  21.507  54.030  1.00  0.00     0.229 C 
BRANCH  25  26
HETATM   26  N3  UNL     1      14.973  20.844  53.642  1.00  0.00    -0.079 N 
ATOM     27  H33 UNL     1      15.115  20.181  52.880  1.00  0.00     0.274 HD
ATOM     28  H32 UNL     1      14.652  20.190  54.355  1.00  0.00     0.274 HD
ATOM     29  H31 UNL     1      14.261  21.538  53.414  1.00  0.00     0.274 HD
ENDBRANCH  25  26
ENDBRANCH  24  25
ENDBRANCH  23  24
ENDBRANCH  22  23
ENDBRANCH  21  22
ENDBRANCH  20  21
ENDBRANCH  19  20
ENDBRANCH  18  19
ENDBRANCH  17  18
ENDBRANCH   6  17
BRANCH  12  30
HETATM   30  C16 UNL     1      14.940  24.492  63.114  1.00  0.00     0.017 A 
HETATM   31  C17 UNL     1      16.382  24.118  62.980  1.00  0.00     0.010 A 
HETATM   32  C18 UNL     1      16.018  24.973  64.111  1.00  0.00     0.010 A 
ENDBRANCH  12  30
TORSDOF 11
ENDMDL
MODEL 5
REMARK VINA RESULT: -5.997282722      2.767      4.609
REMARK  11 active torsions:
REMARK  status: ('A' for Active; 'I' for Inactive)
REMARK    1  A    between atoms: N2_6  and  C4_8 
REMARK    2  A    between atoms: C4_8  and  C5_9 
REMARK    3  A    between atoms: C5_9  and  C6_10 
REMARK    4  A    between atoms: C6_10  and  C7_11 
REMARK    5  A    between atoms: C7_11  and  C8_12 
REMARK    6  A    between atoms: C8_12  and  C9_13 
REMARK    7  A    between atoms: C9_13  and  C10_14 
REMARK    8  A    between atoms: C10_14  and  C11_15 
REMARK    9  A    between atoms: C11_15  and  C12_16 
REMARK   10  A    between atoms: C12_16  and  N3_17 
REMARK   11  A    between atoms: C15_25  and  C16_26 
ROOT
HETATM    1  C1  UNL     1       9.631  17.762  59.796  1.00  0.00     0.070 C 
HETATM    2  C2  UNL     1      10.824  18.453  60.335  1.00  0.00     0.035 A 
HETATM    3  N1  UNL     1      10.900  18.760  61.665  1.00  0.00    -0.195 N 
ATOM      4  H1  UNL     1      10.121  18.478  62.260  1.00  0.00     0.184 HD
HETATM    5  C3  UNL     1      11.912  19.397  62.240  1.00  0.00     0.678 A 
HETATM    6  N2  UNL     1      11.950  19.672  63.514  1.00  0.00    -0.226 N 
ATOM      7  H2  UNL     1      12.746  20.163  63.919  1.00  0.00     0.177 HD
HETATM    8  N4  UNL     1      12.946  19.776  61.472  1.00  0.00    -0.193 N 
ATOM      9  H4  UNL     1      13.738  20.270  61.883  1.00  0.00     0.184 HD
HETATM   10  C13 UNL     1      12.928  19.507  60.182  1.00  0.00     0.056 A 
HETATM   11  C14 UNL     1      11.871  18.830  59.539  1.00  0.00     0.016 A 
HETATM   12  C15 UNL     1      12.072  18.650  58.126  1.00  0.00    -0.044 C 
HETATM   13  C19 UNL     1      12.287  20.059  57.550  1.00  0.00     0.150 C 
HETATM   14  N5  UNL     1      13.537  20.580  58.072  1.00  0.00    -0.412 N 
ATOM     15  H5  UNL     1      14.029  21.361  57.637  1.00  0.00     0.153 HD
HETATM   16  C20 UNL     1      14.032  19.917  59.242  1.00  0.00     0.173 C 
ENDROOT
BRANCH   6  17
HETATM   17  C4  UNL     1      10.840  19.265  64.333  1.00  0.00     0.138 C 
BRANCH  17  18
HETATM   18  C5  UNL     1      11.233  18.452  65.517  1.00  0.00     0.020 C 
BRANCH  18  19
HETATM   19  C6  UNL     1      12.241  17.395  65.229  1.00  0.00     0.002 C 
BRANCH  19  20
HETATM   20  C7  UNL     1      13.484  17.563  66.076  1.00  0.00     0.000 C 
BRANCH  20  21
HETATM   21  C8  UNL     1      14.734  17.373  65.230  1.00  0.00     0.000 C 
BRANCH  21  22
HETATM   22  C9  UNL     1      15.004  18.690  64.517  1.00  0.00     0.000 C 
BRANCH  22  23
HETATM   23  C10 UNL     1      16.423  19.133  64.710  1.00  0.00     0.002 C 
BRANCH  23  24
HETATM   24  C11 UNL     1      17.056  18.486  65.914  1.00  0.00     0.027 C 
BRANCH  24  25
HETATM   25  C12 UNL     1      18.556  18.513  65.843  1.00  0.00     0.229 C 
BRANCH  25  26
HETATM   26  N3  UNL     1      19.007  18.216  64.478  1.00  0.00    -0.079 N 
ATOM     27  H33 UNL     1      20.002  18.408  64.357  1.00  0.00     0.274 HD
ATOM     28  H32 UNL     1      19.022  17.213  64.293  1.00  0.00     0.274 HD
ATOM     29  H31 UNL     1      18.436  18.720  63.799  1.00  0.00     0.274 HD
ENDBRANCH  25  26
ENDBRANCH  24  25
ENDBRANCH  23  24
ENDBRANCH  22  23
ENDBRANCH  21  22
ENDBRANCH  20  21
ENDBRANCH  19  20
ENDBRANCH  18  19
ENDBRANCH  17  18
ENDBRANCH   6  17
BRANCH  12  30
HETATM   30  C16 UNL     1      11.322  17.747  57.282  1.00  0.00     0.017 A 
HETATM   31  C17 UNL     1      11.333  16.263  57.469  1.00  0.00     0.010 A 
HETATM   32  C18 UNL     1      12.090  16.797  56.335  1.00  0.00     0.010 A 
ENDBRANCH  12  30
TORSDOF 11
ENDMDL
