MODEL 1
REMARK VINA RESULT: -6.566014003      0.000      0.000
REMARK  12 active torsions:
REMARK  status: ('A' for Active; 'I' for Inactive)
REMARK    1  A    between atoms: N1_1  and  C1_5 
REMARK    2  A    between atoms: C5_9  and  C6_10 
REMARK    3  A    between atoms: C6_10  and  N3_15 
REMARK    4  A    between atoms: N2_11  and  O1_13 
REMARK    5  A    between atoms: N3_15  and  C7_17 
REMARK    6  A    between atoms: C7_17  and  C8_18 
REMARK    7  A    between atoms: C8_18  and  C9_19 
REMARK    8  A    between atoms: C9_19  and  C10_20 
REMARK    9  A    between atoms: C10_20  and  C11_21 
REMARK   10  A    between atoms: C11_21  and  C12_22 
REMARK   11  A    between atoms: C12_22  and  C13_23 
REMARK   12  A    between atoms: C13_23  and  N4_24 
ROOT
HETATM    1  C6  UNL     1      10.988  19.044  60.468  1.00  0.00     0.108 C 
HETATM    2  N2  UNL     1       9.826  19.284  60.905  1.00  0.00    -0.256 N 
ATOM      3  H2  UNL     1       9.794  19.689  61.840  1.00  0.00     0.195 HD
ENDROOT
BRANCH   1   4
HETATM    4  C5  UNL     1      11.382  18.483  59.205  1.00  0.00     0.048 C 
HETATM    5  C1  UNL     1      10.813  19.115  57.958  1.00  0.00     0.203 C 
HETATM    6  C2  UNL     1      11.516  18.160  56.963  1.00  0.00     0.017 C 
HETATM    7  C3  UNL     1      12.953  18.415  57.349  1.00  0.00     0.008 C 
HETATM    8  C19 UNL     1      11.126  16.838  57.531  1.00  0.00     0.008 C 
HETATM    9  C4  UNL     1      12.858  18.534  58.872  1.00  0.00     0.020 C 
HETATM   10  C18 UNL     1      10.962  17.034  59.022  1.00  0.00     0.020 C 
BRANCH   5  11
HETATM   11  N1  UNL     1      11.335  20.450  57.709  1.00  0.00    -0.073 N 
ATOM     12  H13 UNL     1      10.685  21.044  57.195  1.00  0.00     0.274 HD
ATOM     13  H12 UNL     1      11.394  21.021  58.553  1.00  0.00     0.274 HD
ATOM     14  H11 UNL     1      12.233  20.337  57.237  1.00  0.00     0.274 HD
ENDBRANCH   5  11
ENDBRANCH   1   4
BRANCH   1  15
HETATM   15  N3  UNL     1      12.066  19.367  61.387  1.00  0.00    -0.378 N 
ATOM     16  H3  UNL     1      12.830  18.712  61.562  1.00  0.00     0.160 HD
BRANCH  15  17
HETATM   17  C7  UNL     1      12.013  20.637  62.037  1.00  0.00     0.121 C 
BRANCH  17  18
HETATM   18  C8  UNL     1      13.206  21.511  61.708  1.00  0.00     0.020 C 
BRANCH  18  19
HETATM   19  C9  UNL     1      12.837  22.266  60.434  1.00  0.00     0.002 C 
BRANCH  19  20
HETATM   20  C10 UNL     1      14.060  22.659  59.660  1.00  0.00     0.000 C 
BRANCH  20  21
HETATM   21  C11 UNL     1      13.895  22.474  58.190  1.00  0.00     0.002 C 
BRANCH  21  22
HETATM   22  C12 UNL     1      15.124  21.909  57.524  1.00  0.00     0.019 C 
BRANCH  22  23
HETATM   23  C13 UNL     1      14.760  21.159  56.257  1.00  0.00     0.117 C 
BRANCH  23  24
HETATM   24  N4  UNL     1      15.800  21.159  55.290  1.00  0.00    -0.412 N 
HETATM   25  C14 UNL     1      16.962  21.908  55.569  1.00  0.00     0.117 C 
HETATM   26  C15 UNL     1      17.236  22.727  54.337  1.00  0.00     0.021 C 
HETATM   27  C16 UNL     1      16.646  21.868  53.226  1.00  0.00     0.021 C 
HETATM   28  C17 UNL     1      15.417  21.257  53.927  1.00  0.00     0.117 C 
ENDBRANCH  23  24
ENDBRANCH  22  23
ENDBRANCH  21  22
ENDBRANCH  20  21
ENDBRANCH  19  20
ENDBRANCH  18  19
ENDBRANCH  17  18
ENDBRANCH  15  17
ENDBRANCH   1  15
BRANCH   2  29
HETATM   29  O1  UNL     1       8.630  19.089  60.331  1.00  0.00    -0.288 OA
ATOM     30  H1  UNL     1       7.758  19.293  60.648  1.00  0.00     0.244 HD
ENDBRANCH   2  29
TORSDOF 12
ENDMDL
MODEL 2
REMARK VINA RESULT: -6.137663990      3.694      6.386
REMARK  12 active torsions:
REMARK  status: ('A' for Active; 'I' for Inactive)
REMARK    1  A    between atoms: N1_1  and  C1_5 
REMARK    2  A    between atoms: C5_9  and  C6_10 
REMARK    3  A    between atoms: C6_10  and  N3_15 
REMARK    4  A    between atoms: N2_11  and  O1_13 
REMARK    5  A    between atoms: N3_15  and  C7_17 
REMARK    6  A    between atoms: C7_17  and  C8_18 
REMARK    7  A    between atoms: C8_18  and  C9_19 
REMARK    8  A    between atoms: C9_19  and  C10_20 
REMARK    9  A    between atoms: C10_20  and  C11_21 
REMARK   10  A    between atoms: C11_21  and  C12_22 
REMARK   11  A    between atoms: C12_22  and  C13_23 
REMARK   12  A    between atoms: C13_23  and  N4_24 
ROOT
HETATM    1  C6  UNL     1      12.946  20.719  58.633  1.00  0.00     0.108 C 
HETATM    2  N2  UNL     1      13.550  21.220  57.642  1.00  0.00    -0.256 N 
ATOM      3  H2  UNL     1      13.985  22.125  57.817  1.00  0.00     0.195 HD
ENDROOT
BRANCH   1   4
HETATM    4  C5  UNL     1      12.237  19.471  58.725  1.00  0.00     0.048 C 
HETATM    5  C1  UNL     1      10.842  19.422  58.150  1.00  0.00     0.203 C 
HETATM    6  C2  UNL     1      10.573  17.944  58.519  1.00  0.00     0.017 C 
HETATM    7  C3  UNL     1      11.716  17.291  57.780  1.00  0.00     0.008 C 
HETATM    8  C19 UNL     1      10.922  17.955  59.968  1.00  0.00     0.008 C 
HETATM    9  C4  UNL     1      12.855  18.288  58.011  1.00  0.00     0.020 C 
HETATM   10  C18 UNL     1      11.986  19.015  60.153  1.00  0.00     0.020 C 
BRANCH   5  11
HETATM   11  N1  UNL     1      10.824  19.510  56.698  1.00  0.00    -0.073 N 
ATOM     12  H13 UNL     1       9.904  19.740  56.322  1.00  0.00     0.274 HD
ATOM     13  H12 UNL     1      11.319  20.327  56.339  1.00  0.00     0.274 HD
ATOM     14  H11 UNL     1      11.193  18.628  56.341  1.00  0.00     0.274 HD
ENDBRANCH   5  11
ENDBRANCH   1   4
BRANCH   1  15
HETATM   15  N3  UNL     1      12.958  21.536  59.834  1.00  0.00    -0.378 N 
ATOM     16  H3  UNL     1      12.399  21.288  60.651  1.00  0.00     0.160 HD
BRANCH  15  17
HETATM   17  C7  UNL     1      13.785  22.700  59.824  1.00  0.00     0.121 C 
BRANCH  17  18
HETATM   18  C8  UNL     1      13.682  23.499  61.107  1.00  0.00     0.020 C 
BRANCH  18  19
HETATM   19  C9  UNL     1      12.516  22.896  61.887  1.00  0.00     0.002 C 
BRANCH  19  20
HETATM   20  C10 UNL     1      12.668  23.129  63.361  1.00  0.00     0.000 C 
BRANCH  20  21
HETATM   21  C11 UNL     1      14.075  23.427  63.754  1.00  0.00     0.002 C 
BRANCH  21  22
HETATM   22  C12 UNL     1      14.187  24.582  64.717  1.00  0.00     0.019 C 
BRANCH  22  23
HETATM   23  C13 UNL     1      14.472  25.877  63.983  1.00  0.00     0.117 C 
BRANCH  23  24
HETATM   24  N4  UNL     1      13.334  26.720  63.875  1.00  0.00    -0.412 N 
HETATM   25  C14 UNL     1      12.352  26.637  64.884  1.00  0.00     0.117 C 
HETATM   26  C15 UNL     1      11.032  26.515  64.172  1.00  0.00     0.021 C 
HETATM   27  C16 UNL     1      11.292  27.243  62.859  1.00  0.00     0.021 C 
HETATM   28  C17 UNL     1      12.762  26.873  62.585  1.00  0.00     0.117 C 
ENDBRANCH  23  24
ENDBRANCH  22  23
ENDBRANCH  21  22
ENDBRANCH  20  21
ENDBRANCH  19  20
ENDBRANCH  18  19
ENDBRANCH  17  18
ENDBRANCH  15  17
ENDBRANCH   1  15
BRANCH   2  29
HETATM   29  O1  UNL     1      13.710  20.747  56.397  1.00  0.00    -0.288 OA
ATOM     30  H1  UNL     1      14.502  20.520  55.925  1.00  0.00     0.244 HD
ENDBRANCH   2  29
TORSDOF 12
ENDMDL
MODEL 3
REMARK VINA RESULT: -6.123370085      3.435      6.780
REMARK  12 active torsions:
REMARK  status: ('A' for Active; 'I' for Inactive)
REMARK    1  A    between atoms: N1_1  and  C1_5 
REMARK    2  A    between atoms: C5_9  and  C6_10 
REMARK    3  A    between atoms: C6_10  and  N3_15 
REMARK    4  A    between atoms: N2_11  and  O1_13 
REMARK    5  A    between atoms: N3_15  and  C7_17 
REMARK    6  A    between atoms: C7_17  and  C8_18 
REMARK    7  A    between atoms: C8_18  and  C9_19 
REMARK    8  A    between atoms: C9_19  and  C10_20 
REMARK    9  A    between atoms: C10_20  and  C11_21 
REMARK   10  A    between atoms: C11_21  and  C12_22 
REMARK   11  A    between atoms: C12_22  and  C13_23 
REMARK   12  A    between atoms: C13_23  and  N4_24 
ROOT
HETATM    1  C6  UNL     1      12.569  20.301  60.053  1.00  0.00     0.108 C 
HETATM    2  N2  UNL     1      13.462  21.185  59.917  1.00  0.00    -0.256 N 
ATOM      3  H2  UNL     1      13.537  21.844  60.692  1.00  0.00     0.195 HD
ENDROOT
BRANCH   1   4
HETATM    4  C5  UNL     1      12.207  19.234  59.160  1.00  0.00     0.048 C 
HETATM    5  C1  UNL     1      11.346  19.588  57.972  1.00  0.00     0.203 C 
HETATM    6  C2  UNL     1      11.260  18.150  57.407  1.00  0.00     0.017 C 
HETATM    7  C3  UNL     1      12.732  17.871  57.215  1.00  0.00     0.008 C 
HETATM    8  C19 UNL     1      10.816  17.406  58.619  1.00  0.00     0.008 C 
HETATM    9  C4  UNL     1      13.344  18.525  58.456  1.00  0.00     0.020 C 
HETATM   10  C18 UNL     1      11.375  18.144  59.815  1.00  0.00     0.020 C 
BRANCH   5  11
HETATM   11  N1  UNL     1      12.047  20.394  56.983  1.00  0.00    -0.073 N 
ATOM     12  H13 UNL     1      13.002  20.078  56.813  1.00  0.00     0.274 HD
ATOM     13  H12 UNL     1      11.694  20.260  56.035  1.00  0.00     0.274 HD
ATOM     14  H11 UNL     1      11.995  21.363  57.297  1.00  0.00     0.274 HD
ENDBRANCH   5  11
ENDBRANCH   1   4
BRANCH   1  15
HETATM   15  N3  UNL     1      11.794  20.397  61.279  1.00  0.00    -0.378 N 
ATOM     16  H3  UNL     1      10.774  20.379  61.266  1.00  0.00     0.160 HD
BRANCH  15  17
HETATM   17  C7  UNL     1      12.520  20.520  62.502  1.00  0.00     0.121 C 
BRANCH  17  18
HETATM   18  C8  UNL     1      12.452  19.266  63.350  1.00  0.00     0.020 C 
BRANCH  18  19
HETATM   19  C9  UNL     1      10.989  19.117  63.764  1.00  0.00     0.002 C 
BRANCH  19  20
HETATM   20  C10 UNL     1      10.562  17.680  63.749  1.00  0.00     0.000 C 
BRANCH  20  21
HETATM   21  C11 UNL     1       9.425  17.427  62.819  1.00  0.00     0.002 C 
BRANCH  21  22
HETATM   22  C12 UNL     1       8.388  18.521  62.843  1.00  0.00     0.019 C 
BRANCH  22  23
HETATM   23  C13 UNL     1       8.243  19.163  61.477  1.00  0.00     0.117 C 
BRANCH  23  24
HETATM   24  N4  UNL     1       7.245  18.549  60.675  1.00  0.00    -0.412 N 
HETATM   25  C14 UNL     1       7.378  18.635  59.273  1.00  0.00     0.117 C 
HETATM   26  C15 UNL     1       6.040  19.085  58.754  1.00  0.00     0.021 C 
HETATM   27  C16 UNL     1       5.075  18.539  59.798  1.00  0.00     0.021 C 
HETATM   28  C17 UNL     1       5.897  18.698  61.092  1.00  0.00     0.117 C 
ENDBRANCH  23  24
ENDBRANCH  22  23
ENDBRANCH  21  22
ENDBRANCH  20  21
ENDBRANCH  19  20
ENDBRANCH  18  19
ENDBRANCH  17  18
ENDBRANCH  15  17
ENDBRANCH   1  15
BRANCH   2  29
HETATM   29  O1  UNL     1      14.326  21.394  58.912  1.00  0.00    -0.288 OA
ATOM     30  H1  UNL     1      15.200  21.048  58.775  1.00  0.00     0.244 HD
ENDBRANCH   2  29
TORSDOF 12
ENDMDL
MODEL 4
REMARK VINA RESULT: -6.113099416      3.111      5.019
REMARK  12 active torsions:
REMARK  status: ('A' for Active; 'I' for Inactive)
REMARK    1  A    between atoms: N1_1  and  C1_5 
REMARK    2  A    between atoms: C5_9  and  C6_10 
REMARK    3  A    between atoms: C6_10  and  N3_15 
REMARK    4  A    between atoms: N2_11  and  O1_13 
REMARK    5  A    between atoms: N3_15  and  C7_17 
REMARK    6  A    between atoms: C7_17  and  C8_18 
REMARK    7  A    between atoms: C8_18  and  C9_19 
REMARK    8  A    between atoms: C9_19  and  C10_20 
REMARK    9  A    between atoms: C10_20  and  C11_21 
REMARK   10  A    between atoms: C11_21  and  C12_22 
REMARK   11  A    between atoms: C12_22  and  C13_23 
REMARK   12  A    between atoms: C13_23  and  N4_24 
ROOT
HETATM    1  C6  UNL     1      10.054  18.538  59.884  1.00  0.00     0.108 C 
HETATM    2  N2  UNL     1       8.942  19.126  59.755  1.00  0.00    -0.256 N 
ATOM      3  H2  UNL     1       8.389  19.190  60.610  1.00  0.00     0.195 HD
ENDROOT
BRANCH   1   4
HETATM    4  C5  UNL     1      11.063  18.282  58.892  1.00  0.00     0.048 C 
HETATM    5  C1  UNL     1      11.082  19.176  57.676  1.00  0.00     0.203 C 
HETATM    6  C2  UNL     1      12.279  18.478  56.988  1.00  0.00     0.017 C 
HETATM    7  C3  UNL     1      13.321  18.651  58.067  1.00  0.00     0.008 C 
HETATM    8  C19 UNL     1      11.827  17.059  57.023  1.00  0.00     0.008 C 
HETATM    9  C4  UNL     1      12.503  18.419  59.339  1.00  0.00     0.020 C 
HETATM   10  C18 UNL     1      10.954  16.909  58.250  1.00  0.00     0.020 C 
BRANCH   5  11
HETATM   11  N1  UNL     1      11.498  20.537  57.979  1.00  0.00    -0.073 N 
ATOM     12  H13 UNL     1      10.714  21.164  58.162  1.00  0.00     0.274 HD
ATOM     13  H12 UNL     1      11.950  20.624  58.890  1.00  0.00     0.274 HD
ATOM     14  H11 UNL     1      12.088  20.848  57.207  1.00  0.00     0.274 HD
ENDBRANCH   5  11
ENDBRANCH   1   4
BRANCH   1  15
HETATM   15  N3  UNL     1      10.332  18.039  61.220  1.00  0.00    -0.378 N 
ATOM     16  H3  UNL     1      10.559  17.058  61.385  1.00  0.00     0.160 HD
BRANCH  15  17
HETATM   17  C7  UNL     1      10.273  18.979  62.294  1.00  0.00     0.121 C 
BRANCH  17  18
HETATM   18  C8  UNL     1      11.458  18.867  63.232  1.00  0.00     0.020 C 
BRANCH  18  19
HETATM   19  C9  UNL     1      12.525  19.807  62.675  1.00  0.00     0.002 C 
BRANCH  19  20
HETATM   20  C10 UNL     1      11.935  21.128  62.280  1.00  0.00     0.000 C 
BRANCH  20  21
HETATM   21  C11 UNL     1      12.806  21.888  61.338  1.00  0.00     0.002 C 
BRANCH  21  22
HETATM   22  C12 UNL     1      12.790  23.375  61.588  1.00  0.00     0.019 C 
BRANCH  22  23
HETATM   23  C13 UNL     1      14.188  23.955  61.507  1.00  0.00     0.117 C 
BRANCH  23  24
HETATM   24  N4  UNL     1      14.850  23.996  62.762  1.00  0.00    -0.412 N 
HETATM   25  C14 UNL     1      14.240  24.721  63.807  1.00  0.00     0.117 C 
HETATM   26  C15 UNL     1      15.313  25.599  64.388  1.00  0.00     0.021 C 
HETATM   27  C16 UNL     1      16.583  24.803  64.112  1.00  0.00     0.021 C 
HETATM   28  C17 UNL     1      16.258  24.168  62.747  1.00  0.00     0.117 C 
ENDBRANCH  23  24
ENDBRANCH  22  23
ENDBRANCH  21  22
ENDBRANCH  20  21
ENDBRANCH  19  20
ENDBRANCH  18  19
ENDBRANCH  17  18
ENDBRANCH  15  17
ENDBRANCH   1  15
BRANCH   2  29
HETATM   29  O1  UNL     1       8.376  19.677  58.672  1.00  0.00    -0.288 OA
ATOM     30  H1  UNL     1       8.448  20.559  58.325  1.00  0.00     0.244 HD
ENDBRANCH   2  29
TORSDOF 12
ENDMDL
MODEL 5
REMARK VINA RESULT: -6.103835495      3.129      4.917
REMARK  12 active torsions:
REMARK  status: ('A' for Active; 'I' for Inactive)
REMARK    1  A    between atoms: N1_1  and  C1_5 
REMARK    2  A    between atoms: C5_9  and  C6_10 
REMARK    3  A    between atoms: C6_10  and  N3_15 
REMARK    4  A    between atoms: N2_11  and  O1_13 
REMARK    5  A    between atoms: N3_15  and  C7_17 
REMARK    6  A    between atoms: C7_17  and  C8_18 
REMARK    7  A    between atoms: C8_18  and  C9_19 
REMARK    8  A    between atoms: C9_19  and  C10_20 
REMARK    9  A    between atoms: C10_20  and  C11_21 
REMARK   10  A    between atoms: C11_21  and  C12_22 
REMARK   11  A    between atoms: C12_22  and  C13_23 
REMARK   12  A    between atoms: C13_23  and  N4_24 
ROOT
HETATM    1  C6  UNL     1       9.887  18.327  59.629  1.00  0.00     0.108 C 
HETATM    2  N2  UNL     1       8.832  19.010  59.486  1.00  0.00    -0.256 N 
ATOM      3  H2  UNL     1       8.188  18.977  60.276  1.00  0.00     0.195 HD
ENDROOT
BRANCH   1   4
HETATM    4  C5  UNL     1      10.987  18.160  58.720  1.00  0.00     0.048 C 
HETATM    5  C1  UNL     1      11.074  19.114  57.554  1.00  0.00     0.203 C 
HETATM    6  C2  UNL     1      12.355  18.498  56.942  1.00  0.00     0.017 C 
HETATM    7  C3  UNL     1      13.291  18.655  58.116  1.00  0.00     0.008 C 
HETATM    8  C19 UNL     1      11.961  17.063  56.870  1.00  0.00     0.008 C 
HETATM    9  C4  UNL     1      12.376  18.329  59.299  1.00  0.00     0.020 C 
HETATM   10  C18 UNL     1      10.992  16.818  58.006  1.00  0.00     0.020 C 
BRANCH   5  11
HETATM   11  N1  UNL     1      11.405  20.473  57.956  1.00  0.00    -0.073 N 
ATOM     12  H13 UNL     1      11.183  21.167  57.242  1.00  0.00     0.274 HD
ATOM     13  H12 UNL     1      10.790  20.835  58.686  1.00  0.00     0.274 HD
ATOM     14  H11 UNL     1      12.389  20.474  58.224  1.00  0.00     0.274 HD
ENDBRANCH   5  11
ENDBRANCH   1   4
BRANCH   1  15
HETATM   15  N3  UNL     1       9.978  17.599  60.883  1.00  0.00    -0.378 N 
ATOM     16  H3  UNL     1      10.495  16.722  60.952  1.00  0.00     0.160 HD
BRANCH  15  17
HETATM   17  C7  UNL     1       9.314  18.162  62.015  1.00  0.00     0.121 C 
BRANCH  17  18
HETATM   18  C8  UNL     1      10.142  18.071  63.281  1.00  0.00     0.020 C 
BRANCH  18  19
HETATM   19  C9  UNL     1      10.776  19.447  63.470  1.00  0.00     0.002 C 
BRANCH  19  20
HETATM   20  C10 UNL     1      12.273  19.364  63.463  1.00  0.00     0.000 C 
BRANCH  20  21
HETATM   21  C11 UNL     1      12.886  20.116  62.332  1.00  0.00     0.002 C 
BRANCH  21  22
HETATM   22  C12 UNL     1      12.234  21.453  62.089  1.00  0.00     0.019 C 
BRANCH  22  23
HETATM   23  C13 UNL     1      12.965  22.228  61.010  1.00  0.00     0.117 C 
BRANCH  23  24
HETATM   24  N4  UNL     1      13.222  23.578  61.369  1.00  0.00    -0.412 N 
HETATM   25  C14 UNL     1      14.534  23.919  61.760  1.00  0.00     0.117 C 
HETATM   26  C15 UNL     1      14.397  24.699  63.038  1.00  0.00     0.021 C 
HETATM   27  C16 UNL     1      13.023  25.341  62.895  1.00  0.00     0.021 C 
HETATM   28  C17 UNL     1      12.243  24.237  62.155  1.00  0.00     0.117 C 
ENDBRANCH  23  24
ENDBRANCH  22  23
ENDBRANCH  21  22
ENDBRANCH  20  21
ENDBRANCH  19  20
ENDBRANCH  18  19
ENDBRANCH  17  18
ENDBRANCH  15  17
ENDBRANCH   1  15
BRANCH   2  29
HETATM   29  O1  UNL     1       8.428  19.771  58.458  1.00  0.00    -0.288 OA
ATOM     30  H1  UNL     1       7.558  19.909  58.103  1.00  0.00     0.244 HD
ENDBRANCH   2  29
TORSDOF 12
ENDMDL
