MODEL 1
REMARK VINA RESULT: -7.413324915      0.000      0.000
REMARK  10 active torsions:
REMARK  status: ('A' for Active; 'I' for Inactive)
REMARK    1  A    between atoms: C2_2  and  C4_4 
REMARK    2  A    between atoms: C4_4  and  N1_5 
REMARK    3  A    between atoms: N1_5  and  C5_6 
REMARK    4  A    between atoms: C5_6  and  C6_7 
REMARK    5  A    between atoms: C6_7  and  C7_8 
REMARK    6  A    between atoms: C7_8  and  C8_9 
REMARK    7  A    between atoms: C8_9  and  N2_10 
REMARK    8  A    between atoms: N2_10  and  C9_12 
REMARK    9  A    between atoms: C12_17  and  N4_18 
REMARK   10  A    between atoms: C14_25  and  C15_26 
ROOT
HETATM    1  C8  UNL     1      12.430  23.251  61.729  1.00  0.00     0.119 C 
ENDROOT
BRANCH   1   2
HETATM    2  C7  UNL     1      12.980  22.039  61.062  1.00  0.00     0.021 C 
BRANCH   2   3
HETATM    3  C6  UNL     1      13.579  22.326  59.675  1.00  0.00     0.022 C 
BRANCH   3   4
HETATM    4  C5  UNL     1      12.952  21.446  58.681  1.00  0.00     0.127 C 
BRANCH   4   5
HETATM    5  N1  UNL     1      13.750  20.644  57.831  1.00  0.00    -0.373 N 
HETATM    6  C14 UNL     1      14.009  21.118  56.578  1.00  0.00     0.067 C 
BRANCH   5   7
HETATM    7  C4  UNL     1      13.711  19.315  58.226  1.00  0.00     0.067 C 
BRANCH   7   8
HETATM    8  C2  UNL     1      12.329  18.707  58.109  1.00  0.00     0.016 C 
HETATM    9  C1  UNL     1      12.359  17.513  57.138  1.00  0.00     0.015 C 
HETATM   10  C3  UNL     1      11.783  18.176  59.397  1.00  0.00     0.015 C 
ENDBRANCH   7   8
ENDBRANCH   5   7
BRANCH   6  11
HETATM   11  C15 UNL     1      15.287  21.054  55.878  1.00  0.00     0.024 C 
HETATM   12  C16 UNL     1      16.377  22.006  56.236  1.00  0.00     0.010 C 
HETATM   13  C17 UNL     1      17.426  21.793  55.138  1.00  0.00     0.001 C 
HETATM   14  C18 UNL     1      16.638  21.392  53.913  1.00  0.00     0.001 C 
HETATM   15  C19 UNL     1      15.251  20.971  54.371  1.00  0.00     0.010 C 
ENDBRANCH   6  11
ENDBRANCH   4   5
ENDBRANCH   3   4
ENDBRANCH   2   3
ENDBRANCH   1   2
BRANCH   1  16
HETATM   16  N2  UNL     1      13.534  24.220  61.838  1.00  0.00    -0.398 N 
ATOM     17  H2  UNL     1      14.271  24.236  61.135  1.00  0.00     0.158 HD
BRANCH  16  18
HETATM   18  C9  UNL     1      13.565  25.043  62.820  1.00  0.00     0.101 C 
HETATM   19  C10 UNL     1      14.685  25.237  63.697  1.00  0.00     0.063 A 
HETATM   20  C11 UNL     1      14.640  26.145  64.732  1.00  0.00     0.124 A 
HETATM   21  C13 UNL     1      15.840  24.514  63.528  1.00  0.00     0.272 A 
HETATM   22  N3  UNL     1      15.706  26.301  65.536  1.00  0.00    -0.201 N 
HETATM   23  C12 UNL     1      16.825  25.574  65.340  1.00  0.00     0.678 A 
ATOM     24  H3  UNL     1      15.669  26.974  66.301  1.00  0.00     0.183 HD
HETATM   25  N5  UNL     1      16.918  24.673  64.341  1.00  0.00    -0.156 N 
ATOM     26  H5  UNL     1      17.768  24.129  64.201  1.00  0.00     0.187 HD
HETATM   27  O1  UNL     1      15.879  23.685  62.580  1.00  0.00    -0.267 OA
BRANCH  23  28
HETATM   28  N4  UNL     1      17.814  25.769  66.145  1.00  0.00    -0.234 N 
ATOM     29  H42 UNL     1      18.318  24.981  66.554  1.00  0.00     0.174 HD
ATOM     30  H41 UNL     1      18.071  26.733  66.354  1.00  0.00     0.174 HD
ENDBRANCH  23  28
ENDBRANCH  16  18
ENDBRANCH   1  16
TORSDOF 10
ENDMDL
MODEL 2
REMARK VINA RESULT: -7.174900200      1.766      4.339
REMARK  10 active torsions:
REMARK  status: ('A' for Active; 'I' for Inactive)
REMARK    1  A    between atoms: C2_2  and  C4_4 
REMARK    2  A    between atoms: C4_4  and  N1_5 
REMARK    3  A    between atoms: N1_5  and  C5_6 
REMARK    4  A    between atoms: C5_6  and  C6_7 
REMARK    5  A    between atoms: C6_7  and  C7_8 
REMARK    6  A    between atoms: C7_8  and  C8_9 
REMARK    7  A    between atoms: C8_9  and  N2_10 
REMARK    8  A    between atoms: N2_10  and  C9_12 
REMARK    9  A    between atoms: C12_17  and  N4_18 
REMARK   10  A    between atoms: C14_25  and  C15_26 
ROOT
HETATM    1  C8  UNL     1      13.110  22.559  61.045  1.00  0.00     0.119 C 
ENDROOT
BRANCH   1   2
HETATM    2  C7  UNL     1      13.966  23.011  59.915  1.00  0.00     0.021 C 
BRANCH   2   3
HETATM    3  C6  UNL     1      13.405  22.630  58.535  1.00  0.00     0.022 C 
BRANCH   3   4
HETATM    4  C5  UNL     1      14.467  22.015  57.729  1.00  0.00     0.127 C 
BRANCH   4   5
HETATM    5  N1  UNL     1      14.489  20.616  57.522  1.00  0.00    -0.373 N 
HETATM    6  C14 UNL     1      14.006  19.823  58.522  1.00  0.00     0.067 C 
BRANCH   5   7
HETATM    7  C4  UNL     1      15.439  20.271  56.573  1.00  0.00     0.067 C 
BRANCH   7   8
HETATM    8  C2  UNL     1      15.684  21.370  55.560  1.00  0.00     0.016 C 
HETATM    9  C1  UNL     1      17.189  21.679  55.470  1.00  0.00     0.015 C 
HETATM   10  C3  UNL     1      15.250  21.027  54.170  1.00  0.00     0.015 C 
ENDBRANCH   7   8
ENDBRANCH   5   7
BRANCH   6  11
HETATM   11  C15 UNL     1      13.163  18.644  58.360  1.00  0.00     0.024 C 
HETATM   12  C16 UNL     1      12.613  18.305  57.016  1.00  0.00     0.010 C 
HETATM   13  C17 UNL     1      11.605  17.185  57.305  1.00  0.00     0.001 C 
HETATM   14  C18 UNL     1      11.087  17.469  58.695  1.00  0.00     0.001 C 
HETATM   15  C19 UNL     1      12.048  18.443  59.357  1.00  0.00     0.010 C 
ENDBRANCH   6  11
ENDBRANCH   4   5
ENDBRANCH   3   4
ENDBRANCH   2   3
ENDBRANCH   1   2
BRANCH   1  16
HETATM   16  N2  UNL     1      13.255  23.554  62.120  1.00  0.00    -0.398 N 
ATOM     17  H2  UNL     1      14.010  23.466  62.800  1.00  0.00     0.158 HD
BRANCH  16  18
HETATM   18  C9  UNL     1      12.431  24.532  62.200  1.00  0.00     0.101 C 
HETATM   19  C10 UNL     1      12.636  25.721  62.979  1.00  0.00     0.063 A 
HETATM   20  C11 UNL     1      11.698  26.731  63.011  1.00  0.00     0.124 A 
HETATM   21  C13 UNL     1      13.779  25.883  63.721  1.00  0.00     0.272 A 
HETATM   22  N3  UNL     1      11.921  27.829  63.752  1.00  0.00    -0.201 N 
HETATM   23  C12 UNL     1      13.056  27.955  64.469  1.00  0.00     0.678 A 
ATOM     24  H3  UNL     1      11.225  28.575  63.773  1.00  0.00     0.183 HD
HETATM   25  N5  UNL     1      14.002  26.995  64.470  1.00  0.00    -0.156 N 
ATOM     26  H5  UNL     1      14.858  27.100  65.015  1.00  0.00     0.187 HD
HETATM   27  O1  UNL     1      14.635  24.959  63.689  1.00  0.00    -0.267 OA
BRANCH  23  28
HETATM   28  N4  UNL     1      13.211  29.034  65.161  1.00  0.00    -0.234 N 
ATOM     29  H42 UNL     1      13.427  28.989  66.157  1.00  0.00     0.174 HD
ATOM     30  H41 UNL     1      13.110  29.925  64.676  1.00  0.00     0.174 HD
ENDBRANCH  23  28
ENDBRANCH  16  18
ENDBRANCH   1  16
TORSDOF 10
ENDMDL
MODEL 3
REMARK VINA RESULT: -7.030877376      1.747      2.290
REMARK  10 active torsions:
REMARK  status: ('A' for Active; 'I' for Inactive)
REMARK    1  A    between atoms: C2_2  and  C4_4 
REMARK    2  A    between atoms: C4_4  and  N1_5 
REMARK    3  A    between atoms: N1_5  and  C5_6 
REMARK    4  A    between atoms: C5_6  and  C6_7 
REMARK    5  A    between atoms: C6_7  and  C7_8 
REMARK    6  A    between atoms: C7_8  and  C8_9 
REMARK    7  A    between atoms: C8_9  and  N2_10 
REMARK    8  A    between atoms: N2_10  and  C9_12 
REMARK    9  A    between atoms: C12_17  and  N4_18 
REMARK   10  A    between atoms: C14_25  and  C15_26 
ROOT
HETATM    1  C8  UNL     1      12.904  22.377  61.560  1.00  0.00     0.119 C 
ENDROOT
BRANCH   1   2
HETATM    2  C7  UNL     1      13.810  23.168  60.683  1.00  0.00     0.021 C 
BRANCH   2   3
HETATM    3  C6  UNL     1      13.796  22.706  59.217  1.00  0.00     0.022 C 
BRANCH   3   4
HETATM    4  C5  UNL     1      13.651  21.245  59.168  1.00  0.00     0.127 C 
BRANCH   4   5
HETATM    5  N1  UNL     1      14.141  20.514  58.060  1.00  0.00    -0.373 N 
HETATM    6  C14 UNL     1      14.288  21.183  56.879  1.00  0.00     0.067 C 
BRANCH   5   7
HETATM    7  C4  UNL     1      13.913  19.157  58.223  1.00  0.00     0.067 C 
BRANCH   7   8
HETATM    8  C2  UNL     1      12.448  18.788  58.112  1.00  0.00     0.016 C 
HETATM    9  C1  UNL     1      12.259  17.695  57.044  1.00  0.00     0.015 C 
HETATM   10  C3  UNL     1      11.859  18.239  59.372  1.00  0.00     0.015 C 
ENDBRANCH   7   8
ENDBRANCH   5   7
BRANCH   6  11
HETATM   11  C15 UNL     1      15.406  21.061  55.951  1.00  0.00     0.024 C 
HETATM   12  C16 UNL     1      16.586  21.963  56.088  1.00  0.00     0.010 C 
HETATM   13  C17 UNL     1      17.397  21.701  54.813  1.00  0.00     0.001 C 
HETATM   14  C18 UNL     1      16.375  21.337  53.763  1.00  0.00     0.001 C 
HETATM   15  C19 UNL     1      15.083  20.979  54.478  1.00  0.00     0.010 C 
ENDBRANCH   6  11
ENDBRANCH   4   5
ENDBRANCH   3   4
ENDBRANCH   2   3
ENDBRANCH   1   2
BRANCH   1  16
HETATM   16  N2  UNL     1      12.421  23.287  62.612  1.00  0.00    -0.398 N 
ATOM     17  H2  UNL     1      11.428  23.510  62.678  1.00  0.00     0.158 HD
BRANCH  16  18
HETATM   18  C9  UNL     1      13.251  23.798  63.444  1.00  0.00     0.101 C 
HETATM   19  C10 UNL     1      13.276  25.178  63.840  1.00  0.00     0.063 A 
HETATM   20  C11 UNL     1      14.202  25.650  64.744  1.00  0.00     0.124 A 
HETATM   21  C13 UNL     1      12.371  26.071  63.323  1.00  0.00     0.272 A 
HETATM   22  N3  UNL     1      14.199  26.948  65.093  1.00  0.00    -0.201 N 
HETATM   23  C12 UNL     1      13.295  27.798  64.564  1.00  0.00     0.678 A 
ATOM     24  H3  UNL     1      14.886  27.294  65.762  1.00  0.00     0.183 HD
HETATM   25  N5  UNL     1      12.369  27.384  63.676  1.00  0.00    -0.156 N 
ATOM     26  H5  UNL     1      11.690  28.034  63.282  1.00  0.00     0.187 HD
HETATM   27  O1  UNL     1      11.524  25.637  62.497  1.00  0.00    -0.267 OA
BRANCH  23  28
HETATM   28  N4  UNL     1      13.344  29.032  64.938  1.00  0.00    -0.234 N 
ATOM     29  H42 UNL     1      13.411  29.783  64.251  1.00  0.00     0.174 HD
ATOM     30  H41 UNL     1      13.311  29.224  65.939  1.00  0.00     0.174 HD
ENDBRANCH  23  28
ENDBRANCH  16  18
ENDBRANCH   1  16
TORSDOF 10
ENDMDL
MODEL 4
REMARK VINA RESULT: -7.030521102      2.514      2.791
REMARK  10 active torsions:
REMARK  status: ('A' for Active; 'I' for Inactive)
REMARK    1  A    between atoms: C2_2  and  C4_4 
REMARK    2  A    between atoms: C4_4  and  N1_5 
REMARK    3  A    between atoms: N1_5  and  C5_6 
REMARK    4  A    between atoms: C5_6  and  C6_7 
REMARK    5  A    between atoms: C6_7  and  C7_8 
REMARK    6  A    between atoms: C7_8  and  C8_9 
REMARK    7  A    between atoms: C8_9  and  N2_10 
REMARK    8  A    between atoms: N2_10  and  C9_12 
REMARK    9  A    between atoms: C12_17  and  N4_18 
REMARK   10  A    between atoms: C14_25  and  C15_26 
ROOT
HETATM    1  C8  UNL     1      12.823  22.411  61.416  1.00  0.00     0.119 C 
ENDROOT
BRANCH   1   2
HETATM    2  C7  UNL     1      13.841  23.103  60.580  1.00  0.00     0.021 C 
BRANCH   2   3
HETATM    3  C6  UNL     1      13.807  22.678  59.103  1.00  0.00     0.022 C 
BRANCH   3   4
HETATM    4  C5  UNL     1      13.606  21.226  59.017  1.00  0.00     0.127 C 
BRANCH   4   5
HETATM    5  N1  UNL     1      14.143  20.492  57.933  1.00  0.00    -0.373 N 
HETATM    6  C14 UNL     1      14.288  21.142  56.742  1.00  0.00     0.067 C 
BRANCH   5   7
HETATM    7  C4  UNL     1      13.960  19.130  58.120  1.00  0.00     0.067 C 
BRANCH   7   8
HETATM    8  C2  UNL     1      12.508  18.712  58.016  1.00  0.00     0.016 C 
HETATM    9  C1  UNL     1      12.369  17.529  57.041  1.00  0.00     0.015 C 
HETATM   10  C3  UNL     1      11.911  18.253  59.308  1.00  0.00     0.015 C 
ENDBRANCH   7   8
ENDBRANCH   5   7
BRANCH   6  11
HETATM   11  C15 UNL     1      15.428  21.043  55.838  1.00  0.00     0.024 C 
HETATM   12  C16 UNL     1      16.615  21.923  56.039  1.00  0.00     0.010 C 
HETATM   13  C17 UNL     1      17.454  21.701  54.775  1.00  0.00     0.001 C 
HETATM   14  C18 UNL     1      16.454  21.391  53.686  1.00  0.00     0.001 C 
HETATM   15  C19 UNL     1      15.140  21.023  54.355  1.00  0.00     0.010 C 
ENDBRANCH   6  11
ENDBRANCH   4   5
ENDBRANCH   3   4
ENDBRANCH   2   3
ENDBRANCH   1   2
BRANCH   1  16
HETATM   16  N2  UNL     1      12.437  23.346  62.485  1.00  0.00    -0.398 N 
ATOM     17  H2  UNL     1      12.289  23.004  63.434  1.00  0.00     0.158 HD
BRANCH  16  18
HETATM   18  C9  UNL     1      12.287  24.591  62.221  1.00  0.00     0.101 C 
HETATM   19  C10 UNL     1      12.067  25.620  63.198  1.00  0.00     0.063 A 
HETATM   20  C11 UNL     1      11.916  26.940  62.831  1.00  0.00     0.124 A 
HETATM   21  C13 UNL     1      11.999  25.314  64.534  1.00  0.00     0.272 A 
HETATM   22  N3  UNL     1      11.711  27.878  63.771  1.00  0.00    -0.201 N 
HETATM   23  C12 UNL     1      11.649  27.541  65.076  1.00  0.00     0.678 A 
ATOM     24  H3  UNL     1      11.600  28.854  63.496  1.00  0.00     0.183 HD
HETATM   25  N5  UNL     1      11.791  26.264  65.484  1.00  0.00    -0.156 N 
ATOM     26  H5  UNL     1      11.744  26.020  66.472  1.00  0.00     0.187 HD
HETATM   27  O1  UNL     1      12.138  24.106  64.867  1.00  0.00    -0.267 OA
BRANCH  23  28
HETATM   28  N4  UNL     1      11.449  28.488  65.930  1.00  0.00    -0.234 N 
ATOM     29  H42 UNL     1      11.969  29.363  65.869  1.00  0.00     0.174 HD
ATOM     30  H41 UNL     1      10.756  28.327  66.660  1.00  0.00     0.174 HD
ENDBRANCH  23  28
ENDBRANCH  16  18
ENDBRANCH   1  16
TORSDOF 10
ENDMDL
MODEL 5
REMARK VINA RESULT: -6.965034776      3.852      4.513
REMARK  10 active torsions:
REMARK  status: ('A' for Active; 'I' for Inactive)
REMARK    1  A    between atoms: C2_2  and  C4_4 
REMARK    2  A    between atoms: C4_4  and  N1_5 
REMARK    3  A    between atoms: N1_5  and  C5_6 
REMARK    4  A    between atoms: C5_6  and  C6_7 
REMARK    5  A    between atoms: C6_7  and  C7_8 
REMARK    6  A    between atoms: C7_8  and  C8_9 
REMARK    7  A    between atoms: C8_9  and  N2_10 
REMARK    8  A    between atoms: N2_10  and  C9_12 
REMARK    9  A    between atoms: C12_17  and  N4_18 
REMARK   10  A    between atoms: C14_25  and  C15_26 
ROOT
HETATM    1  C8  UNL     1      11.595  20.355  62.550  1.00  0.00     0.119 C 
ENDROOT
BRANCH   1   2
HETATM    2  C7  UNL     1      12.134  19.519  61.443  1.00  0.00     0.021 C 
BRANCH   2   3
HETATM    3  C6  UNL     1      13.221  20.228  60.618  1.00  0.00     0.022 C 
BRANCH   3   4
HETATM    4  C5  UNL     1      12.737  20.436  59.248  1.00  0.00     0.127 C 
BRANCH   4   5
HETATM    5  N1  UNL     1      13.463  19.923  58.147  1.00  0.00    -0.373 N 
HETATM    6  C14 UNL     1      13.714  20.772  57.108  1.00  0.00     0.067 C 
BRANCH   5   7
HETATM    7  C4  UNL     1      13.359  18.543  58.086  1.00  0.00     0.067 C 
BRANCH   7   8
HETATM    8  C2  UNL     1      12.024  18.077  57.543  1.00  0.00     0.016 C 
HETATM    9  C1  UNL     1      12.233  16.920  56.550  1.00  0.00     0.015 C 
HETATM   10  C3  UNL     1      11.087  17.557  58.588  1.00  0.00     0.015 C 
ENDBRANCH   7   8
ENDBRANCH   5   7
BRANCH   6  11
HETATM   11  C15 UNL     1      14.965  20.885  56.368  1.00  0.00     0.024 C 
HETATM   12  C16 UNL     1      15.855  22.061  56.591  1.00  0.00     0.010 C 
HETATM   13  C17 UNL     1      16.904  21.943  55.478  1.00  0.00     0.001 C 
HETATM   14  C18 UNL     1      16.186  21.276  54.328  1.00  0.00     0.001 C 
HETATM   15  C19 UNL     1      14.918  20.644  54.878  1.00  0.00     0.010 C 
ENDBRANCH   6  11
ENDBRANCH   4   5
ENDBRANCH   3   4
ENDBRANCH   2   3
ENDBRANCH   1   2
BRANCH   1  16
HETATM   16  N2  UNL     1      12.533  20.232  63.678  1.00  0.00    -0.398 N 
ATOM     17  H2  UNL     1      13.013  21.057  64.035  1.00  0.00     0.158 HD
BRANCH  16  18
HETATM   18  C9  UNL     1      12.746  19.085  64.209  1.00  0.00     0.101 C 
HETATM   19  C10 UNL     1      14.029  18.599  64.633  1.00  0.00     0.063 A 
HETATM   20  C11 UNL     1      14.174  17.351  65.199  1.00  0.00     0.124 A 
HETATM   21  C13 UNL     1      15.154  19.370  64.484  1.00  0.00     0.272 A 
HETATM   22  N3  UNL     1      15.389  16.925  65.584  1.00  0.00    -0.201 N 
HETATM   23  C12 UNL     1      16.474  17.711  65.422  1.00  0.00     0.678 A 
ATOM     24  H3  UNL     1      15.492  16.001  66.002  1.00  0.00     0.183 HD
HETATM   25  N5  UNL     1      16.383  18.939  64.875  1.00  0.00    -0.156 N 
ATOM     26  H5  UNL     1      17.209  19.525  64.757  1.00  0.00     0.187 HD
HETATM   27  O1  UNL     1      15.018  20.512  63.968  1.00  0.00    -0.267 OA
BRANCH  23  28
HETATM   28  N4  UNL     1      17.613  17.245  65.812  1.00  0.00    -0.234 N 
ATOM     29  H42 UNL     1      18.414  17.229  65.180  1.00  0.00     0.174 HD
ATOM     30  H41 UNL     1      17.679  16.899  66.768  1.00  0.00     0.174 HD
ENDBRANCH  23  28
ENDBRANCH  16  18
ENDBRANCH   1  16
TORSDOF 10
ENDMDL
