MODEL 1
REMARK VINA RESULT: -11.649493876      0.000      0.000
REMARK  1 active torsions:
REMARK  status: ('A' for Active; 'I' for Inactive)
REMARK    1  A    between atoms: C9_12  and  C10_13 
ROOT
HETATM    1  O1  UNL     1      25.414  11.021  55.592  1.00  0.00    -0.287 OA
HETATM    2  C1  UNL     1      24.482  10.915  56.418  1.00  0.00     0.195 A 
HETATM    3  C2  UNL     1      23.120  11.410  56.269  1.00  0.00     0.027 A 
HETATM    4  C3  UNL     1      22.436  12.094  55.288  1.00  0.00     0.016 A 
HETATM    5  C4  UNL     1      21.098  12.440  55.436  1.00  0.00     0.001 A 
HETATM    6  C5  UNL     1      20.424  12.097  56.586  1.00  0.00     0.001 A 
HETATM    7  C6  UNL     1      21.103  11.414  57.568  1.00  0.00     0.014 A 
HETATM    8  C7  UNL     1      22.443  11.069  57.418  1.00  0.00     0.006 A 
HETATM    9  C8  UNL     1      23.370  10.355  58.304  1.00  0.00     0.058 A 
HETATM   10  N1  UNL     1      23.239   9.814  59.519  1.00  0.00    -0.354 N 
ATOM     11  H1  UNL     1      22.328   9.881  59.972  1.00  0.00     0.166 HD
HETATM   12  C9  UNL     1      24.232   9.181  60.192  1.00  0.00     0.043 A 
HETATM   13  C20 UNL     1      25.457   9.075  59.615  1.00  0.00     0.031 A 
HETATM   14  C21 UNL     1      25.662   9.613  58.362  1.00  0.00     0.020 A 
HETATM   15  C22 UNL     1      24.618  10.243  57.729  1.00  0.00     0.043 A 
ENDROOT
BRANCH  12  16
HETATM   16  C10 UNL     1      23.820   8.573  61.451  1.00  0.00     0.002 A 
HETATM   17  C11 UNL     1      24.565   7.474  61.909  1.00  0.00     0.014 A 
HETATM   18  C12 UNL     1      24.247   6.838  63.068  1.00  0.00     0.002 A 
HETATM   19  C13 UNL     1      23.183   7.255  63.823  1.00  0.00     0.012 A 
HETATM   20  C14 UNL     1      22.454   8.330  63.370  1.00  0.00    -0.025 A 
HETATM   21  C15 UNL     1      21.365   8.738  64.101  1.00  0.00     0.012 A 
HETATM   22  C19 UNL     1      22.759   9.009  62.172  1.00  0.00    -0.013 A 
HETATM   23  C16 UNL     1      20.557   9.776  63.712  1.00  0.00     0.001 A 
HETATM   24  C17 UNL     1      20.876  10.408  62.547  1.00  0.00     0.001 A 
HETATM   25  C18 UNL     1      21.955  10.051  61.766  1.00  0.00     0.013 A 
ENDBRANCH  12  16
TORSDOF 1
ENDMDL
MODEL 2
REMARK VINA RESULT: -10.648455331      0.797      2.289
REMARK  1 active torsions:
REMARK  status: ('A' for Active; 'I' for Inactive)
REMARK    1  A    between atoms: C9_12  and  C10_13 
ROOT
HETATM    1  O1  UNL     1      25.226  11.202  55.879  1.00  0.00    -0.287 OA
HETATM    2  C1  UNL     1      24.142  11.267  56.496  1.00  0.00     0.195 A 
HETATM    3  C2  UNL     1      22.887  11.821  56.005  1.00  0.00     0.027 A 
HETATM    4  C3  UNL     1      22.476  12.405  54.826  1.00  0.00     0.016 A 
HETATM    5  C4  UNL     1      21.172  12.850  54.646  1.00  0.00     0.001 A 
HETATM    6  C5  UNL     1      20.254  12.709  55.661  1.00  0.00     0.001 A 
HETATM    7  C6  UNL     1      20.658  12.127  56.840  1.00  0.00     0.014 A 
HETATM    8  C7  UNL     1      21.965  11.682  57.018  1.00  0.00     0.006 A 
HETATM    9  C8  UNL     1      22.628  11.040  58.159  1.00  0.00     0.058 A 
HETATM   10  N1  UNL     1      22.209  10.679  59.376  1.00  0.00    -0.354 N 
ATOM     11  H1  UNL     1      21.234  10.864  59.615  1.00  0.00     0.166 HD
HETATM   12  C9  UNL     1      22.985  10.084  60.314  1.00  0.00     0.043 A 
HETATM   13  C20 UNL     1      24.288   9.825  60.026  1.00  0.00     0.031 A 
HETATM   14  C21 UNL     1      24.787  10.173  58.788  1.00  0.00     0.020 A 
HETATM   15  C22 UNL     1      23.951  10.773  57.878  1.00  0.00     0.043 A 
ENDROOT
BRANCH  12  16
HETATM   16  C10 UNL     1      22.277   9.681  61.522  1.00  0.00     0.002 A 
HETATM   17  C11 UNL     1      21.091  10.367  61.832  1.00  0.00     0.014 A 
HETATM   18  C12 UNL     1      20.370  10.066  62.944  1.00  0.00     0.002 A 
HETATM   19  C13 UNL     1      20.785   9.078  63.798  1.00  0.00     0.012 A 
HETATM   20  C14 UNL     1      21.947   8.410  63.493  1.00  0.00    -0.025 A 
HETATM   21  C15 UNL     1      22.393   7.441  64.358  1.00  0.00     0.012 A 
HETATM   22  C19 UNL     1      22.718   8.701  62.348  1.00  0.00    -0.013 A 
HETATM   23  C16 UNL     1      23.558   6.745  64.158  1.00  0.00     0.001 A 
HETATM   24  C17 UNL     1      24.281   7.054  63.044  1.00  0.00     0.001 A 
HETATM   25  C18 UNL     1      23.892   8.015  62.134  1.00  0.00     0.013 A 
ENDBRANCH  12  16
TORSDOF 1
ENDMDL
MODEL 3
REMARK VINA RESULT: -10.407462620      1.971      6.462
REMARK  1 active torsions:
REMARK  status: ('A' for Active; 'I' for Inactive)
REMARK    1  A    between atoms: C9_12  and  C10_13 
ROOT
HETATM    1  O1  UNL     1      24.846   6.918  63.384  1.00  0.00    -0.287 OA
HETATM    2  C1  UNL     1      24.051   7.649  62.757  1.00  0.00     0.195 A 
HETATM    3  C2  UNL     1      22.748   8.116  63.211  1.00  0.00     0.027 A 
HETATM    4  C3  UNL     1      21.999   7.949  64.355  1.00  0.00     0.016 A 
HETATM    5  C4  UNL     1      20.749   8.537  64.504  1.00  0.00     0.001 A 
HETATM    6  C5  UNL     1      20.231   9.312  63.491  1.00  0.00     0.001 A 
HETATM    7  C6  UNL     1      20.975   9.482  62.346  1.00  0.00     0.014 A 
HETATM    8  C7  UNL     1      22.226   8.892  62.200  1.00  0.00     0.006 A 
HETATM    9  C8  UNL     1      23.195   8.922  61.097  1.00  0.00     0.058 A 
HETATM   10  N1  UNL     1      23.196   9.512  59.898  1.00  0.00    -0.354 N 
ATOM     11  H1  UNL     1      22.380  10.069  59.643  1.00  0.00     0.166 HD
HETATM   12  C9  UNL     1      24.205   9.423  58.996  1.00  0.00     0.043 A 
HETATM   13  C20 UNL     1      25.305   8.689  59.306  1.00  0.00     0.031 A 
HETATM   14  C21 UNL     1      25.368   8.052  60.528  1.00  0.00     0.020 A 
HETATM   15  C22 UNL     1      24.315   8.179  61.401  1.00  0.00     0.043 A 
ENDROOT
BRANCH  12  16
HETATM   16  C10 UNL     1      24.028  10.245  57.805  1.00  0.00     0.002 A 
HETATM   17  C11 UNL     1      25.173  10.519  57.039  1.00  0.00     0.014 A 
HETATM   18  C12 UNL     1      25.106  11.286  55.918  1.00  0.00     0.002 A 
HETATM   19  C13 UNL     1      23.911  11.814  55.505  1.00  0.00     0.012 A 
HETATM   20  C14 UNL     1      22.793  11.545  56.259  1.00  0.00    -0.025 A 
HETATM   21  C15 UNL     1      21.595  12.096  55.876  1.00  0.00     0.012 A 
HETATM   22  C19 UNL     1      22.832  10.755  57.427  1.00  0.00    -0.013 A 
HETATM   23  C16 UNL     1      20.433  11.913  56.583  1.00  0.00     0.001 A 
HETATM   24  C17 UNL     1      20.506  11.149  57.709  1.00  0.00     0.001 A 
HETATM   25  C18 UNL     1      21.676  10.565  58.151  1.00  0.00     0.013 A 
ENDBRANCH  12  16
TORSDOF 1
ENDMDL
MODEL 4
REMARK VINA RESULT: -10.352130445      1.519      1.769
REMARK  1 active torsions:
REMARK  status: ('A' for Active; 'I' for Inactive)
REMARK    1  A    between atoms: C9_12  and  C10_13 
ROOT
HETATM    1  O1  UNL     1      22.297   9.401  54.721  1.00  0.00    -0.287 OA
HETATM    2  C1  UNL     1      22.524   9.974  55.807  1.00  0.00     0.195 A 
HETATM    3  C2  UNL     1      22.647  11.408  56.032  1.00  0.00     0.027 A 
HETATM    4  C3  UNL     1      22.570  12.528  55.233  1.00  0.00     0.016 A 
HETATM    5  C4  UNL     1      22.737  13.808  55.749  1.00  0.00     0.001 A 
HETATM    6  C5  UNL     1      22.986  13.978  57.092  1.00  0.00     0.001 A 
HETATM    7  C6  UNL     1      23.064  12.863  57.894  1.00  0.00     0.014 A 
HETATM    8  C7  UNL     1      22.896  11.583  57.375  1.00  0.00     0.006 A 
HETATM    9  C8  UNL     1      22.933  10.261  58.012  1.00  0.00     0.058 A 
HETATM   10  N1  UNL     1      23.135   9.858  59.270  1.00  0.00    -0.354 N 
ATOM     11  H1  UNL     1      23.304  10.575  59.976  1.00  0.00     0.166 HD
HETATM   12  C9  UNL     1      23.131   8.564  59.675  1.00  0.00     0.043 A 
HETATM   13  C20 UNL     1      22.909   7.586  58.759  1.00  0.00     0.031 A 
HETATM   14  C21 UNL     1      22.695   7.932  57.441  1.00  0.00     0.020 A 
HETATM   15  C22 UNL     1      22.710   9.260  57.090  1.00  0.00     0.043 A 
ENDROOT
BRANCH  12  16
HETATM   16  C10 UNL     1      23.261   8.379  61.115  1.00  0.00     0.002 A 
HETATM   17  C11 UNL     1      24.456   7.809  61.585  1.00  0.00     0.014 A 
HETATM   18  C12 UNL     1      24.661   7.589  62.911  1.00  0.00     0.002 A 
HETATM   19  C13 UNL     1      23.699   7.919  63.829  1.00  0.00     0.012 A 
HETATM   20  C14 UNL     1      22.529   8.474  63.365  1.00  0.00    -0.025 A 
HETATM   21  C15 UNL     1      21.543   8.778  64.271  1.00  0.00     0.012 A 
HETATM   22  C19 UNL     1      22.288   8.712  61.996  1.00  0.00    -0.013 A 
HETATM   23  C16 UNL     1      20.330   9.301  63.901  1.00  0.00     0.001 A 
HETATM   24  C17 UNL     1      20.127   9.515  62.570  1.00  0.00     0.001 A 
HETATM   25  C18 UNL     1      21.074   9.233  61.607  1.00  0.00     0.013 A 
ENDBRANCH  12  16
TORSDOF 1
ENDMDL
MODEL 5
REMARK VINA RESULT: -10.219967502      2.268      7.196
REMARK  1 active torsions:
REMARK  status: ('A' for Active; 'I' for Inactive)
REMARK    1  A    between atoms: C9_12  and  C10_13 
ROOT
HETATM    1  O1  UNL     1      20.493  10.579  64.100  1.00  0.00    -0.287 OA
HETATM    2  C1  UNL     1      21.336  10.084  63.322  1.00  0.00     0.195 A 
HETATM    3  C2  UNL     1      22.119   8.874  63.535  1.00  0.00     0.027 A 
HETATM    4  C3  UNL     1      22.213   7.941  64.545  1.00  0.00     0.016 A 
HETATM    5  C4  UNL     1      23.080   6.858  64.461  1.00  0.00     0.001 A 
HETATM    6  C5  UNL     1      23.871   6.698  63.347  1.00  0.00     0.001 A 
HETATM    7  C6  UNL     1      23.781   7.627  62.336  1.00  0.00     0.014 A 
HETATM    8  C7  UNL     1      22.912   8.710  62.421  1.00  0.00     0.006 A 
HETATM    9  C8  UNL     1      22.639   9.815  61.495  1.00  0.00     0.058 A 
HETATM   10  N1  UNL     1      23.121  10.139  60.291  1.00  0.00    -0.354 N 
ATOM     11  H1  UNL     1      23.829   9.528  59.884  1.00  0.00     0.166 HD
HETATM   12  C9  UNL     1      22.737  11.223  59.573  1.00  0.00     0.043 A 
HETATM   13  C20 UNL     1      21.796  12.057  60.088  1.00  0.00     0.031 A 
HETATM   14  C21 UNL     1      21.257  11.782  61.328  1.00  0.00     0.020 A 
HETATM   15  C22 UNL     1      21.686  10.669  62.009  1.00  0.00     0.043 A 
ENDROOT
BRANCH  12  16
HETATM   16  C10 UNL     1      23.319  11.306  58.240  1.00  0.00     0.002 A 
HETATM   17  C11 UNL     1      24.673  10.955  58.107  1.00  0.00     0.014 A 
HETATM   18  C12 UNL     1      25.303  11.011  56.903  1.00  0.00     0.002 A 
HETATM   19  C13 UNL     1      24.628  11.416  55.781  1.00  0.00     0.012 A 
HETATM   20  C14 UNL     1      23.304  11.762  55.916  1.00  0.00    -0.025 A 
HETATM   21  C15 UNL     1      22.625  12.201  54.807  1.00  0.00     0.012 A 
HETATM   22  C19 UNL     1      22.624  11.715  57.152  1.00  0.00    -0.013 A 
HETATM   23  C16 UNL     1      21.313  12.601  54.848  1.00  0.00     0.001 A 
HETATM   24  C17 UNL     1      20.687  12.548  56.058  1.00  0.00     0.001 A 
HETATM   25  C18 UNL     1      21.308  12.116  57.212  1.00  0.00     0.013 A 
ENDBRANCH  12  16
TORSDOF 1
ENDMDL
