MODEL 1
REMARK VINA RESULT: -9.683253959      0.000      0.000
REMARK  1 active torsions:
REMARK  status: ('A' for Active; 'I' for Inactive)
REMARK    1  A    between atoms: C4_5  and  C5_6 
ROOT
HETATM    1  O1  UNL     1      20.200  10.265  61.915  1.00  0.00    -0.267 OA
HETATM    2  C1  UNL     1      21.325   9.701  61.762  1.00  0.00     0.265 A 
HETATM    3  C2  UNL     1      22.129   9.947  60.572  1.00  0.00     0.061 A 
HETATM    4  C3  UNL     1      21.713  10.787  59.575  1.00  0.00     0.032 A 
HETATM    5  C4  UNL     1      22.488  11.022  58.433  1.00  0.00    -0.014 A 
HETATM    6  C11 UNL     1      23.709  10.405  58.277  1.00  0.00    -0.013 A 
HETATM    7  C12 UNL     1      24.527  10.604  57.184  1.00  0.00     0.013 A 
HETATM    8  C13 UNL     1      25.744   9.953  57.111  1.00  0.00     0.001 A 
HETATM    9  C14 UNL     1      26.163   9.106  58.110  1.00  0.00     0.001 A 
HETATM   10  C15 UNL     1      25.334   8.921  59.195  1.00  0.00     0.014 A 
HETATM   11  C16 UNL     1      24.111   9.549  59.312  1.00  0.00     0.003 A 
HETATM   12  C17 UNL     1      23.358   9.308  60.441  1.00  0.00     0.060 A 
HETATM   13  N1  UNL     1      23.802   8.429  61.470  1.00  0.00    -0.340 N 
ATOM     14  H1  UNL     1      24.706   7.970  61.354  1.00  0.00     0.167 HD
HETATM   15  C18 UNL     1      23.135   8.183  62.528  1.00  0.00     0.114 A 
HETATM   16  C19 UNL     1      23.601   7.281  63.577  1.00  0.00     0.049 A 
HETATM   17  C20 UNL     1      22.867   7.073  64.636  1.00  0.00     0.005 A 
HETATM   18  C21 UNL     1      21.570   7.731  64.801  1.00  0.00     0.018 A 
HETATM   19  C22 UNL     1      21.096   8.556  63.889  1.00  0.00     0.102 A 
HETATM   20  N2  UNL     1      21.858   8.807  62.730  1.00  0.00    -0.274 N 
ENDROOT
BRANCH   5  21
HETATM   21  C5  UNL     1      21.975  11.889  57.381  1.00  0.00    -0.025 A 
HETATM   22  C6  UNL     1      20.689  11.686  56.913  1.00  0.00     0.012 A 
HETATM   23  C7  UNL     1      20.148  12.437  55.885  1.00  0.00     0.001 A 
HETATM   24  C8  UNL     1      20.922  13.417  55.314  1.00  0.00     0.000 A 
HETATM   25  C9  UNL     1      22.195  13.618  55.777  1.00  0.00     0.001 A 
HETATM   26  C10 UNL     1      22.726  12.871  56.795  1.00  0.00     0.012 A 
ENDBRANCH   5  21
TORSDOF 1
ENDMDL
MODEL 2
REMARK VINA RESULT: -9.337552248      0.403      1.020
REMARK  1 active torsions:
REMARK  status: ('A' for Active; 'I' for Inactive)
REMARK    1  A    between atoms: C4_5  and  C5_6 
ROOT
HETATM    1  O1  UNL     1      20.361  10.143  61.679  1.00  0.00    -0.267 OA
HETATM    2  C1  UNL     1      21.519   9.660  61.495  1.00  0.00     0.265 A 
HETATM    3  C2  UNL     1      22.266   9.950  60.278  1.00  0.00     0.061 A 
HETATM    4  C3  UNL     1      21.759  10.747  59.287  1.00  0.00     0.032 A 
HETATM    5  C4  UNL     1      22.479  11.024  58.118  1.00  0.00    -0.014 A 
HETATM    6  C11 UNL     1      23.736  10.495  57.930  1.00  0.00    -0.013 A 
HETATM    7  C12 UNL     1      24.503  10.741  56.809  1.00  0.00     0.013 A 
HETATM    8  C13 UNL     1      25.761  10.179  56.703  1.00  0.00     0.001 A 
HETATM    9  C14 UNL     1      26.272   9.375  57.696  1.00  0.00     0.001 A 
HETATM   10  C15 UNL     1      25.492   9.143  58.808  1.00  0.00     0.014 A 
HETATM   11  C16 UNL     1      24.231   9.682  58.958  1.00  0.00     0.003 A 
HETATM   12  C17 UNL     1      23.533   9.400  60.114  1.00  0.00     0.060 A 
HETATM   13  N1  UNL     1      24.072   8.568  61.135  1.00  0.00    -0.340 N 
ATOM     14  H1  UNL     1      25.003   8.174  60.995  1.00  0.00     0.167 HD
HETATM   15  C18 UNL     1      23.458   8.286  62.216  1.00  0.00     0.114 A 
HETATM   16  C19 UNL     1      24.020   7.431  63.258  1.00  0.00     0.049 A 
HETATM   17  C20 UNL     1      23.337   7.182  64.342  1.00  0.00     0.005 A 
HETATM   18  C21 UNL     1      22.001   7.747  64.542  1.00  0.00     0.018 A 
HETATM   19  C22 UNL     1      21.440   8.526  63.638  1.00  0.00     0.102 A 
HETATM   20  N2  UNL     1      22.146   8.818  62.454  1.00  0.00    -0.274 N 
ENDROOT
BRANCH   5  21
HETATM   21  C5  UNL     1      21.872  11.840  57.076  1.00  0.00    -0.025 A 
HETATM   22  C6  UNL     1      22.668  12.718  56.362  1.00  0.00     0.012 A 
HETATM   23  C7  UNL     1      22.157  13.559  55.390  1.00  0.00     0.001 A 
HETATM   24  C8  UNL     1      20.809  13.514  55.130  1.00  0.00     0.000 A 
HETATM   25  C9  UNL     1      20.021  12.645  55.836  1.00  0.00     0.001 A 
HETATM   26  C10 UNL     1      20.532  11.814  56.798  1.00  0.00     0.012 A 
ENDBRANCH   5  21
TORSDOF 1
ENDMDL
MODEL 3
REMARK VINA RESULT: -8.295430794      1.951      6.635
REMARK  1 active torsions:
REMARK  status: ('A' for Active; 'I' for Inactive)
REMARK    1  A    between atoms: C4_5  and  C5_6 
ROOT
HETATM    1  O1  UNL     1      19.970  11.586  58.711  1.00  0.00    -0.267 OA
HETATM    2  C1  UNL     1      21.153  11.303  58.353  1.00  0.00     0.265 A 
HETATM    3  C2  UNL     1      22.020  10.498  59.203  1.00  0.00     0.061 A 
HETATM    4  C3  UNL     1      21.604  10.016  60.415  1.00  0.00     0.032 A 
HETATM    5  C4  UNL     1      22.440   9.242  61.230  1.00  0.00    -0.014 A 
HETATM    6  C11 UNL     1      23.722   8.939  60.830  1.00  0.00    -0.013 A 
HETATM    7  C12 UNL     1      24.590   8.171  61.579  1.00  0.00     0.013 A 
HETATM    8  C13 UNL     1      25.858   7.905  61.099  1.00  0.00     0.001 A 
HETATM    9  C14 UNL     1      26.279   8.391  59.882  1.00  0.00     0.001 A 
HETATM   10  C15 UNL     1      25.398   9.154  59.148  1.00  0.00     0.014 A 
HETATM   11  C16 UNL     1      24.123   9.446  59.586  1.00  0.00     0.003 A 
HETATM   12  C17 UNL     1      23.311  10.210  58.774  1.00  0.00     0.060 A 
HETATM   13  N1  UNL     1      23.757  10.707  57.516  1.00  0.00    -0.340 N 
ATOM     14  H1  UNL     1      24.708  10.484  57.221  1.00  0.00     0.167 HD
HETATM   15  C18 UNL     1      23.037  11.413  56.738  1.00  0.00     0.114 A 
HETATM   16  C19 UNL     1      23.504  11.917  55.450  1.00  0.00     0.049 A 
HETATM   17  C20 UNL     1      22.713  12.637  54.702  1.00  0.00     0.005 A 
HETATM   18  C21 UNL     1      21.349  12.956  55.127  1.00  0.00     0.018 A 
HETATM   19  C22 UNL     1      20.870  12.530  56.279  1.00  0.00     0.102 A 
HETATM   20  N2  UNL     1      21.693  11.750  57.116  1.00  0.00    -0.274 N 
ENDROOT
BRANCH   5  21
HETATM   21  C5  UNL     1      21.962   8.795  62.531  1.00  0.00    -0.025 A 
HETATM   22  C6  UNL     1      22.785   8.002  63.312  1.00  0.00     0.012 A 
HETATM   23  C7  UNL     1      22.384   7.500  64.537  1.00  0.00     0.001 A 
HETATM   24  C8  UNL     1      21.124   7.805  64.988  1.00  0.00     0.000 A 
HETATM   25  C9  UNL     1      20.310   8.591  64.216  1.00  0.00     0.001 A 
HETATM   26  C10 UNL     1      20.711   9.085  63.003  1.00  0.00     0.012 A 
ENDBRANCH   5  21
TORSDOF 1
ENDMDL
MODEL 4
REMARK VINA RESULT: -7.306211040      1.439      1.486
REMARK  1 active torsions:
REMARK  status: ('A' for Active; 'I' for Inactive)
REMARK    1  A    between atoms: C4_5  and  C5_6 
ROOT
HETATM    1  O1  UNL     1      21.349  12.109  62.011  1.00  0.00    -0.267 OA
HETATM    2  C1  UNL     1      21.835  10.982  61.689  1.00  0.00     0.265 A 
HETATM    3  C2  UNL     1      22.103  10.654  60.295  1.00  0.00     0.061 A 
HETATM    4  C3  UNL     1      21.847  11.535  59.279  1.00  0.00     0.032 A 
HETATM    5  C4  UNL     1      22.106  11.217  57.940  1.00  0.00    -0.014 A 
HETATM    6  C11 UNL     1      22.635   9.991  57.602  1.00  0.00    -0.013 A 
HETATM    7  C12 UNL     1      22.926   9.622  56.305  1.00  0.00     0.013 A 
HETATM    8  C13 UNL     1      23.466   8.374  56.053  1.00  0.00     0.001 A 
HETATM    9  C14 UNL     1      23.722   7.486  57.072  1.00  0.00     0.001 A 
HETATM   10  C15 UNL     1      23.426   7.874  58.360  1.00  0.00     0.014 A 
HETATM   11  C16 UNL     1      22.886   9.108  58.661  1.00  0.00     0.003 A 
HETATM   12  C17 UNL     1      22.635   9.408  59.983  1.00  0.00     0.060 A 
HETATM   13  N1  UNL     1      22.905   8.481  61.030  1.00  0.00    -0.340 N 
ATOM     14  H1  UNL     1      23.295   7.572  60.780  1.00  0.00     0.167 HD
HETATM   15  C18 UNL     1      22.688   8.722  62.262  1.00  0.00     0.114 A 
HETATM   16  C19 UNL     1      22.969   7.764  63.328  1.00  0.00     0.049 A 
HETATM   17  C20 UNL     1      22.722   8.076  64.571  1.00  0.00     0.005 A 
HETATM   18  C21 UNL     1      22.162   9.380  64.930  1.00  0.00     0.018 A 
HETATM   19  C22 UNL     1      21.887  10.287  64.012  1.00  0.00     0.102 A 
HETATM   20  N2  UNL     1      22.140   9.989  62.658  1.00  0.00    -0.274 N 
ENDROOT
BRANCH   5  21
HETATM   21  C5  UNL     1      21.769  12.174  56.895  1.00  0.00    -0.025 A 
HETATM   22  C6  UNL     1      20.476  12.203  56.403  1.00  0.00     0.012 A 
HETATM   23  C7  UNL     1      20.092  13.050  55.380  1.00  0.00     0.001 A 
HETATM   24  C8  UNL     1      21.034  13.890  54.838  1.00  0.00     0.000 A 
HETATM   25  C9  UNL     1      22.313  13.862  55.325  1.00  0.00     0.001 A 
HETATM   26  C10 UNL     1      22.689  13.021  56.339  1.00  0.00     0.012 A 
ENDBRANCH   5  21
TORSDOF 1
ENDMDL
MODEL 5
REMARK VINA RESULT: -5.789262965      2.488      7.191
REMARK  1 active torsions:
REMARK  status: ('A' for Active; 'I' for Inactive)
REMARK    1  A    between atoms: C4_5  and  C5_6 
ROOT
HETATM    1  O1  UNL     1      22.095   8.536  57.728  1.00  0.00    -0.267 OA
HETATM    2  C1  UNL     1      22.244   9.748  58.072  1.00  0.00     0.265 A 
HETATM    3  C2  UNL     1      22.351  10.119  59.477  1.00  0.00     0.061 A 
HETATM    4  C3  UNL     1      22.296   9.189  60.479  1.00  0.00     0.032 A 
HETATM    5  C4  UNL     1      22.399   9.549  61.829  1.00  0.00    -0.014 A 
HETATM    6  C11 UNL     1      22.563  10.868  62.191  1.00  0.00    -0.013 A 
HETATM    7  C12 UNL     1      22.685  11.286  63.500  1.00  0.00     0.013 A 
HETATM    8  C13 UNL     1      22.857  12.630  63.776  1.00  0.00     0.001 A 
HETATM    9  C14 UNL     1      22.910  13.566  62.770  1.00  0.00     0.001 A 
HETATM   10  C15 UNL     1      22.788  13.129  61.470  1.00  0.00     0.014 A 
HETATM   11  C16 UNL     1      22.615  11.799  61.145  1.00  0.00     0.003 A 
HETATM   12  C17 UNL     1      22.513  11.459  59.812  1.00  0.00     0.060 A 
HETATM   13  N1  UNL     1      22.570  12.437  58.779  1.00  0.00    -0.340 N 
ATOM     14  H1  UNL     1      22.689  13.414  59.047  1.00  0.00     0.167 HD
HETATM   15  C18 UNL     1      22.482  12.161  57.538  1.00  0.00     0.114 A 
HETATM   16  C19 UNL     1      22.542  13.172  56.485  1.00  0.00     0.049 A 
HETATM   17  C20 UNL     1      22.444  12.821  55.233  1.00  0.00     0.005 A 
HETATM   18  C21 UNL     1      22.273  11.418  54.849  1.00  0.00     0.018 A 
HETATM   19  C22 UNL     1      22.212  10.460  55.753  1.00  0.00     0.102 A 
HETATM   20  N2  UNL     1      22.313  10.798  57.117  1.00  0.00    -0.274 N 
ENDROOT
BRANCH   5  21
HETATM   21  C5  UNL     1      22.286   8.524  62.858  1.00  0.00    -0.025 A 
HETATM   22  C6  UNL     1      21.133   8.463  63.620  1.00  0.00     0.012 A 
HETATM   23  C7  UNL     1      20.970   7.549  64.645  1.00  0.00     0.001 A 
HETATM   24  C8  UNL     1      21.995   6.674  64.909  1.00  0.00     0.000 A 
HETATM   25  C9  UNL     1      23.136   6.734  64.155  1.00  0.00     0.001 A 
HETATM   26  C10 UNL     1      23.293   7.641  63.141  1.00  0.00     0.012 A 
ENDBRANCH   5  21
TORSDOF 1
ENDMDL
