MODEL 1
REMARK VINA RESULT: 2.170419739      0.000      0.000
REMARK  3 active torsions:
REMARK  status: ('A' for Active; 'I' for Inactive)
REMARK    1  A    between atoms: C5_7  and  C6_8 
REMARK    2  A    between atoms: C15_17  and  C16_18 
REMARK    3  A    between atoms: C17_19  and  C18_20 
ROOT
HETATM    1  O1  UNL     1      25.471  10.394  56.813  1.00  0.00    -0.258 OA
HETATM    2  C1  UNL     1      24.887  10.004  57.877  1.00  0.00     0.307 A 
HETATM    3  O2  UNL     1      25.560   9.396  58.816  1.00  0.00    -0.274 OA
HETATM    4  C2  UNL     1      24.970   9.001  59.893  1.00  0.00     0.089 A 
HETATM    5  C3  UNL     1      25.621   8.351  60.927  1.00  0.00     0.039 A 
HETATM    6  C4  UNL     1      24.946   7.949  62.057  1.00  0.00     0.015 A 
HETATM    7  C5  UNL     1      23.593   8.170  62.222  1.00  0.00    -0.025 A 
HETATM    8  C12 UNL     1      22.949   8.815  61.191  1.00  0.00     0.026 A 
HETATM    9  C13 UNL     1      23.620   9.224  60.050  1.00  0.00     0.000 A 
HETATM   10  C14 UNL     1      22.877   9.866  59.074  1.00  0.00     0.041 A 
HETATM   11  C15 UNL     1      23.540  10.271  57.942  1.00  0.00     0.094 A 
ENDROOT
BRANCH  11  12
HETATM   12  C16 UNL     1      22.824  10.944  56.888  1.00  0.00    -0.055 C 
HETATM   13  C17 UNL     1      22.205  11.508  56.016  1.00  0.00    -0.061 C 
BRANCH  13  14
HETATM   14  C18 UNL     1      21.450  12.169  54.990  1.00  0.00     0.018 A 
HETATM   15  C19 UNL     1      21.563  11.859  53.649  1.00  0.00     0.020 A 
HETATM   16  C20 UNL     1      20.839  12.494  52.674  1.00  0.00     0.001 A 
HETATM   17  C21 UNL     1      19.964  13.481  53.027  1.00  0.00     0.000 A 
HETATM   18  C22 UNL     1      19.824  13.818  54.351  1.00  0.00     0.001 A 
HETATM   19  C23 UNL     1      20.565  13.162  55.314  1.00  0.00     0.020 A 
ENDBRANCH  13  14
ENDBRANCH  11  12
BRANCH   7  20
HETATM   20  C6  UNL     1      22.854   7.754  63.408  1.00  0.00    -0.026 A 
HETATM   21  C7  UNL     1      21.636   8.314  63.736  1.00  0.00     0.012 A 
HETATM   22  C8  UNL     1      20.927   7.931  64.852  1.00  0.00     0.001 A 
HETATM   23  C9  UNL     1      21.429   6.958  65.685  1.00  0.00     0.000 A 
HETATM   24  C10 UNL     1      22.635   6.385  65.383  1.00  0.00     0.001 A 
HETATM   25  C11 UNL     1      23.343   6.774  64.261  1.00  0.00     0.012 A 
ENDBRANCH   7  20
TORSDOF 3
ENDMDL
MODEL 2
REMARK VINA RESULT: 2.205697273      0.059      1.334
REMARK  3 active torsions:
REMARK  status: ('A' for Active; 'I' for Inactive)
REMARK    1  A    between atoms: C5_7  and  C6_8 
REMARK    2  A    between atoms: C15_17  and  C16_18 
REMARK    3  A    between atoms: C17_19  and  C18_20 
ROOT
HETATM    1  O1  UNL     1      25.436  10.387  56.849  1.00  0.00    -0.258 OA
HETATM    2  C1  UNL     1      24.850   9.997  57.911  1.00  0.00     0.307 A 
HETATM    3  O2  UNL     1      25.519   9.381  58.848  1.00  0.00    -0.274 OA
HETATM    4  C2  UNL     1      24.927   8.985  59.923  1.00  0.00     0.089 A 
HETATM    5  C3  UNL     1      25.575   8.327  60.954  1.00  0.00     0.039 A 
HETATM    6  C4  UNL     1      24.898   7.924  62.083  1.00  0.00     0.015 A 
HETATM    7  C5  UNL     1      23.546   8.151  62.248  1.00  0.00    -0.025 A 
HETATM    8  C12 UNL     1      22.905   8.805  61.220  1.00  0.00     0.026 A 
HETATM    9  C13 UNL     1      23.578   9.214  60.080  1.00  0.00     0.000 A 
HETATM   10  C14 UNL     1      22.839   9.864  59.107  1.00  0.00     0.041 A 
HETATM   11  C15 UNL     1      23.504  10.271  57.977  1.00  0.00     0.094 A 
ENDROOT
BRANCH  11  12
HETATM   12  C16 UNL     1      22.792  10.952  56.926  1.00  0.00    -0.055 C 
HETATM   13  C17 UNL     1      22.176  11.523  56.057  1.00  0.00    -0.061 C 
BRANCH  13  14
HETATM   14  C18 UNL     1      21.425  12.196  55.034  1.00  0.00     0.018 A 
HETATM   15  C19 UNL     1      20.556  13.237  55.296  1.00  0.00     0.020 A 
HETATM   16  C20 UNL     1      19.842  13.875  54.316  1.00  0.00     0.001 A 
HETATM   17  C21 UNL     1      19.983  13.475  53.018  1.00  0.00     0.000 A 
HETATM   18  C22 UNL     1      20.839  12.443  52.718  1.00  0.00     0.001 A 
HETATM   19  C23 UNL     1      21.547  11.817  53.725  1.00  0.00     0.020 A 
ENDBRANCH  13  14
ENDBRANCH  11  12
BRANCH   7  20
HETATM   20  C6  UNL     1      22.804   7.735  63.432  1.00  0.00    -0.026 A 
HETATM   21  C7  UNL     1      23.293   6.775  64.294  1.00  0.00     0.012 A 
HETATM   22  C8  UNL     1      22.603   6.373  65.416  1.00  0.00     0.001 A 
HETATM   23  C9  UNL     1      21.382   6.933  65.709  1.00  0.00     0.000 A 
HETATM   24  C10 UNL     1      20.873   7.888  64.870  1.00  0.00     0.001 A 
HETATM   25  C11 UNL     1      21.570   8.288  63.746  1.00  0.00     0.012 A 
ENDBRANCH   7  20
TORSDOF 3
ENDMDL
MODEL 3
REMARK VINA RESULT: 2.443095834      0.757      9.022
REMARK  3 active torsions:
REMARK  status: ('A' for Active; 'I' for Inactive)
REMARK    1  A    between atoms: C5_7  and  C6_8 
REMARK    2  A    between atoms: C15_17  and  C16_18 
REMARK    3  A    between atoms: C17_19  and  C18_20 
ROOT
HETATM    1  O1  UNL     1      25.833   8.669  60.331  1.00  0.00    -0.258 OA
HETATM    2  C1  UNL     1      25.027   9.259  59.539  1.00  0.00     0.307 A 
HETATM    3  O2  UNL     1      25.452   9.747  58.405  1.00  0.00    -0.274 OA
HETATM    4  C2  UNL     1      24.637  10.344  57.603  1.00  0.00     0.089 A 
HETATM    5  C3  UNL     1      25.019  10.883  56.388  1.00  0.00     0.039 A 
HETATM    6  C4  UNL     1      24.110  11.512  55.566  1.00  0.00     0.015 A 
HETATM    7  C5  UNL     1      22.778  11.638  55.906  1.00  0.00    -0.025 A 
HETATM    8  C12 UNL     1      22.402  11.101  57.116  1.00  0.00     0.026 A 
HETATM    9  C13 UNL     1      23.310  10.466  57.950  1.00  0.00     0.000 A 
HETATM   10  C14 UNL     1      22.826   9.961  59.144  1.00  0.00     0.041 A 
HETATM   11  C15 UNL     1      23.724   9.332  59.971  1.00  0.00     0.094 A 
ENDROOT
BRANCH  11  12
HETATM   12  C16 UNL     1      23.285   8.785  61.229  1.00  0.00    -0.055 C 
HETATM   13  C17 UNL     1      22.896   8.329  62.279  1.00  0.00    -0.061 C 
BRANCH  13  14
HETATM   14  C18 UNL     1      22.413   7.798  63.523  1.00  0.00     0.018 A 
HETATM   15  C19 UNL     1      23.185   7.022  64.364  1.00  0.00     0.020 A 
HETATM   16  C20 UNL     1      22.719   6.518  65.550  1.00  0.00     0.001 A 
HETATM   17  C21 UNL     1      21.434   6.784  65.931  1.00  0.00     0.000 A 
HETATM   18  C22 UNL     1      20.635   7.552  65.119  1.00  0.00     0.001 A 
HETATM   19  C23 UNL     1      21.130   8.048  63.930  1.00  0.00     0.020 A 
ENDBRANCH  13  14
ENDBRANCH  11  12
BRANCH   7  20
HETATM   20  C6  UNL     1      21.795  12.299  55.056  1.00  0.00    -0.026 A 
HETATM   21  C7  UNL     1      20.985  13.307  55.535  1.00  0.00     0.012 A 
HETATM   22  C8  UNL     1      20.052  13.941  54.743  1.00  0.00     0.001 A 
HETATM   23  C9  UNL     1      19.905  13.572  53.426  1.00  0.00     0.000 A 
HETATM   24  C10 UNL     1      20.697  12.573  52.925  1.00  0.00     0.001 A 
HETATM   25  C11 UNL     1      21.631  11.942  53.724  1.00  0.00     0.012 A 
ENDBRANCH   7  20
TORSDOF 3
ENDMDL
MODEL 4
REMARK VINA RESULT: 3.348105084      1.915      2.165
REMARK  3 active torsions:
REMARK  status: ('A' for Active; 'I' for Inactive)
REMARK    1  A    between atoms: C5_7  and  C6_8 
REMARK    2  A    between atoms: C15_17  and  C16_18 
REMARK    3  A    between atoms: C17_19  and  C18_20 
ROOT
HETATM    1  O1  UNL     1      24.314  13.590  58.748  1.00  0.00    -0.258 OA
HETATM    2  C1  UNL     1      23.858  12.671  59.504  1.00  0.00     0.307 A 
HETATM    3  O2  UNL     1      24.364  12.480  60.692  1.00  0.00    -0.274 OA
HETATM    4  C2  UNL     1      23.905  11.550  61.458  1.00  0.00     0.089 A 
HETATM    5  C3  UNL     1      24.393  11.294  62.727  1.00  0.00     0.039 A 
HETATM    6  C4  UNL     1      23.867  10.288  63.506  1.00  0.00     0.015 A 
HETATM    7  C5  UNL     1      22.833   9.485  63.070  1.00  0.00    -0.025 A 
HETATM    8  C12 UNL     1      22.350   9.743  61.807  1.00  0.00     0.026 A 
HETATM    9  C13 UNL     1      22.872  10.753  61.015  1.00  0.00     0.000 A 
HETATM   10  C14 UNL     1      22.313  10.927  59.761  1.00  0.00     0.041 A 
HETATM   11  C15 UNL     1      22.829  11.928  58.974  1.00  0.00     0.094 A 
ENDROOT
BRANCH  11  12
HETATM   12  C16 UNL     1      22.293  12.161  57.658  1.00  0.00    -0.055 C 
HETATM   13  C17 UNL     1      21.823  12.349  56.560  1.00  0.00    -0.061 C 
BRANCH  13  14
HETATM   14  C18 UNL     1      21.248  12.557  55.261  1.00  0.00     0.018 A 
HETATM   15  C19 UNL     1      21.712  11.933  54.120  1.00  0.00     0.020 A 
HETATM   16  C20 UNL     1      21.158  12.136  52.883  1.00  0.00     0.001 A 
HETATM   17  C21 UNL     1      20.101  12.991  52.755  1.00  0.00     0.000 A 
HETATM   18  C22 UNL     1      19.611  13.631  53.868  1.00  0.00     0.001 A 
HETATM   19  C23 UNL     1      20.187  13.408  55.103  1.00  0.00     0.020 A 
ENDBRANCH  13  14
ENDBRANCH  11  12
BRANCH   7  20
HETATM   20  C6  UNL     1      22.258   8.413  63.874  1.00  0.00    -0.026 A 
HETATM   21  C7  UNL     1      22.982   7.286  64.202  1.00  0.00     0.012 A 
HETATM   22  C8  UNL     1      22.453   6.266  64.961  1.00  0.00     0.001 A 
HETATM   23  C9  UNL     1      21.158   6.351  65.418  1.00  0.00     0.000 A 
HETATM   24  C10 UNL     1      20.416   7.459  65.106  1.00  0.00     0.001 A 
HETATM   25  C11 UNL     1      20.954   8.480  64.345  1.00  0.00     0.012 A 
ENDBRANCH   7  20
TORSDOF 3
ENDMDL
MODEL 5
REMARK VINA RESULT: 4.377646274      1.164      9.025
REMARK  3 active torsions:
REMARK  status: ('A' for Active; 'I' for Inactive)
REMARK    1  A    between atoms: C5_7  and  C6_8 
REMARK    2  A    between atoms: C15_17  and  C16_18 
REMARK    3  A    between atoms: C17_19  and  C18_20 
ROOT
HETATM    1  O1  UNL     1      25.921   7.967  60.688  1.00  0.00    -0.258 OA
HETATM    2  C1  UNL     1      25.230   8.744  59.949  1.00  0.00     0.307 A 
HETATM    3  O2  UNL     1      25.713   9.186  58.820  1.00  0.00    -0.274 OA
HETATM    4  C2  UNL     1      25.015   9.971  58.073  1.00  0.00     0.089 A 
HETATM    5  C3  UNL     1      25.464  10.476  56.865  1.00  0.00     0.039 A 
HETATM    6  C4  UNL     1      24.680  11.313  56.103  1.00  0.00     0.015 A 
HETATM    7  C5  UNL     1      23.412  11.692  56.497  1.00  0.00    -0.025 A 
HETATM    8  C12 UNL     1      22.969  11.188  57.698  1.00  0.00     0.026 A 
HETATM    9  C13 UNL     1      23.751  10.345  58.473  1.00  0.00     0.000 A 
HETATM   10  C14 UNL     1      23.209   9.895  59.664  1.00  0.00     0.041 A 
HETATM   11  C15 UNL     1      23.982   9.060  60.433  1.00  0.00     0.094 A 
ENDROOT
BRANCH  11  12
HETATM   12  C16 UNL     1      23.476   8.557  61.684  1.00  0.00    -0.055 C 
HETATM   13  C17 UNL     1      23.033   8.144  62.730  1.00  0.00    -0.061 C 
BRANCH  13  14
HETATM   14  C18 UNL     1      22.489   7.669  63.971  1.00  0.00     0.018 A 
HETATM   15  C19 UNL     1      23.270   7.222  65.018  1.00  0.00     0.020 A 
HETATM   16  C20 UNL     1      22.745   6.770  66.200  1.00  0.00     0.001 A 
HETATM   17  C21 UNL     1      21.389   6.751  66.365  1.00  0.00     0.000 A 
HETATM   18  C22 UNL     1      20.578   7.188  65.345  1.00  0.00     0.001 A 
HETATM   19  C23 UNL     1      21.134   7.639  64.164  1.00  0.00     0.020 A 
ENDBRANCH  13  14
ENDBRANCH  11  12
BRANCH   7  20
HETATM   20  C6  UNL     1      22.561  12.576  55.710  1.00  0.00    -0.026 A 
HETATM   21  C7  UNL     1      21.221  12.312  55.521  1.00  0.00     0.012 A 
HETATM   22  C8  UNL     1      20.405  13.139  54.781  1.00  0.00     0.001 A 
HETATM   23  C9  UNL     1      20.922  14.273  54.200  1.00  0.00     0.000 A 
HETATM   24  C10 UNL     1      22.250  14.560  54.372  1.00  0.00     0.001 A 
HETATM   25  C11 UNL     1      23.064  13.726  55.116  1.00  0.00     0.012 A 
ENDBRANCH   7  20
TORSDOF 3
ENDMDL
