MODEL 1
REMARK VINA RESULT: -7.897532737      0.000      0.000
REMARK  1 active torsions:
REMARK  status: ('A' for Active; 'I' for Inactive)
REMARK    1  A    between atoms: C15_17  and  C16_18 
ROOT
HETATM    1  O1  UNL     1      20.889  12.332  60.393  1.00  0.00    -0.252 OA
HETATM    2  S1  UNL     1      22.257  11.362  60.422  1.00  0.00     0.064 S 
HETATM    3  C1  UNL     1      22.086  10.221  61.752  1.00  0.00     0.042 A 
HETATM    4  C2  UNL     1      21.063  10.736  62.542  1.00  0.00     0.022 A 
HETATM    5  C3  UNL     1      20.712  10.029  63.674  1.00  0.00     0.001 A 
HETATM    6  C4  UNL     1      21.361   8.844  64.014  1.00  0.00     0.001 A 
HETATM    7  C5  UNL     1      22.365   8.374  63.206  1.00  0.00     0.013 A 
HETATM    8  C6  UNL     1      22.757   9.053  62.048  1.00  0.00    -0.017 A 
HETATM    9  C7  UNL     1      23.833   8.236  61.490  1.00  0.00     0.013 C 
HETATM   10  C8  UNL     1      24.529   8.306  60.376  1.00  0.00     0.013 C 
HETATM   11  C9  UNL     1      24.607   9.156  59.198  1.00  0.00    -0.028 A 
HETATM   12  C10 UNL     1      25.861   8.948  58.678  1.00  0.00     0.012 A 
HETATM   13  C11 UNL     1      26.304   9.593  57.545  1.00  0.00     0.001 A 
HETATM   14  C12 UNL     1      25.452  10.461  56.940  1.00  0.00     0.001 A 
HETATM   15  C13 UNL     1      24.174  10.683  57.459  1.00  0.00     0.009 A 
HETATM   16  C14 UNL     1      23.719  10.053  58.577  1.00  0.00    -0.026 A 
HETATM   17  C15 UNL     1      22.351  10.492  58.866  1.00  0.00     0.158 C 
ENDROOT
BRANCH  17  18
HETATM   18  C16 UNL     1      21.771  11.380  57.833  1.00  0.00     0.003 A 
HETATM   19  C17 UNL     1      20.547  11.283  57.203  1.00  0.00     0.016 A 
HETATM   20  C18 UNL     1      20.231  12.225  56.315  1.00  0.00     0.008 A 
HETATM   21  C19 UNL     1      21.133  13.222  56.084  1.00  0.00     0.050 A 
HETATM   22  S2  UNL     1      22.419  12.820  57.123  1.00  0.00    -0.105 SA
ENDBRANCH  17  18
TORSDOF 1
ENDMDL
MODEL 2
REMARK VINA RESULT: -7.719520639      1.356      5.367
REMARK  1 active torsions:
REMARK  status: ('A' for Active; 'I' for Inactive)
REMARK    1  A    between atoms: C15_17  and  C16_18 
ROOT
HETATM    1  O1  UNL     1      20.005  11.013  58.928  1.00  0.00    -0.252 OA
HETATM    2  S1  UNL     1      21.515  10.548  58.365  1.00  0.00     0.064 S 
HETATM    3  C1  UNL     1      21.909  11.552  56.974  1.00  0.00     0.042 A 
HETATM    4  C2  UNL     1      20.704  12.133  56.592  1.00  0.00     0.022 A 
HETATM    5  C3  UNL     1      20.721  12.985  55.507  1.00  0.00     0.001 A 
HETATM    6  C4  UNL     1      21.901  13.252  54.818  1.00  0.00     0.001 A 
HETATM    7  C5  UNL     1      23.067  12.656  55.228  1.00  0.00     0.013 A 
HETATM    8  C6  UNL     1      23.102  11.785  56.323  1.00  0.00    -0.017 A 
HETATM    9  C7  UNL     1      24.503  11.379  56.422  1.00  0.00     0.013 C 
HETATM   10  C8  UNL     1      25.168  10.651  57.294  1.00  0.00     0.013 C 
HETATM   11  C9  UNL     1      24.901   9.918  58.521  1.00  0.00    -0.028 A 
HETATM   12  C10 UNL     1      25.920   9.003  58.631  1.00  0.00     0.012 A 
HETATM   13  C11 UNL     1      26.002   8.117  59.681  1.00  0.00     0.001 A 
HETATM   14  C12 UNL     1      25.031   8.170  60.629  1.00  0.00     0.001 A 
HETATM   15  C13 UNL     1      23.988   9.094  60.530  1.00  0.00     0.009 A 
HETATM   16  C14 UNL     1      23.891   9.978  59.499  1.00  0.00    -0.026 A 
HETATM   17  C15 UNL     1      22.698  10.810  59.676  1.00  0.00     0.158 C 
ENDROOT
BRANCH  17  18
HETATM   18  C16 UNL     1      21.989  10.584  60.957  1.00  0.00     0.003 A 
HETATM   19  C17 UNL     1      21.128   9.561  61.296  1.00  0.00     0.016 A 
HETATM   20  C18 UNL     1      20.626   9.557  62.530  1.00  0.00     0.008 A 
HETATM   21  C19 UNL     1      20.992  10.561  63.377  1.00  0.00     0.050 A 
HETATM   22  S2  UNL     1      22.041  11.501  62.424  1.00  0.00    -0.105 SA
ENDBRANCH  17  18
TORSDOF 1
ENDMDL
MODEL 3
REMARK VINA RESULT: -5.570725073      1.199      1.426
REMARK  1 active torsions:
REMARK  status: ('A' for Active; 'I' for Inactive)
REMARK    1  A    between atoms: C15_17  and  C16_18 
ROOT
HETATM    1  O1  UNL     1      20.625  10.749  61.196  1.00  0.00    -0.252 OA
HETATM    2  S1  UNL     1      22.222  10.240  61.123  1.00  0.00     0.064 S 
HETATM    3  C1  UNL     1      22.475   9.060  62.406  1.00  0.00     0.042 A 
HETATM    4  C2  UNL     1      21.388   9.214  63.261  1.00  0.00     0.022 A 
HETATM    5  C3  UNL     1      21.329   8.400  64.373  1.00  0.00     0.001 A 
HETATM    6  C4  UNL     1      22.323   7.458  64.630  1.00  0.00     0.001 A 
HETATM    7  C5  UNL     1      23.377   7.340  63.760  1.00  0.00     0.013 A 
HETATM    8  C6  UNL     1      23.482   8.143  62.619  1.00  0.00    -0.017 A 
HETATM    9  C7  UNL     1      24.723   7.709  61.980  1.00  0.00     0.013 C 
HETATM   10  C8  UNL     1      25.305   8.023  60.842  1.00  0.00     0.013 C 
HETATM   11  C9  UNL     1      25.059   8.892  59.703  1.00  0.00    -0.028 A 
HETATM   12  C10 UNL     1      26.288   9.092  59.121  1.00  0.00     0.012 A 
HETATM   13  C11 UNL     1      26.453   9.876  58.002  1.00  0.00     0.001 A 
HETATM   14  C12 UNL     1      25.348  10.462  57.474  1.00  0.00     0.001 A 
HETATM   15  C13 UNL     1      24.092  10.269  58.055  1.00  0.00     0.009 A 
HETATM   16  C14 UNL     1      23.910   9.496  59.161  1.00  0.00    -0.026 A 
HETATM   17  C15 UNL     1      22.491   9.489  59.526  1.00  0.00     0.158 C 
ENDROOT
BRANCH  17  18
HETATM   18  C16 UNL     1      21.614  10.190  58.561  1.00  0.00     0.003 A 
HETATM   19  C17 UNL     1      21.090   9.720  57.374  1.00  0.00     0.016 A 
HETATM   20  C18 UNL     1      20.299  10.536  56.679  1.00  0.00     0.008 A 
HETATM   21  C19 UNL     1      20.058  11.782  57.181  1.00  0.00     0.050 A 
HETATM   22  S2  UNL     1      20.951  11.788  58.629  1.00  0.00    -0.105 SA
ENDBRANCH  17  18
TORSDOF 1
ENDMDL
MODEL 4
REMARK VINA RESULT: -4.010483041      1.775      1.934
REMARK  1 active torsions:
REMARK  status: ('A' for Active; 'I' for Inactive)
REMARK    1  A    between atoms: C15_17  and  C16_18 
ROOT
HETATM    1  O1  UNL     1      22.591  13.344  59.401  1.00  0.00    -0.252 OA
HETATM    2  S1  UNL     1      22.950  11.705  59.382  1.00  0.00     0.064 S 
HETATM    3  C1  UNL     1      22.596  11.053  60.979  1.00  0.00     0.042 A 
HETATM    4  C2  UNL     1      22.486  12.165  61.809  1.00  0.00     0.022 A 
HETATM    5  C3  UNL     1      22.206  11.943  63.141  1.00  0.00     0.001 A 
HETATM    6  C4  UNL     1      22.041  10.651  63.637  1.00  0.00     0.001 A 
HETATM    7  C5  UNL     1      22.160   9.584  62.783  1.00  0.00     0.013 A 
HETATM    8  C6  UNL     1      22.442   9.758  61.424  1.00  0.00    -0.017 A 
HETATM    9  C7  UNL     1      22.484   8.400  60.883  1.00  0.00     0.013 C 
HETATM   10  C8  UNL     1      22.615   7.923  59.664  1.00  0.00     0.013 C 
HETATM   11  C9  UNL     1      22.777   8.433  58.312  1.00  0.00    -0.028 A 
HETATM   12  C10 UNL     1      23.335   7.402  57.595  1.00  0.00     0.012 A 
HETATM   13  C11 UNL     1      23.641   7.517  56.258  1.00  0.00     0.001 A 
HETATM   14  C12 UNL     1      23.372   8.700  55.649  1.00  0.00     0.001 A 
HETATM   15  C13 UNL     1      22.805   9.758  56.365  1.00  0.00     0.009 A 
HETATM   16  C14 UNL     1      22.495   9.661  57.688  1.00  0.00    -0.026 A 
HETATM   17  C15 UNL     1      21.919  10.927  58.150  1.00  0.00     0.158 C 
ENDROOT
BRANCH  17  18
HETATM   18  C16 UNL     1      21.698  11.920  57.074  1.00  0.00     0.003 A 
HETATM   19  C17 UNL     1      20.534  12.204  56.390  1.00  0.00     0.016 A 
HETATM   20  C18 UNL     1      20.576  13.167  55.470  1.00  0.00     0.008 A 
HETATM   21  C19 UNL     1      21.761  13.808  55.261  1.00  0.00     0.050 A 
HETATM   22  S2  UNL     1      22.806  13.046  56.366  1.00  0.00    -0.105 SA
ENDBRANCH  17  18
TORSDOF 1
ENDMDL
