MODEL 1
REMARK VINA RESULT: -10.146607990      0.000      0.000
REMARK  5 active torsions:
REMARK  status: ('A' for Active; 'I' for Inactive)
REMARK       I    between atoms: C1_2  and  N2_4 
REMARK    1  A    between atoms: C3_9  and  N4_10 
REMARK    2  A    between atoms: C9_18  and  N6_19 
REMARK    3  A    between atoms: N6_19  and  C10_21 
REMARK    4  A    between atoms: C13_24  and  C14_25 
REMARK    5  A    between atoms: C14_25  and  N7_26 
ROOT
HETATM    1  N1  UNL     1      17.609   2.456   3.538  1.00  0.00    -0.039 NA
HETATM    2  C1  UNL     1      18.097   3.356   2.511  1.00  0.00     0.346 C 
HETATM    3  O1  UNL     1      19.170   3.914   2.771  1.00  0.00    -0.250 OA
HETATM    4  N2  UNL     1      17.308   3.478   1.375  1.00  0.00    -0.142 N 
ATOM      5  H2  UNL     1      16.945   2.618   0.962  1.00  0.00     0.188 HD
HETATM    6  C2  UNL     1      17.000   4.576   0.808  1.00  0.00     0.715 A 
HETATM    7  N3  UNL     1      16.207   4.532  -0.318  1.00  0.00    -0.021 N 
ATOM      8  H3  UNL     1      15.885   3.625  -0.655  1.00  0.00     0.203 HD
HETATM    9  C3  UNL     1      15.845   5.627  -0.982  1.00  0.00     0.709 A 
HETATM   10  N5  UNL     1      16.288   6.808  -0.504  1.00  0.00    -0.021 N 
ATOM     11  H5  UNL     1      16.025   7.665  -0.991  1.00  0.00     0.203 HD
HETATM   12  C9  UNL     1      17.060   6.898   0.586  1.00  0.00     0.707 A 
HETATM   13  N8  UNL     1      17.405   5.773   1.228  1.00  0.00    -0.021 N 
ATOM     14  H8  UNL     1      17.992   5.836   2.060  1.00  0.00     0.203 HD
ENDROOT
BRANCH  12  15
HETATM   15  N6  UNL     1      17.456   8.042   0.993  1.00  0.00    -0.220 N 
ATOM     16  H6  UNL     1      16.842   8.840   0.832  1.00  0.00     0.178 HD
BRANCH  15  17
HETATM   17  C10 UNL     1      18.693   8.282   1.653  1.00  0.00     0.099 C 
HETATM   18  C11 UNL     1      19.108   9.724   1.733  1.00  0.00     0.026 C 
HETATM   19  C12 UNL     1      20.079   9.830   2.887  1.00  0.00     0.008 C 
HETATM   20  C13 UNL     1      21.292   8.969   2.502  1.00  0.00     0.014 C 
HETATM   21  C19 UNL     1      21.152   8.293   1.187  1.00  0.00     0.008 C 
HETATM   22  C20 UNL     1      19.856   7.550   1.009  1.00  0.00     0.026 C 
BRANCH  20  23
HETATM   23  C14 UNL     1      22.458   9.923   2.455  1.00  0.00     0.277 C 
BRANCH  23  24
HETATM   24  N7  UNL     1      22.223  11.240   2.910  1.00  0.00     0.090 N 
HETATM   25  C15 UNL     1      22.890  11.386   4.189  1.00  0.00     0.282 C 
HETATM   26  C16 UNL     1      22.925  12.795   4.686  1.00  0.00     0.104 C 
HETATM   27  S1  UNL     1      24.095  13.682   3.575  1.00  0.00    -0.166 SA
HETATM   28  C17 UNL     1      24.024  12.688   2.025  1.00  0.00     0.104 C 
HETATM   29  C18 UNL     1      22.565  12.229   1.963  1.00  0.00     0.282 C 
ENDBRANCH  23  24
ENDBRANCH  20  23
ENDBRANCH  15  17
ENDBRANCH  12  15
BRANCH   9  30
HETATM   30  N4  UNL     1      15.029   5.608  -2.143  1.00  0.00    -0.217 N 
HETATM   31  C4  UNL     1      14.507   4.341  -2.595  1.00  0.00     0.141 C 
HETATM   32  C5  UNL     1      13.151   4.474  -3.233  1.00  0.00     0.020 C 
HETATM   33  C6  UNL     1      12.547   5.787  -2.787  1.00  0.00     0.003 C 
HETATM   34  C7  UNL     1      13.382   6.891  -3.428  1.00  0.00     0.020 C 
HETATM   35  C8  UNL     1      14.767   6.861  -2.817  1.00  0.00     0.141 C 
ENDBRANCH   9  30
TORSDOF 5
ENDMDL
MODEL 2
REMARK VINA RESULT: -9.854986460      0.930      1.275
REMARK  5 active torsions:
REMARK  status: ('A' for Active; 'I' for Inactive)
REMARK       I    between atoms: C1_2  and  N2_4 
REMARK    1  A    between atoms: C3_9  and  N4_10 
REMARK    2  A    between atoms: C9_18  and  N6_19 
REMARK    3  A    between atoms: N6_19  and  C10_21 
REMARK    4  A    between atoms: C13_24  and  C14_25 
REMARK    5  A    between atoms: C14_25  and  N7_26 
ROOT
HETATM    1  N1  UNL     1      17.669   2.535   3.575  1.00  0.00    -0.039 NA
HETATM    2  C1  UNL     1      18.155   3.423   2.535  1.00  0.00     0.346 C 
HETATM    3  O1  UNL     1      19.225   3.989   2.790  1.00  0.00    -0.250 OA
HETATM    4  N2  UNL     1      17.367   3.525   1.397  1.00  0.00    -0.142 N 
ATOM      5  H2  UNL     1      17.008   2.658   0.995  1.00  0.00     0.188 HD
HETATM    6  C2  UNL     1      17.055   4.614   0.815  1.00  0.00     0.715 A 
HETATM    7  N3  UNL     1      16.264   4.550  -0.312  1.00  0.00    -0.021 N 
ATOM      8  H3  UNL     1      15.947   3.638  -0.638  1.00  0.00     0.203 HD
HETATM    9  C3  UNL     1      15.897   5.635  -0.991  1.00  0.00     0.709 A 
HETATM   10  N5  UNL     1      16.334   6.824  -0.529  1.00  0.00    -0.021 N 
ATOM     11  H5  UNL     1      16.068   7.673  -1.028  1.00  0.00     0.203 HD
HETATM   12  C9  UNL     1      17.104   6.932   0.560  1.00  0.00     0.707 A 
HETATM   13  N8  UNL     1      17.453   5.819   1.218  1.00  0.00    -0.021 N 
ATOM     14  H8  UNL     1      18.038   5.895   2.051  1.00  0.00     0.203 HD
ENDROOT
BRANCH  12  15
HETATM   15  N6  UNL     1      17.494   8.084   0.952  1.00  0.00    -0.220 N 
ATOM     16  H6  UNL     1      16.926   8.890   0.691  1.00  0.00     0.178 HD
BRANCH  15  17
HETATM   17  C10 UNL     1      18.664   8.322   1.725  1.00  0.00     0.099 C 
HETATM   18  C11 UNL     1      18.850   9.740   2.187  1.00  0.00     0.026 C 
HETATM   19  C12 UNL     1      19.767   9.685   3.388  1.00  0.00     0.008 C 
HETATM   20  C13 UNL     1      21.106   9.134   2.875  1.00  0.00     0.014 C 
HETATM   21  C19 UNL     1      21.102   8.805   1.427  1.00  0.00     0.008 C 
HETATM   22  C20 UNL     1      19.940   7.954   0.990  1.00  0.00     0.026 C 
BRANCH  20  23
HETATM   23  C14 UNL     1      22.112  10.226   3.138  1.00  0.00     0.277 C 
BRANCH  23  24
HETATM   24  N7  UNL     1      23.110  10.423   2.158  1.00  0.00     0.090 N 
HETATM   25  C15 UNL     1      23.090  11.825   1.789  1.00  0.00     0.282 C 
HETATM   26  C16 UNL     1      24.244  12.232   0.929  1.00  0.00     0.104 C 
HETATM   27  S1  UNL     1      25.721  12.177   2.027  1.00  0.00    -0.166 SA
HETATM   28  C17 UNL     1      25.228  10.959   3.319  1.00  0.00     0.104 C 
HETATM   29  C18 UNL     1      24.380   9.945   2.547  1.00  0.00     0.282 C 
ENDBRANCH  23  24
ENDBRANCH  20  23
ENDBRANCH  15  17
ENDBRANCH  12  15
BRANCH   9  30
HETATM   30  N4  UNL     1      15.084   5.596  -2.154  1.00  0.00    -0.217 N 
HETATM   31  C4  UNL     1      14.691   4.308  -2.674  1.00  0.00     0.141 C 
HETATM   32  C5  UNL     1      13.327   4.338  -3.307  1.00  0.00     0.020 C 
HETATM   33  C6  UNL     1      12.594   5.557  -2.793  1.00  0.00     0.003 C 
HETATM   34  C7  UNL     1      13.311   6.772  -3.371  1.00  0.00     0.020 C 
HETATM   35  C8  UNL     1      14.694   6.850  -2.759  1.00  0.00     0.141 C 
ENDBRANCH   9  30
TORSDOF 5
ENDMDL
MODEL 3
REMARK VINA RESULT: -9.435710685      3.613      5.132
REMARK  5 active torsions:
REMARK  status: ('A' for Active; 'I' for Inactive)
REMARK       I    between atoms: C1_2  and  N2_4 
REMARK    1  A    between atoms: C3_9  and  N4_10 
REMARK    2  A    between atoms: C9_18  and  N6_19 
REMARK    3  A    between atoms: N6_19  and  C10_21 
REMARK    4  A    between atoms: C13_24  and  C14_25 
REMARK    5  A    between atoms: C14_25  and  N7_26 
ROOT
HETATM    1  N1  UNL     1      24.936   8.439   0.353  1.00  0.00    -0.039 NA
HETATM    2  C1  UNL     1      23.556   8.343  -0.086  1.00  0.00     0.346 C 
HETATM    3  O1  UNL     1      23.106   9.364  -0.619  1.00  0.00    -0.250 OA
HETATM    4  N2  UNL     1      22.922   7.130   0.145  1.00  0.00    -0.142 N 
ATOM      5  H2  UNL     1      23.436   6.280  -0.086  1.00  0.00     0.188 HD
HETATM    6  C2  UNL     1      21.749   6.994   0.623  1.00  0.00     0.715 A 
HETATM    7  N3  UNL     1      21.255   5.719   0.792  1.00  0.00    -0.021 N 
ATOM      8  H3  UNL     1      21.845   4.927   0.537  1.00  0.00     0.203 HD
HETATM    9  C3  UNL     1      20.037   5.480   1.274  1.00  0.00     0.709 A 
HETATM   10  N5  UNL     1      19.287   6.553   1.601  1.00  0.00    -0.021 N 
ATOM     11  H5  UNL     1      18.350   6.401   1.974  1.00  0.00     0.203 HD
HETATM   12  C9  UNL     1      19.727   7.808   1.454  1.00  0.00     0.707 A 
HETATM   13  N8  UNL     1      20.958   8.009   0.965  1.00  0.00    -0.021 N 
ATOM     14  H8  UNL     1      21.299   8.964   0.852  1.00  0.00     0.203 HD
ENDROOT
BRANCH  12  15
HETATM   15  N6  UNL     1      18.972   8.788   1.775  1.00  0.00    -0.220 N 
ATOM     16  H6  UNL     1      17.969   8.682   1.627  1.00  0.00     0.178 HD
BRANCH  15  17
HETATM   17  C10 UNL     1      19.433  10.017   2.323  1.00  0.00     0.099 C 
HETATM   18  C11 UNL     1      20.279  10.852   1.403  1.00  0.00     0.026 C 
HETATM   19  C12 UNL     1      20.197  12.273   1.914  1.00  0.00     0.008 C 
HETATM   20  C13 UNL     1      20.827  12.257   3.315  1.00  0.00     0.014 C 
HETATM   21  C19 UNL     1      21.284  10.913   3.751  1.00  0.00     0.008 C 
HETATM   22  C20 UNL     1      20.255   9.827   3.585  1.00  0.00     0.026 C 
BRANCH  20  23
HETATM   23  C14 UNL     1      22.012  13.186   3.229  1.00  0.00     0.277 C 
BRANCH  23  24
HETATM   24  N7  UNL     1      23.256  12.603   2.899  1.00  0.00     0.090 N 
HETATM   25  C15 UNL     1      23.465  12.793   1.478  1.00  0.00     0.282 C 
HETATM   26  C16 UNL     1      24.843  12.433   1.024  1.00  0.00     0.104 C 
HETATM   27  S1  UNL     1      25.947  13.732   1.719  1.00  0.00    -0.166 SA
HETATM   28  C17 UNL     1      25.009  14.325   3.190  1.00  0.00     0.104 C 
HETATM   29  C18 UNL     1      24.320  13.059   3.707  1.00  0.00     0.282 C 
ENDBRANCH  23  24
ENDBRANCH  20  23
ENDBRANCH  15  17
ENDBRANCH  12  15
BRANCH   9  30
HETATM   30  N4  UNL     1      19.505   4.177   1.456  1.00  0.00    -0.217 N 
HETATM   31  C4  UNL     1      18.759   3.902   2.660  1.00  0.00     0.141 C 
HETATM   32  C5  UNL     1      17.654   2.907   2.435  1.00  0.00     0.020 C 
HETATM   33  C6  UNL     1      17.356   2.860   0.953  1.00  0.00     0.003 C 
HETATM   34  C7  UNL     1      18.575   2.236   0.282  1.00  0.00     0.020 C 
HETATM   35  C8  UNL     1      19.742   3.191   0.425  1.00  0.00     0.141 C 
ENDBRANCH   9  30
TORSDOF 5
ENDMDL
MODEL 4
REMARK VINA RESULT: -9.334927668      2.933      4.910
REMARK  5 active torsions:
REMARK  status: ('A' for Active; 'I' for Inactive)
REMARK       I    between atoms: C1_2  and  N2_4 
REMARK    1  A    between atoms: C3_9  and  N4_10 
REMARK    2  A    between atoms: C9_18  and  N6_19 
REMARK    3  A    between atoms: N6_19  and  C10_21 
REMARK    4  A    between atoms: C13_24  and  C14_25 
REMARK    5  A    between atoms: C14_25  and  N7_26 
ROOT
HETATM    1  N1  UNL     1      24.761   7.525   0.885  1.00  0.00    -0.039 NA
HETATM    2  C1  UNL     1      23.502   8.012   0.353  1.00  0.00     0.346 C 
HETATM    3  O1  UNL     1      23.546   9.148  -0.135  1.00  0.00    -0.250 OA
HETATM    4  N2  UNL     1      22.418   7.152   0.457  1.00  0.00    -0.142 N 
ATOM      5  H2  UNL     1      22.567   6.176   0.199  1.00  0.00     0.188 HD
HETATM    6  C2  UNL     1      21.251   7.483   0.848  1.00  0.00     0.715 A 
HETATM    7  N3  UNL     1      20.276   6.512   0.894  1.00  0.00    -0.021 N 
ATOM      8  H3  UNL     1      20.519   5.559   0.623  1.00  0.00     0.203 HD
HETATM    9  C3  UNL     1      19.028   6.768   1.279  1.00  0.00     0.709 A 
HETATM   10  N5  UNL     1      18.744   8.039   1.632  1.00  0.00    -0.021 N 
ATOM     11  H5  UNL     1      17.796   8.265   1.933  1.00  0.00     0.203 HD
HETATM   12  C9  UNL     1      19.661   9.014   1.602  1.00  0.00     0.707 A 
HETATM   13  N8  UNL     1      20.907   8.718   1.209  1.00  0.00    -0.021 N 
ATOM     14  H8  UNL     1      21.610   9.457   1.185  1.00  0.00     0.203 HD
ENDROOT
BRANCH  12  15
HETATM   15  N6  UNL     1      19.336  10.202   1.942  1.00  0.00    -0.220 N 
ATOM     16  H6  UNL     1      18.394  10.518   1.717  1.00  0.00     0.178 HD
BRANCH  15  17
HETATM   17  C10 UNL     1      20.198  11.114   2.612  1.00  0.00     0.099 C 
HETATM   18  C11 UNL     1      21.380  11.585   1.813  1.00  0.00     0.026 C 
HETATM   19  C12 UNL     1      21.825  12.891   2.430  1.00  0.00     0.008 C 
HETATM   20  C13 UNL     1      22.275  12.555   3.859  1.00  0.00     0.014 C 
HETATM   21  C19 UNL     1      22.124  11.120   4.212  1.00  0.00     0.008 C 
HETATM   22  C20 UNL     1      20.767  10.548   3.901  1.00  0.00     0.026 C 
BRANCH  20  23
HETATM   23  C14 UNL     1      23.734  12.934   3.916  1.00  0.00     0.277 C 
BRANCH  23  24
HETATM   24  N7  UNL     1      24.483  12.765   2.730  1.00  0.00     0.090 N 
HETATM   25  C15 UNL     1      25.358  13.912   2.598  1.00  0.00     0.282 C 
HETATM   26  C16 UNL     1      26.376  13.765   1.513  1.00  0.00     0.104 C 
HETATM   27  S1  UNL     1      27.558  12.487   2.115  1.00  0.00    -0.166 SA
HETATM   28  C17 UNL     1      26.537  11.507   3.295  1.00  0.00     0.104 C 
HETATM   29  C18 UNL     1      25.145  11.520   2.658  1.00  0.00     0.282 C 
ENDBRANCH  23  24
ENDBRANCH  20  23
ENDBRANCH  15  17
ENDBRANCH  12  15
BRANCH   9  30
HETATM   30  N4  UNL     1      18.005   5.785   1.335  1.00  0.00    -0.217 N 
HETATM   31  C4  UNL     1      16.847   5.950   0.489  1.00  0.00     0.141 C 
HETATM   32  C5  UNL     1      16.283   4.634   0.026  1.00  0.00     0.020 C 
HETATM   33  C6  UNL     1      17.355   3.580   0.185  1.00  0.00     0.003 C 
HETATM   34  C7  UNL     1      17.570   3.398   1.685  1.00  0.00     0.020 C 
HETATM   35  C8  UNL     1      18.176   4.670   2.240  1.00  0.00     0.141 C 
ENDBRANCH   9  30
TORSDOF 5
ENDMDL
MODEL 5
REMARK VINA RESULT: -9.223643703      2.840      5.540
REMARK  5 active torsions:
REMARK  status: ('A' for Active; 'I' for Inactive)
REMARK       I    between atoms: C1_2  and  N2_4 
REMARK    1  A    between atoms: C3_9  and  N4_10 
REMARK    2  A    between atoms: C9_18  and  N6_19 
REMARK    3  A    between atoms: N6_19  and  C10_21 
REMARK    4  A    between atoms: C13_24  and  C14_25 
REMARK    5  A    between atoms: C14_25  and  N7_26 
ROOT
HETATM    1  N1  UNL     1      16.714   3.731  -0.709  1.00  0.00    -0.039 NA
HETATM    2  C1  UNL     1      17.298   4.402   0.438  1.00  0.00     0.346 C 
HETATM    3  O1  UNL     1      16.506   4.657   1.353  1.00  0.00    -0.250 OA
HETATM    4  N2  UNL     1      18.658   4.669   0.365  1.00  0.00    -0.142 N 
ATOM      5  H2  UNL     1      19.267   3.920   0.034  1.00  0.00     0.188 HD
HETATM    6  C2  UNL     1      19.207   5.775   0.679  1.00  0.00     0.715 A 
HETATM    7  N3  UNL     1      20.575   5.886   0.555  1.00  0.00    -0.021 N 
ATOM      8  H3  UNL     1      21.102   5.084   0.209  1.00  0.00     0.203 HD
HETATM    9  C3  UNL     1      21.235   6.998   0.869  1.00  0.00     0.709 A 
HETATM   10  N5  UNL     1      20.504   8.037   1.321  1.00  0.00    -0.021 N 
ATOM     11  H5  UNL     1      20.982   8.904   1.568  1.00  0.00     0.203 HD
HETATM   12  C9  UNL     1      19.174   7.974   1.458  1.00  0.00     0.707 A 
HETATM   13  N8  UNL     1      18.544   6.837   1.131  1.00  0.00    -0.021 N 
ATOM     14  H8  UNL     1      17.530   6.784   1.232  1.00  0.00     0.203 HD
ENDROOT
BRANCH  12  15
HETATM   15  N6  UNL     1      18.531   8.987   1.896  1.00  0.00    -0.220 N 
ATOM     16  H6  UNL     1      17.512   8.956   1.853  1.00  0.00     0.178 HD
BRANCH  15  17
HETATM   17  C10 UNL     1      19.134  10.155   2.438  1.00  0.00     0.099 C 
HETATM   18  C11 UNL     1      19.957  10.960   1.471  1.00  0.00     0.026 C 
HETATM   19  C12 UNL     1      20.034  12.361   2.033  1.00  0.00     0.008 C 
HETATM   20  C13 UNL     1      20.784  12.243   3.368  1.00  0.00     0.014 C 
HETATM   21  C19 UNL     1      21.171  10.852   3.716  1.00  0.00     0.008 C 
HETATM   22  C20 UNL     1      20.049   9.854   3.611  1.00  0.00     0.026 C 
BRANCH  20  23
HETATM   23  C14 UNL     1      22.026  13.082   3.202  1.00  0.00     0.277 C 
BRANCH  23  24
HETATM   24  N7  UNL     1      23.213  12.401   2.849  1.00  0.00     0.090 N 
HETATM   25  C15 UNL     1      23.449  12.638   1.438  1.00  0.00     0.282 C 
HETATM   26  C16 UNL     1      24.791  12.172   0.972  1.00  0.00     0.104 C 
HETATM   27  S1  UNL     1      26.007  13.328   1.732  1.00  0.00    -0.166 SA
HETATM   28  C17 UNL     1      25.117  13.936   3.227  1.00  0.00     0.104 C 
HETATM   29  C18 UNL     1      24.309  12.717   3.681  1.00  0.00     0.282 C 
ENDBRANCH  23  24
ENDBRANCH  20  23
ENDBRANCH  15  17
ENDBRANCH  12  15
BRANCH   9  30
HETATM   30  N4  UNL     1      22.643   7.136   0.750  1.00  0.00    -0.217 N 
HETATM   31  C4  UNL     1      23.430   5.954   0.495  1.00  0.00     0.141 C 
HETATM   32  C5  UNL     1      24.641   6.243  -0.351  1.00  0.00     0.020 C 
HETATM   33  C6  UNL     1      24.416   7.558  -1.063  1.00  0.00     0.003 C 
HETATM   34  C7  UNL     1      24.429   8.643   0.009  1.00  0.00     0.020 C 
HETATM   35  C8  UNL     1      23.216   8.457   0.895  1.00  0.00     0.141 C 
ENDBRANCH   9  30
TORSDOF 5
ENDMDL
