MODEL 1
REMARK VINA RESULT: -8.873914623      0.000      0.000
REMARK  8 active torsions:
REMARK  status: ('A' for Active; 'I' for Inactive)
REMARK    1  A    between atoms: S1_2  and  C2_5 
REMARK    2  A    between atoms: C5_8  and  N1_9 
REMARK    3  A    between atoms: N1_9  and  C6_11 
REMARK    4  A    between atoms: C7_14  and  N3_15 
REMARK    5  A    between atoms: N3_15  and  C8_17 
REMARK    6  A    between atoms: C8_17  and  C9_18 
REMARK    7  A    between atoms: C9_18  and  N4_19 
REMARK    8  A    between atoms: N4_19  and  C10_21 
ROOT
HETATM    1  C6  UNL     1      24.497  11.855   4.396  1.00  0.00     0.262 A 
HETATM    2  N2  UNL     1      23.858  13.042   4.498  1.00  0.00    -0.152 N 
ATOM      3  H2  UNL     1      24.320  13.951   4.525  1.00  0.00     0.188 HD
HETATM    4  C7  UNL     1      22.539  12.857   4.558  1.00  0.00     0.701 A 
HETATM    5  N6  UNL     1      22.382  11.505   4.488  1.00  0.00    -0.088 N 
ATOM      6  H6  UNL     1      21.491  11.009   4.507  1.00  0.00     0.214 HD
HETATM    7  O3  UNL     1      23.547  10.950   4.394  1.00  0.00    -0.185 OA
ENDROOT
BRANCH   4   8
HETATM    8  N3  UNL     1      21.591  13.718   4.658  1.00  0.00    -0.223 N 
ATOM      9  H3  UNL     1      21.727  14.581   5.184  1.00  0.00     0.177 HD
BRANCH   8  10
HETATM   10  C8  UNL     1      20.334  13.443   4.014  1.00  0.00     0.157 C 
BRANCH  10  11
HETATM   11  C9  UNL     1      20.390  13.771   2.530  1.00  0.00     0.140 C 
BRANCH  11  12
HETATM   12  N4  UNL     1      20.056  12.638   1.712  1.00  0.00    -0.388 N 
ATOM     13  H4  UNL     1      19.095  12.534   1.385  1.00  0.00     0.159 HD
BRANCH  12  14
HETATM   14  C10 UNL     1      20.923  11.753   1.380  1.00  0.00     0.042 A 
HETATM   15  C11 UNL     1      22.196  12.098   0.981  1.00  0.00     0.047 A 
HETATM   16  C12 UNL     1      23.127  11.145   0.626  1.00  0.00     0.090 A 
HETATM   17  N5  UNL     1      22.759   9.855   0.677  1.00  0.00    -0.365 N 
HETATM   18  C13 UNL     1      21.527   9.478   1.061  1.00  0.00     0.044 A 
ATOM     19  H5  UNL     1      23.436   9.138   0.416  1.00  0.00     0.165 HD
HETATM   20  C14 UNL     1      21.168   8.127   1.108  1.00  0.00     0.030 A 
HETATM   21  C18 UNL     1      20.583  10.414   1.421  1.00  0.00     0.017 A 
HETATM   22  C15 UNL     1      19.914   7.714   1.497  1.00  0.00     0.002 A 
HETATM   23  C16 UNL     1      18.973   8.657   1.856  1.00  0.00     0.001 A 
HETATM   24  C17 UNL     1      19.324  10.000   1.812  1.00  0.00     0.016 A 
ENDBRANCH  12  14
ENDBRANCH  11  12
ENDBRANCH  10  11
ENDBRANCH   8  10
ENDBRANCH   4   8
BRANCH   1  25
HETATM   25  N1  UNL     1      25.731  11.598   4.316  1.00  0.00    -0.320 N 
ATOM     26  H1  UNL     1      26.126  11.043   5.075  1.00  0.00     0.169 HD
BRANCH  25  27
HETATM   27  C5  UNL     1      26.618  11.985   3.308  1.00  0.00     0.035 A 
HETATM   28  C4  UNL     1      26.186  12.735   2.232  1.00  0.00     0.031 A 
HETATM   29  C3  UNL     1      27.046  13.130   1.221  1.00  0.00     0.025 A 
HETATM   30  C2  UNL     1      28.381  12.789   1.246  1.00  0.00     0.059 A 
HETATM   31  C20 UNL     1      28.823  12.040   2.316  1.00  0.00     0.025 A 
HETATM   32  C19 UNL     1      27.957  11.648   3.323  1.00  0.00     0.031 A 
BRANCH  30  33
HETATM   33  S1  UNL     1      29.489  13.279  -0.025  1.00  0.00     0.171 S 
HETATM   34  C1  UNL     1      30.319  11.820  -0.609  1.00  0.00     0.167 C 
HETATM   35  O1  UNL     1      30.467  14.309   0.466  1.00  0.00    -0.223 OA
HETATM   36  O2  UNL     1      28.676  13.817  -1.176  1.00  0.00    -0.223 OA
ENDBRANCH  30  33
ENDBRANCH  25  27
ENDBRANCH   1  25
TORSDOF 8
ENDMDL
MODEL 2
REMARK VINA RESULT: -8.718775196      5.491      8.407
REMARK  8 active torsions:
REMARK  status: ('A' for Active; 'I' for Inactive)
REMARK    1  A    between atoms: S1_2  and  C2_5 
REMARK    2  A    between atoms: C5_8  and  N1_9 
REMARK    3  A    between atoms: N1_9  and  C6_11 
REMARK    4  A    between atoms: C7_14  and  N3_15 
REMARK    5  A    between atoms: N3_15  and  C8_17 
REMARK    6  A    between atoms: C8_17  and  C9_18 
REMARK    7  A    between atoms: C9_18  and  N4_19 
REMARK    8  A    between atoms: N4_19  and  C10_21 
ROOT
HETATM    1  C6  UNL     1      18.697   8.250   1.605  1.00  0.00     0.262 A 
HETATM    2  N2  UNL     1      17.674   7.638   0.966  1.00  0.00    -0.152 N 
ATOM      3  H2  UNL     1      16.723   8.002   0.910  1.00  0.00     0.188 HD
HETATM    4  C7  UNL     1      18.086   6.493   0.420  1.00  0.00     0.701 A 
HETATM    5  N6  UNL     1      19.407   6.417   0.745  1.00  0.00    -0.088 N 
ATOM      6  H6  UNL     1      20.039   5.660   0.484  1.00  0.00     0.214 HD
HETATM    7  O3  UNL     1      19.731   7.461   1.438  1.00  0.00    -0.185 OA
ENDROOT
BRANCH   4   8
HETATM    8  N3  UNL     1      17.430   5.626  -0.264  1.00  0.00    -0.223 N 
ATOM      9  H3  UNL     1      17.638   5.478  -1.252  1.00  0.00     0.177 HD
BRANCH   8  10
HETATM   10  C8  UNL     1      16.395   4.868   0.387  1.00  0.00     0.157 C 
BRANCH  10  11
HETATM   11  C9  UNL     1      16.937   4.115   1.593  1.00  0.00     0.140 C 
BRANCH  11  12
HETATM   12  N4  UNL     1      17.191   2.732   1.298  1.00  0.00    -0.388 N 
ATOM     13  H4  UNL     1      16.532   2.029   1.632  1.00  0.00     0.159 HD
BRANCH  12  14
HETATM   14  C10 UNL     1      18.218   2.352   0.630  1.00  0.00     0.042 A 
HETATM   15  C11 UNL     1      19.500   2.635   1.047  1.00  0.00     0.047 A 
HETATM   16  C12 UNL     1      20.603   2.224   0.328  1.00  0.00     0.090 A 
HETATM   17  N5  UNL     1      20.395   1.533  -0.803  1.00  0.00    -0.365 N 
HETATM   18  C13 UNL     1      19.160   1.237  -1.243  1.00  0.00     0.044 A 
ATOM     19  H5  UNL     1      21.201   1.223  -1.348  1.00  0.00     0.165 HD
HETATM   20  C14 UNL     1      18.970   0.514  -2.426  1.00  0.00     0.030 A 
HETATM   21  C18 UNL     1      18.046   1.637  -0.540  1.00  0.00     0.017 A 
HETATM   22  C15 UNL     1      17.716   0.199  -2.899  1.00  0.00     0.002 A 
HETATM   23  C16 UNL     1      16.604   0.603  -2.190  1.00  0.00     0.001 A 
HETATM   24  C17 UNL     1      16.787   1.320  -1.015  1.00  0.00     0.016 A 
ENDBRANCH  12  14
ENDBRANCH  11  12
ENDBRANCH  10  11
ENDBRANCH   8  10
ENDBRANCH   4   8
BRANCH   1  25
HETATM   25  N1  UNL     1      18.725   9.340   2.242  1.00  0.00    -0.320 N 
ATOM     26  H1  UNL     1      17.826   9.693   2.570  1.00  0.00     0.169 HD
BRANCH  25  27
HETATM   27  C5  UNL     1      19.843  10.120   2.550  1.00  0.00     0.035 A 
HETATM   28  C4  UNL     1      20.305  11.076   1.668  1.00  0.00     0.031 A 
HETATM   29  C3  UNL     1      21.411  11.861   1.950  1.00  0.00     0.025 A 
HETATM   30  C2  UNL     1      22.103  11.720   3.134  1.00  0.00     0.059 A 
HETATM   31  C20 UNL     1      21.650  10.767   4.022  1.00  0.00     0.025 A 
HETATM   32  C19 UNL     1      20.543   9.986   3.732  1.00  0.00     0.031 A 
BRANCH  30  33
HETATM   33  S1  UNL     1      23.506  12.703   3.513  1.00  0.00     0.171 S 
HETATM   34  C1  UNL     1      24.369  13.021   1.991  1.00  0.00     0.167 C 
HETATM   35  O1  UNL     1      24.395  12.029   4.518  1.00  0.00    -0.223 OA
HETATM   36  O2  UNL     1      23.021  14.034   4.033  1.00  0.00    -0.223 OA
ENDBRANCH  30  33
ENDBRANCH  25  27
ENDBRANCH   1  25
TORSDOF 8
ENDMDL
MODEL 3
REMARK VINA RESULT: -8.559674532      2.514      3.038
REMARK  8 active torsions:
REMARK  status: ('A' for Active; 'I' for Inactive)
REMARK    1  A    between atoms: S1_2  and  C2_5 
REMARK    2  A    between atoms: C5_8  and  N1_9 
REMARK    3  A    between atoms: N1_9  and  C6_11 
REMARK    4  A    between atoms: C7_14  and  N3_15 
REMARK    5  A    between atoms: N3_15  and  C8_17 
REMARK    6  A    between atoms: C8_17  and  C9_18 
REMARK    7  A    between atoms: C9_18  and  N4_19 
REMARK    8  A    between atoms: N4_19  and  C10_21 
ROOT
HETATM    1  C6  UNL     1      24.504  11.764   3.551  1.00  0.00     0.262 A 
HETATM    2  N2  UNL     1      23.843  12.926   3.754  1.00  0.00    -0.152 N 
ATOM      3  H2  UNL     1      24.219  13.853   3.553  1.00  0.00     0.188 HD
HETATM    4  C7  UNL     1      22.629  12.689   4.253  1.00  0.00     0.701 A 
HETATM    5  N6  UNL     1      22.562  11.331   4.352  1.00  0.00    -0.088 N 
ATOM      6  H6  UNL     1      21.762  10.801   4.700  1.00  0.00     0.214 HD
HETATM    7  O3  UNL     1      23.675  10.823   3.933  1.00  0.00    -0.185 OA
ENDROOT
BRANCH   4   8
HETATM    8  N3  UNL     1      21.699  13.513   4.581  1.00  0.00    -0.223 N 
ATOM      9  H3  UNL     1      21.861  14.220   5.297  1.00  0.00     0.177 HD
BRANCH   8  10
HETATM   10  C8  UNL     1      20.425  13.418   3.919  1.00  0.00     0.157 C 
BRANCH  10  11
HETATM   11  C9  UNL     1      20.568  13.595   2.416  1.00  0.00     0.140 C 
BRANCH  11  12
HETATM   12  N4  UNL     1      20.104  12.447   1.689  1.00  0.00    -0.388 N 
ATOM     13  H4  UNL     1      19.106  12.352   1.503  1.00  0.00     0.159 HD
BRANCH  12  14
HETATM   14  C10 UNL     1      20.903  11.535   1.266  1.00  0.00     0.042 A 
HETATM   15  C11 UNL     1      22.130  11.841   0.722  1.00  0.00     0.047 A 
HETATM   16  C12 UNL     1      22.988  10.860   0.269  1.00  0.00     0.090 A 
HETATM   17  N5  UNL     1      22.591   9.582   0.372  1.00  0.00    -0.365 N 
HETATM   18  C13 UNL     1      21.401   9.242   0.897  1.00  0.00     0.044 A 
ATOM     19  H5  UNL     1      23.213   8.844   0.041  1.00  0.00     0.165 HD
HETATM   20  C14 UNL     1      21.011   7.902   0.995  1.00  0.00     0.030 A 
HETATM   21  C18 UNL     1      20.531  10.207   1.356  1.00  0.00     0.017 A 
HETATM   22  C15 UNL     1      19.798   7.528   1.527  1.00  0.00     0.002 A 
HETATM   23  C16 UNL     1      18.932   8.499   1.984  1.00  0.00     0.001 A 
HETATM   24  C17 UNL     1      19.313   9.831   1.891  1.00  0.00     0.016 A 
ENDBRANCH  12  14
ENDBRANCH  11  12
ENDBRANCH  10  11
ENDBRANCH   8  10
ENDBRANCH   4   8
BRANCH   1  25
HETATM   25  N1  UNL     1      25.664  11.556   3.097  1.00  0.00    -0.320 N 
ATOM     26  H1  UNL     1      25.734  11.403   2.091  1.00  0.00     0.169 HD
BRANCH  25  27
HETATM   27  C5  UNL     1      26.864  11.510   3.813  1.00  0.00     0.035 A 
HETATM   28  C4  UNL     1      26.865  11.387   5.188  1.00  0.00     0.031 A 
HETATM   29  C3  UNL     1      28.040  11.339   5.919  1.00  0.00     0.025 A 
HETATM   30  C2  UNL     1      29.269  11.413   5.300  1.00  0.00     0.059 A 
HETATM   31  C20 UNL     1      29.280  11.537   3.927  1.00  0.00     0.025 A 
HETATM   32  C19 UNL     1      28.100  11.584   3.203  1.00  0.00     0.031 A 
BRANCH  30  33
HETATM   33  S1  UNL     1      30.772  11.355   6.206  1.00  0.00     0.171 S 
HETATM   34  C1  UNL     1      32.075  10.962   5.064  1.00  0.00     0.167 C 
HETATM   35  O1  UNL     1      30.700  10.356   7.325  1.00  0.00    -0.223 OA
HETATM   36  O2  UNL     1      31.052  12.738   6.739  1.00  0.00    -0.223 OA
ENDBRANCH  30  33
ENDBRANCH  25  27
ENDBRANCH   1  25
TORSDOF 8
ENDMDL
MODEL 4
REMARK VINA RESULT: -8.552971599      4.249      7.919
REMARK  8 active torsions:
REMARK  status: ('A' for Active; 'I' for Inactive)
REMARK    1  A    between atoms: S1_2  and  C2_5 
REMARK    2  A    between atoms: C5_8  and  N1_9 
REMARK    3  A    between atoms: N1_9  and  C6_11 
REMARK    4  A    between atoms: C7_14  and  N3_15 
REMARK    5  A    between atoms: N3_15  and  C8_17 
REMARK    6  A    between atoms: C8_17  and  C9_18 
REMARK    7  A    between atoms: C9_18  and  N4_19 
REMARK    8  A    between atoms: N4_19  and  C10_21 
ROOT
HETATM    1  C6  UNL     1      20.749   9.796   2.176  1.00  0.00     0.262 A 
HETATM    2  N2  UNL     1      20.231  11.021   2.417  1.00  0.00    -0.152 N 
ATOM      3  H2  UNL     1      19.597  11.518   1.792  1.00  0.00     0.188 HD
HETATM    4  C7  UNL     1      20.665  11.487   3.589  1.00  0.00     0.701 A 
HETATM    5  N6  UNL     1      21.475  10.501   4.068  1.00  0.00    -0.088 N 
ATOM      6  H6  UNL     1      21.979  10.527   4.954  1.00  0.00     0.214 HD
HETATM    7  O3  UNL     1      21.501   9.527   3.217  1.00  0.00    -0.185 OA
ENDROOT
BRANCH   4   8
HETATM    8  N3  UNL     1      20.409  12.601   4.177  1.00  0.00    -0.223 N 
ATOM      9  H3  UNL     1      19.652  12.666   4.858  1.00  0.00     0.177 HD
BRANCH   8  10
HETATM   10  C8  UNL     1      21.209  13.753   3.858  1.00  0.00     0.157 C 
BRANCH  10  11
HETATM   11  C9  UNL     1      22.551  13.710   4.572  1.00  0.00     0.140 C 
BRANCH  11  12
HETATM   12  N4  UNL     1      23.652  13.657   3.653  1.00  0.00    -0.388 N 
ATOM     13  H4  UNL     1      23.851  14.473   3.075  1.00  0.00     0.159 HD
BRANCH  12  14
HETATM   14  C10 UNL     1      24.396  12.618   3.533  1.00  0.00     0.042 A 
HETATM   15  C11 UNL     1      25.265  12.229   4.529  1.00  0.00     0.047 A 
HETATM   16  C12 UNL     1      26.062  11.111   4.398  1.00  0.00     0.090 A 
HETATM   17  N5  UNL     1      25.971  10.402   3.263  1.00  0.00    -0.365 N 
HETATM   18  C13 UNL     1      25.135  10.748   2.269  1.00  0.00     0.044 A 
ATOM     19  H5  UNL     1      26.554   9.572   3.150  1.00  0.00     0.165 HD
HETATM   20  C14 UNL     1      25.057   9.991   1.095  1.00  0.00     0.030 A 
HETATM   21  C18 UNL     1      24.330  11.860   2.379  1.00  0.00     0.017 A 
HETATM   22  C15 UNL     1      24.210  10.324   0.062  1.00  0.00     0.002 A 
HETATM   23  C16 UNL     1      23.407  11.440   0.179  1.00  0.00     0.001 A 
HETATM   24  C17 UNL     1      23.480  12.195   1.342  1.00  0.00     0.016 A 
ENDBRANCH  12  14
ENDBRANCH  11  12
ENDBRANCH  10  11
ENDBRANCH   8  10
ENDBRANCH   4   8
BRANCH   1  25
HETATM   25  N1  UNL     1      20.589   9.023   1.190  1.00  0.00    -0.320 N 
ATOM     26  H1  UNL     1      20.742   9.431   0.268  1.00  0.00     0.169 HD
BRANCH  25  27
HETATM   27  C5  UNL     1      20.226   7.673   1.215  1.00  0.00     0.035 A 
HETATM   28  C4  UNL     1      18.995   7.278   1.700  1.00  0.00     0.031 A 
HETATM   29  C3  UNL     1      18.613   5.948   1.736  1.00  0.00     0.025 A 
HETATM   30  C2  UNL     1      19.452   4.952   1.283  1.00  0.00     0.059 A 
HETATM   31  C20 UNL     1      20.684   5.335   0.797  1.00  0.00     0.025 A 
HETATM   32  C19 UNL     1      21.059   6.668   0.766  1.00  0.00     0.031 A 
BRANCH  30  33
HETATM   33  S1  UNL     1      18.989   3.259   1.318  1.00  0.00     0.171 S 
HETATM   34  C1  UNL     1      17.734   3.018   0.082  1.00  0.00     0.167 C 
HETATM   35  O1  UNL     1      18.506   2.850   2.680  1.00  0.00    -0.223 OA
HETATM   36  O2  UNL     1      20.183   2.437   0.902  1.00  0.00    -0.223 OA
ENDBRANCH  30  33
ENDBRANCH  25  27
ENDBRANCH   1  25
TORSDOF 8
ENDMDL
MODEL 5
REMARK VINA RESULT: -8.548659960      6.219      9.379
REMARK  8 active torsions:
REMARK  status: ('A' for Active; 'I' for Inactive)
REMARK    1  A    between atoms: S1_2  and  C2_5 
REMARK    2  A    between atoms: C5_8  and  N1_9 
REMARK    3  A    between atoms: N1_9  and  C6_11 
REMARK    4  A    between atoms: C7_14  and  N3_15 
REMARK    5  A    between atoms: N3_15  and  C8_17 
REMARK    6  A    between atoms: C8_17  and  C9_18 
REMARK    7  A    between atoms: C9_18  and  N4_19 
REMARK    8  A    between atoms: N4_19  and  C10_21 
ROOT
HETATM    1  C6  UNL     1      18.399   6.808   1.350  1.00  0.00     0.262 A 
HETATM    2  N2  UNL     1      17.924   5.574   1.070  1.00  0.00    -0.152 N 
ATOM      3  H2  UNL     1      18.409   4.701   1.281  1.00  0.00     0.188 HD
HETATM    4  C7  UNL     1      16.731   5.658   0.479  1.00  0.00     0.701 A 
HETATM    5  N6  UNL     1      16.483   6.996   0.404  1.00  0.00    -0.088 N 
ATOM      6  H6  UNL     1      15.647   7.422   0.004  1.00  0.00     0.214 HD
HETATM    7  O3  UNL     1      17.480   7.639   0.921  1.00  0.00    -0.185 OA
ENDROOT
BRANCH   4   8
HETATM    8  N3  UNL     1      15.953   4.725   0.060  1.00  0.00    -0.223 N 
ATOM      9  H3  UNL     1      15.495   4.096   0.720  1.00  0.00     0.177 HD
BRANCH   8  10
HETATM   10  C8  UNL     1      15.740   4.585  -1.355  1.00  0.00     0.157 C 
BRANCH  10  11
HETATM   11  C9  UNL     1      15.346   3.161  -1.717  1.00  0.00     0.140 C 
BRANCH  11  12
HETATM   12  N4  UNL     1      16.126   2.186  -1.006  1.00  0.00    -0.388 N 
ATOM     13  H4  UNL     1      15.921   2.014  -0.022  1.00  0.00     0.159 HD
BRANCH  12  14
HETATM   14  C10 UNL     1      17.072   1.525  -1.567  1.00  0.00     0.042 A 
HETATM   15  C11 UNL     1      16.857   0.768  -2.697  1.00  0.00     0.047 A 
HETATM   16  C12 UNL     1      17.876   0.058  -3.298  1.00  0.00     0.090 A 
HETATM   17  N5  UNL     1      19.098   0.123  -2.748  1.00  0.00    -0.365 N 
HETATM   18  C13 UNL     1      19.348   0.852  -1.646  1.00  0.00     0.044 A 
ATOM     19  H5  UNL     1      19.863  -0.396  -3.180  1.00  0.00     0.165 HD
HETATM   20  C14 UNL     1      20.632   0.904  -1.092  1.00  0.00     0.030 A 
HETATM   21  C18 UNL     1      18.345   1.568  -1.031  1.00  0.00     0.017 A 
HETATM   22  C15 UNL     1      20.915   1.641   0.036  1.00  0.00     0.002 A 
HETATM   23  C16 UNL     1      19.905   2.356   0.647  1.00  0.00     0.001 A 
HETATM   24  C17 UNL     1      18.629   2.307   0.102  1.00  0.00     0.016 A 
ENDBRANCH  12  14
ENDBRANCH  11  12
ENDBRANCH  10  11
ENDBRANCH   8  10
ENDBRANCH   4   8
BRANCH   1  25
HETATM   25  N1  UNL     1      19.481   7.159   1.900  1.00  0.00    -0.320 N 
ATOM     26  H1  UNL     1      20.049   6.411   2.296  1.00  0.00     0.169 HD
BRANCH  25  27
HETATM   27  C5  UNL     1      19.991   8.454   2.029  1.00  0.00     0.035 A 
HETATM   28  C4  UNL     1      19.753   9.200   3.167  1.00  0.00     0.031 A 
HETATM   29  C3  UNL     1      20.247  10.485   3.318  1.00  0.00     0.025 A 
HETATM   30  C2  UNL     1      21.004  11.079   2.331  1.00  0.00     0.059 A 
HETATM   31  C20 UNL     1      21.247  10.343   1.190  1.00  0.00     0.025 A 
HETATM   32  C19 UNL     1      20.749   9.059   1.046  1.00  0.00     0.031 A 
BRANCH  30  33
HETATM   33  S1  UNL     1      21.640  12.706   2.501  1.00  0.00     0.171 S 
HETATM   34  C1  UNL     1      22.383  12.829   4.111  1.00  0.00     0.167 C 
HETATM   35  O1  UNL     1      20.567  13.739   2.310  1.00  0.00    -0.223 OA
HETATM   36  O2  UNL     1      22.744  12.886   1.489  1.00  0.00    -0.223 OA
ENDBRANCH  30  33
ENDBRANCH  25  27
ENDBRANCH   1  25
TORSDOF 8
ENDMDL
