MODEL 1
REMARK VINA RESULT: -9.492015476      0.000      0.000
REMARK  5 active torsions:
REMARK  status: ('A' for Active; 'I' for Inactive)
REMARK    1  A    between atoms: C5_8  and  N2_9 
REMARK    2  A    between atoms: C10_16  and  C11_17 
REMARK    3  A    between atoms: C13_21  and  C14_22 
REMARK    4  A    between atoms: C14_22  and  C15_23 
REMARK    5  A    between atoms: C15_23  and  N5_24 
ROOT
HETATM    1  N2  UNL     1      20.708   4.807   0.658  1.00  0.00    -0.362 N 
HETATM    2  C6  UNL     1      21.626   3.795   0.170  1.00  0.00     0.131 C 
HETATM    3  C7  UNL     1      22.939   3.959   0.907  1.00  0.00     0.077 C 
HETATM    4  C8  UNL     1      23.432   5.334   0.646  1.00  0.00     0.019 A 
HETATM    5  N3  UNL     1      24.661   5.857   0.426  1.00  0.00    -0.368 N 
ATOM      6  H3  UNL     1      25.532   5.326   0.399  1.00  0.00     0.165 HD
HETATM    7  C9  UNL     1      24.555   7.185   0.248  1.00  0.00     0.104 A 
HETATM    8  C10 UNL     1      23.233   7.559   0.350  1.00  0.00     0.033 A 
HETATM    9  C21 UNL     1      22.540   6.378   0.600  1.00  0.00    -0.002 A 
HETATM   10  C22 UNL     1      21.086   6.193   0.798  1.00  0.00     0.166 C 
ENDROOT
BRANCH   8  11
HETATM   11  C11 UNL     1      22.661   8.894   0.231  1.00  0.00     0.117 A 
HETATM   12  N4  UNL     1      23.118   9.890  -0.546  1.00  0.00    -0.350 N 
HETATM   13  C12 UNL     1      22.339  10.984  -0.399  1.00  0.00     0.114 A 
ATOM     14  H4  UNL     1      23.933   9.830  -1.157  1.00  0.00     0.166 HD
HETATM   15  C13 UNL     1      21.347  10.671   0.506  1.00  0.00     0.028 A 
HETATM   16  N7  UNL     1      21.582   9.401   0.859  1.00  0.00    -0.344 N 
ATOM     17  H7  UNL     1      21.012   8.878   1.525  1.00  0.00     0.167 HD
BRANCH  15  18
HETATM   18  C14 UNL     1      20.247  11.575   0.981  1.00  0.00     0.088 C 
BRANCH  18  19
HETATM   19  C15 UNL     1      20.277  11.531   2.505  1.00  0.00     0.278 C 
BRANCH  19  20
HETATM   20  N5  UNL     1      21.520  11.975   3.047  1.00  0.00     0.092 N 
HETATM   21  C16 UNL     1      21.496  13.313   3.589  1.00  0.00     0.302 C 
HETATM   22  C17 UNL     1      22.496  13.506   4.696  1.00  0.00     0.302 C 
HETATM   23  N6  UNL     1      23.692  12.744   4.566  1.00  0.00     0.087 N 
HETATM   24  C18 UNL     1      24.724  13.387   3.775  1.00  0.00     0.310 C 
HETATM   25  C19 UNL     1      23.550  11.394   4.137  1.00  0.00     0.302 C 
HETATM   26  C20 UNL     1      22.100  11.026   3.981  1.00  0.00     0.302 C 
ENDBRANCH  19  20
ENDBRANCH  18  19
ENDBRANCH  15  18
ENDBRANCH   8  11
BRANCH   1  27
HETATM   27  C5  UNL     1      19.398   4.413   1.013  1.00  0.00     0.110 A 
HETATM   28  C4  UNL     1      19.151   3.750   2.184  1.00  0.00     0.122 A 
HETATM   29  C3  UNL     1      17.842   3.379   2.490  1.00  0.00     0.250 A 
HETATM   30  N1  UNL     1      16.881   3.695   1.605  1.00  0.00    -0.313 N 
HETATM   31  O1  UNL     1      17.622   2.769   3.571  1.00  0.00    -0.268 OA
HETATM   32  C2  UNL     1      17.095   4.344   0.449  1.00  0.00     0.081 A 
ATOM     33  H1  UNL     1      15.924   3.424   1.827  1.00  0.00     0.170 HD
HETATM   34  C1  UNL     1      15.972   4.654  -0.477  1.00  0.00     0.089 C 
HETATM   35  N8  UNL     1      18.369   4.694   0.175  1.00  0.00    -0.332 N 
ATOM     36  H8  UNL     1      18.565   5.188  -0.695  1.00  0.00     0.168 HD
ENDBRANCH   1  27
TORSDOF 5
ENDMDL
MODEL 2
REMARK VINA RESULT: -9.380725919      0.714      1.021
REMARK  5 active torsions:
REMARK  status: ('A' for Active; 'I' for Inactive)
REMARK    1  A    between atoms: C5_8  and  N2_9 
REMARK    2  A    between atoms: C10_16  and  C11_17 
REMARK    3  A    between atoms: C13_21  and  C14_22 
REMARK    4  A    between atoms: C14_22  and  C15_23 
REMARK    5  A    between atoms: C15_23  and  N5_24 
ROOT
HETATM    1  N2  UNL     1      20.725   4.834   0.603  1.00  0.00    -0.362 N 
HETATM    2  C6  UNL     1      21.637   3.836   0.079  1.00  0.00     0.131 C 
HETATM    3  C7  UNL     1      22.959   3.984   0.803  1.00  0.00     0.077 C 
HETATM    4  C8  UNL     1      23.448   5.365   0.569  1.00  0.00     0.019 A 
HETATM    5  N3  UNL     1      24.673   5.895   0.345  1.00  0.00    -0.368 N 
ATOM      6  H3  UNL     1      25.544   5.366   0.295  1.00  0.00     0.165 HD
HETATM    7  C9  UNL     1      24.563   7.226   0.201  1.00  0.00     0.104 A 
HETATM    8  C10 UNL     1      23.242   7.596   0.329  1.00  0.00     0.033 A 
HETATM    9  C21 UNL     1      22.554   6.409   0.560  1.00  0.00    -0.002 A 
HETATM   10  C22 UNL     1      21.102   6.217   0.771  1.00  0.00     0.166 C 
ENDROOT
BRANCH   8  11
HETATM   11  C11 UNL     1      22.668   8.933   0.250  1.00  0.00     0.117 A 
HETATM   12  N4  UNL     1      22.898   9.844  -0.711  1.00  0.00    -0.350 N 
HETATM   13  C12 UNL     1      22.196  10.969  -0.456  1.00  0.00     0.114 A 
ATOM     14  H4  UNL     1      23.512   9.705  -1.513  1.00  0.00     0.166 HD
HETATM   15  C13 UNL     1      21.492  10.767   0.711  1.00  0.00     0.028 A 
HETATM   16  N7  UNL     1      21.807   9.525   1.101  1.00  0.00    -0.344 N 
ATOM     17  H7  UNL     1      21.440   9.080   1.943  1.00  0.00     0.167 HD
BRANCH  15  18
HETATM   18  C14 UNL     1      20.571  11.742   1.385  1.00  0.00     0.088 C 
BRANCH  18  19
HETATM   19  C15 UNL     1      21.399  12.989   1.679  1.00  0.00     0.278 C 
BRANCH  19  20
HETATM   20  N5  UNL     1      22.467  12.739   2.591  1.00  0.00     0.092 N 
HETATM   21  C16 UNL     1      23.766  13.170   2.128  1.00  0.00     0.302 C 
HETATM   22  C17 UNL     1      24.691  13.533   3.257  1.00  0.00     0.302 C 
HETATM   23  N6  UNL     1      24.504  12.782   4.453  1.00  0.00     0.087 N 
HETATM   24  C18 UNL     1      25.245  11.536   4.494  1.00  0.00     0.310 C 
HETATM   25  C19 UNL     1      23.160  12.538   4.855  1.00  0.00     0.302 C 
HETATM   26  C20 UNL     1      22.188  13.221   3.932  1.00  0.00     0.302 C 
ENDBRANCH  19  20
ENDBRANCH  18  19
ENDBRANCH  15  18
ENDBRANCH   8  11
BRANCH   1  27
HETATM   27  C5  UNL     1      19.420   4.430   0.965  1.00  0.00     0.110 A 
HETATM   28  C4  UNL     1      19.186   3.755   2.133  1.00  0.00     0.122 A 
HETATM   29  C3  UNL     1      17.882   3.374   2.446  1.00  0.00     0.250 A 
HETATM   30  N1  UNL     1      16.912   3.693   1.572  1.00  0.00    -0.313 N 
HETATM   31  O1  UNL     1      17.675   2.753   3.523  1.00  0.00    -0.268 OA
HETATM   32  C2  UNL     1      17.112   4.354   0.420  1.00  0.00     0.081 A 
ATOM     33  H1  UNL     1      15.958   3.415   1.799  1.00  0.00     0.170 HD
HETATM   34  C1  UNL     1      15.980   4.667  -0.493  1.00  0.00     0.089 C 
HETATM   35  N8  UNL     1      18.382   4.713   0.138  1.00  0.00    -0.332 N 
ATOM     36  H8  UNL     1      18.568   5.217  -0.728  1.00  0.00     0.168 HD
ENDBRANCH   1  27
TORSDOF 5
ENDMDL
MODEL 3
REMARK VINA RESULT: -9.051102266      2.976      4.539
REMARK  5 active torsions:
REMARK  status: ('A' for Active; 'I' for Inactive)
REMARK    1  A    between atoms: C5_8  and  N2_9 
REMARK    2  A    between atoms: C10_16  and  C11_17 
REMARK    3  A    between atoms: C13_21  and  C14_22 
REMARK    4  A    between atoms: C14_22  and  C15_23 
REMARK    5  A    between atoms: C15_23  and  N5_24 
ROOT
HETATM    1  N2  UNL     1      16.991   4.154  -1.672  1.00  0.00    -0.362 N 
HETATM    2  C6  UNL     1      17.411   2.770  -1.788  1.00  0.00     0.131 C 
HETATM    3  C7  UNL     1      17.460   2.178  -0.395  1.00  0.00     0.077 C 
HETATM    4  C8  UNL     1      18.414   2.986   0.404  1.00  0.00     0.019 A 
HETATM    5  N3  UNL     1      19.338   2.678   1.344  1.00  0.00    -0.368 N 
ATOM      6  H3  UNL     1      19.546   1.737   1.680  1.00  0.00     0.165 HD
HETATM    7  C9  UNL     1      19.938   3.804   1.764  1.00  0.00     0.104 A 
HETATM    8  C10 UNL     1      19.409   4.885   1.095  1.00  0.00     0.033 A 
HETATM    9  C21 UNL     1      18.450   4.350   0.241  1.00  0.00    -0.002 A 
HETATM   10  C22 UNL     1      17.571   5.062  -0.713  1.00  0.00     0.166 C 
ENDROOT
BRANCH   8  11
HETATM   11  C11 UNL     1      19.758   6.293   1.238  1.00  0.00     0.117 A 
HETATM   12  N4  UNL     1      20.888   6.882   0.811  1.00  0.00    -0.350 N 
HETATM   13  C12 UNL     1      20.867   8.197   1.118  1.00  0.00     0.114 A 
ATOM     14  H4  UNL     1      21.649   6.405   0.327  1.00  0.00     0.166 HD
HETATM   15  C13 UNL     1      19.677   8.456   1.763  1.00  0.00     0.028 A 
HETATM   16  N7  UNL     1      19.041   7.278   1.814  1.00  0.00    -0.344 N 
ATOM     17  H7  UNL     1      18.123   7.142   2.237  1.00  0.00     0.167 HD
BRANCH  15  18
HETATM   18  C14 UNL     1      19.211   9.782   2.291  1.00  0.00     0.088 C 
BRANCH  18  19
HETATM   19  C15 UNL     1      20.017  10.848   1.556  1.00  0.00     0.278 C 
BRANCH  19  20
HETATM   20  N5  UNL     1      20.936  11.530   2.408  1.00  0.00     0.092 N 
HETATM   21  C16 UNL     1      20.748  12.961   2.472  1.00  0.00     0.302 C 
HETATM   22  C17 UNL     1      21.197  13.544   3.783  1.00  0.00     0.302 C 
HETATM   23  N6  UNL     1      22.301  12.879   4.391  1.00  0.00     0.087 N 
HETATM   24  C18 UNL     1      23.598  13.353   3.950  1.00  0.00     0.310 C 
HETATM   25  C19 UNL     1      22.290  11.456   4.359  1.00  0.00     0.302 C 
HETATM   26  C20 UNL     1      21.024  10.939   3.731  1.00  0.00     0.302 C 
ENDBRANCH  19  20
ENDBRANCH  18  19
ENDBRANCH  15  18
ENDBRANCH   8  11
BRANCH   1  27
HETATM   27  C5  UNL     1      15.970   4.621  -2.530  1.00  0.00     0.110 A 
HETATM   28  C4  UNL     1      14.670   4.695  -2.109  1.00  0.00     0.122 A 
HETATM   29  C3  UNL     1      13.696   5.160  -2.993  1.00  0.00     0.250 A 
HETATM   30  N1  UNL     1      14.093   5.515  -4.227  1.00  0.00    -0.313 N 
HETATM   31  O1  UNL     1      12.501   5.226  -2.598  1.00  0.00    -0.268 OA
HETATM   32  C2  UNL     1      15.361   5.453  -4.666  1.00  0.00     0.081 A 
ATOM     33  H1  UNL     1      13.383   5.855  -4.875  1.00  0.00     0.170 HD
HETATM   34  C1  UNL     1      15.715   5.865  -6.052  1.00  0.00     0.089 C 
HETATM   35  N8  UNL     1      16.285   5.001  -3.794  1.00  0.00    -0.332 N 
ATOM     36  H8  UNL     1      17.257   4.941  -4.096  1.00  0.00     0.168 HD
ENDBRANCH   1  27
TORSDOF 5
ENDMDL
MODEL 4
REMARK VINA RESULT: -9.023405263      3.690      9.770
REMARK  5 active torsions:
REMARK  status: ('A' for Active; 'I' for Inactive)
REMARK    1  A    between atoms: C5_8  and  N2_9 
REMARK    2  A    between atoms: C10_16  and  C11_17 
REMARK    3  A    between atoms: C13_21  and  C14_22 
REMARK    4  A    between atoms: C14_22  and  C15_23 
REMARK    5  A    between atoms: C15_23  and  N5_24 
ROOT
HETATM    1  N2  UNL     1      24.522  12.487   2.839  1.00  0.00    -0.362 N 
HETATM    2  C6  UNL     1      23.772  13.604   3.379  1.00  0.00     0.131 C 
HETATM    3  C7  UNL     1      23.002  13.112   4.586  1.00  0.00     0.077 C 
HETATM    4  C8  UNL     1      22.116  12.010   4.135  1.00  0.00     0.019 A 
HETATM    5  N3  UNL     1      20.853  11.641   4.452  1.00  0.00    -0.368 N 
ATOM      6  H3  UNL     1      20.249  12.120   5.120  1.00  0.00     0.165 HD
HETATM    7  C9  UNL     1      20.520  10.546   3.749  1.00  0.00     0.104 A 
HETATM    8  C10 UNL     1      21.576  10.174   2.947  1.00  0.00     0.033 A 
HETATM    9  C21 UNL     1      22.574  11.110   3.203  1.00  0.00    -0.002 A 
HETATM   10  C22 UNL     1      23.929  11.191   2.615  1.00  0.00     0.166 C 
ENDROOT
BRANCH   8  11
HETATM   11  C11 UNL     1      21.657   9.047   2.026  1.00  0.00     0.117 A 
HETATM   12  N4  UNL     1      22.658   8.788   1.169  1.00  0.00    -0.350 N 
HETATM   13  C12 UNL     1      22.390   7.661   0.474  1.00  0.00     0.114 A 
ATOM     14  H4  UNL     1      23.497   9.358   1.059  1.00  0.00     0.166 HD
HETATM   15  C13 UNL     1      21.171   7.184   0.906  1.00  0.00     0.028 A 
HETATM   16  N7  UNL     1      20.766   8.053   1.842  1.00  0.00    -0.344 N 
ATOM     17  H7  UNL     1      19.888   7.972   2.354  1.00  0.00     0.167 HD
BRANCH  15  18
HETATM   18  C14 UNL     1      20.465   5.952   0.419  1.00  0.00     0.088 C 
BRANCH  18  19
HETATM   19  C15 UNL     1      19.064   5.989   1.021  1.00  0.00     0.278 C 
BRANCH  19  20
HETATM   20  N5  UNL     1      18.040   5.785   0.049  1.00  0.00     0.092 N 
HETATM   21  C16 UNL     1      17.630   4.409  -0.113  1.00  0.00     0.302 C 
HETATM   22  C17 UNL     1      16.201   4.281  -0.563  1.00  0.00     0.302 C 
HETATM   23  N6  UNL     1      15.740   5.332  -1.407  1.00  0.00     0.087 N 
HETATM   24  C18 UNL     1      16.007   5.123  -2.817  1.00  0.00     0.310 C 
HETATM   25  C19 UNL     1      16.123   6.656  -1.053  1.00  0.00     0.302 C 
HETATM   26  C20 UNL     1      16.902   6.667   0.235  1.00  0.00     0.302 C 
ENDBRANCH  19  20
ENDBRANCH  18  19
ENDBRANCH  15  18
ENDBRANCH   8  11
BRANCH   1  27
HETATM   27  C5  UNL     1      25.887  12.680   2.527  1.00  0.00     0.110 A 
HETATM   28  C4  UNL     1      26.277  13.609   1.601  1.00  0.00     0.122 A 
HETATM   29  C3  UNL     1      27.635  13.762   1.324  1.00  0.00     0.250 A 
HETATM   30  N1  UNL     1      28.500  12.978   1.991  1.00  0.00    -0.313 N 
HETATM   31  O1  UNL     1      27.987  14.620   0.471  1.00  0.00    -0.268 OA
HETATM   32  C2  UNL     1      28.145  12.059   2.904  1.00  0.00     0.081 A 
ATOM     33  H1  UNL     1      29.493  13.088   1.790  1.00  0.00     0.170 HD
HETATM   34  C1  UNL     1      29.169  11.230   3.597  1.00  0.00     0.089 C 
HETATM   35  N8  UNL     1      26.827  11.929   3.155  1.00  0.00    -0.332 N 
ATOM     36  H8  UNL     1      26.524  11.240   3.844  1.00  0.00     0.168 HD
ENDBRANCH   1  27
TORSDOF 5
ENDMDL
MODEL 5
REMARK VINA RESULT: -8.992856270      1.561      2.071
REMARK  5 active torsions:
REMARK  status: ('A' for Active; 'I' for Inactive)
REMARK    1  A    between atoms: C5_8  and  N2_9 
REMARK    2  A    between atoms: C10_16  and  C11_17 
REMARK    3  A    between atoms: C13_21  and  C14_22 
REMARK    4  A    between atoms: C14_22  and  C15_23 
REMARK    5  A    between atoms: C15_23  and  N5_24 
ROOT
HETATM    1  N2  UNL     1      20.427   4.553   0.311  1.00  0.00    -0.362 N 
HETATM    2  C6  UNL     1      21.268   4.058  -0.762  1.00  0.00     0.131 C 
HETATM    3  C7  UNL     1      22.712   4.183  -0.322  1.00  0.00     0.077 C 
HETATM    4  C8  UNL     1      22.968   5.615  -0.026  1.00  0.00     0.019 A 
HETATM    5  N3  UNL     1      24.025   6.434  -0.235  1.00  0.00    -0.368 N 
ATOM      6  H3  UNL     1      24.902   6.164  -0.681  1.00  0.00     0.165 HD
HETATM    7  C9  UNL     1      23.738   7.659   0.236  1.00  0.00     0.104 A 
HETATM    8  C10 UNL     1      22.468   7.662   0.770  1.00  0.00     0.033 A 
HETATM    9  C21 UNL     1      21.998   6.364   0.594  1.00  0.00    -0.002 A 
HETATM   10  C22 UNL     1      20.686   5.803   0.983  1.00  0.00     0.166 C 
ENDROOT
BRANCH   8  11
HETATM   11  C11 UNL     1      21.753   8.769   1.392  1.00  0.00     0.117 A 
HETATM   12  N4  UNL     1      20.601   9.313   0.968  1.00  0.00    -0.350 N 
HETATM   13  C12 UNL     1      20.236  10.320   1.791  1.00  0.00     0.114 A 
ATOM     14  H4  UNL     1      20.078   9.011   0.146  1.00  0.00     0.166 HD
HETATM   15  C13 UNL     1      21.193  10.420   2.778  1.00  0.00     0.028 A 
HETATM   16  N7  UNL     1      22.089   9.465   2.496  1.00  0.00    -0.344 N 
ATOM     17  H7  UNL     1      22.926   9.285   3.052  1.00  0.00     0.167 HD
BRANCH  15  18
HETATM   18  C14 UNL     1      21.209  11.397   3.917  1.00  0.00     0.088 C 
BRANCH  18  19
HETATM   19  C15 UNL     1      21.796  12.694   3.368  1.00  0.00     0.278 C 
BRANCH  19  20
HETATM   20  N5  UNL     1      23.156  12.555   2.960  1.00  0.00     0.092 N 
HETATM   21  C16 UNL     1      23.399  12.857   1.568  1.00  0.00     0.302 C 
HETATM   22  C17 UNL     1      24.793  13.362   1.321  1.00  0.00     0.302 C 
HETATM   23  N6  UNL     1      25.790  12.821   2.182  1.00  0.00     0.087 N 
HETATM   24  C18 UNL     1      26.362  11.571   1.719  1.00  0.00     0.310 C 
HETATM   25  C19 UNL     1      25.451  12.694   3.559  1.00  0.00     0.302 C 
HETATM   26  C20 UNL     1      24.081  13.255   3.831  1.00  0.00     0.302 C 
ENDBRANCH  19  20
ENDBRANCH  18  19
ENDBRANCH  15  18
ENDBRANCH   8  11
BRANCH   1  27
HETATM   27  C5  UNL     1      19.319   3.774   0.711  1.00  0.00     0.110 A 
HETATM   28  C4  UNL     1      18.953   3.685   2.027  1.00  0.00     0.122 A 
HETATM   29  C3  UNL     1      17.854   2.902   2.375  1.00  0.00     0.250 A 
HETATM   30  N1  UNL     1      17.203   2.267   1.385  1.00  0.00    -0.313 N 
HETATM   31  O1  UNL     1      17.524   2.825   3.589  1.00  0.00    -0.268 OA
HETATM   32  C2  UNL     1      17.538   2.336   0.086  1.00  0.00     0.081 A 
ATOM     33  H1  UNL     1      16.398   1.693   1.637  1.00  0.00     0.170 HD
HETATM   34  C1  UNL     1      16.763   1.599  -0.948  1.00  0.00     0.089 C 
HETATM   35  N8  UNL     1      18.605   3.100  -0.226  1.00  0.00    -0.332 N 
ATOM     36  H8  UNL     1      18.886   3.174  -1.203  1.00  0.00     0.168 HD
ENDBRANCH   1  27
TORSDOF 5
ENDMDL
