MODEL 1
REMARK VINA RESULT: -7.456412335      0.000      0.000
REMARK  10 active torsions:
REMARK  status: ('A' for Active; 'I' for Inactive)
REMARK    1  A    between atoms: N1_2  and  O1_3 
REMARK    2  A    between atoms: N1_2  and  C2_5 
REMARK    3  A    between atoms: C3_8  and  N3_9 
REMARK    4  A    between atoms: N3_9  and  C4_11 
REMARK    5  A    between atoms: C5_14  and  N5_15 
REMARK    6  A    between atoms: N5_15  and  N6_17 
REMARK    7  A    between atoms: N6_17  and  C6_19 
REMARK    8  A    between atoms: C9_30  and  C10_31 
REMARK    9  A    between atoms: C10_31  and  C11_32 
REMARK   10  A    between atoms: C13_40  and  N16_41 
ROOT
HETATM    1  C11 UNL     1     103.114  24.391   1.378  1.00  0.00     0.104 C 
HETATM    2  N12 UNL     1     103.815  23.478   0.538  1.00  0.00    -0.087 NA
HETATM    3  N13 UNL     1     102.001  24.022   1.899  1.00  0.00    -0.285 N 
ATOM      4  H13 UNL     1     101.482  24.657   2.506  1.00  0.00     0.179 HD
HETATM    5  C12 UNL     1     101.508  22.749   1.629  1.00  0.00     0.182 C 
HETATM    6  N14 UNL     1     101.117  21.687   1.416  1.00  0.00    -0.172 NA
ENDROOT
BRANCH   1   7
HETATM    7  C10 UNL     1     103.675  25.763   1.652  1.00  0.00     0.106 C 
BRANCH   7   8
HETATM    8  C9  UNL     1     104.783  26.065   0.692  1.00  0.00     0.160 C 
HETATM    9  C6  UNL     1     104.342  26.558  -0.608  1.00  0.00     0.122 C 
HETATM   10  N7  UNL     1     105.098  27.006  -1.555  1.00  0.00    -0.317 N 
HETATM   11  C7  UNL     1     106.538  27.145  -1.585  1.00  0.00     0.196 C 
ATOM     12  H7  UNL     1     104.610  27.303  -2.401  1.00  0.00     0.170 HD
HETATM   13  N8  UNL     1     107.154  27.062  -2.867  1.00  0.00    -0.063 NA
HETATM   14  N9  UNL     1     107.338  27.343  -0.561  1.00  0.00    -0.305 N 
HETATM   15  C8  UNL     1     106.840  27.450   0.790  1.00  0.00     0.191 C 
ATOM     16  H9  UNL     1     108.341  27.423  -0.727  1.00  0.00     0.171 HD
HETATM   17  N10 UNL     1     107.616  28.245   1.712  1.00  0.00    -0.063 NA
HETATM   18  N11 UNL     1     105.785  26.913   1.277  1.00  0.00    -0.352 N 
ATOM     19  H11 UNL     1     105.626  27.125   2.262  1.00  0.00     0.163 HD
BRANCH   9  20
HETATM   20  N6  UNL     1     102.923  26.549  -0.897  1.00  0.00    -0.273 N 
ATOM     21  H6  UNL     1     102.272  26.984  -0.242  1.00  0.00     0.189 HD
BRANCH  20  22
HETATM   22  N5  UNL     1     102.435  25.954  -2.064  1.00  0.00    -0.130 N 
ATOM     23  H5  UNL     1     102.596  26.378  -2.977  1.00  0.00     0.205 HD
BRANCH  22  24
HETATM   24  C5  UNL     1     101.704  24.730  -1.937  1.00  0.00     0.726 A 
HETATM   25  N4  UNL     1     102.261  23.540  -2.222  1.00  0.00    -0.020 N 
HETATM   26  C4  UNL     1     101.576  22.391  -2.103  1.00  0.00     0.713 A 
ATOM     27  H4  UNL     1     103.230  23.509  -2.538  1.00  0.00     0.203 HD
HETATM   28  N17 UNL     1     100.312  22.418  -1.691  1.00  0.00    -0.021 N 
HETATM   29  C13 UNL     1      99.718  23.580  -1.397  1.00  0.00     0.705 A 
ATOM     30  H17 UNL     1      99.791  21.546  -1.600  1.00  0.00     0.203 HD
HETATM   31  N15 UNL     1     100.426  24.716  -1.524  1.00  0.00    -0.020 N 
ATOM     32  H15 UNL     1      99.974  25.602  -1.298  1.00  0.00     0.203 HD
BRANCH  26  33
HETATM   33  N3  UNL     1     102.162  21.120  -2.405  1.00  0.00    -0.175 N 
ATOM     34  H3  UNL     1     102.091  20.731  -3.345  1.00  0.00     0.186 HD
BRANCH  33  35
HETATM   35  C3  UNL     1     102.772  20.480  -1.488  1.00  0.00     0.138 A 
HETATM   36  N2  UNL     1     104.046  20.864  -1.216  1.00  0.00    -0.174 N 
HETATM   37  C2  UNL     1     104.725  20.218  -0.258  1.00  0.00     0.705 A 
ATOM     38  H2  UNL     1     104.479  21.631  -1.731  1.00  0.00     0.186 HD
HETATM   39  N18 UNL     1     104.167  19.199   0.436  1.00  0.00    -0.200 N 
HETATM   40  C15 UNL     1     102.914  18.795   0.195  1.00  0.00     0.110 A 
ATOM     41  H18 UNL     1     104.712  18.730   1.159  1.00  0.00     0.183 HD
HETATM   42  C14 UNL     1     102.202  19.450  -0.789  1.00  0.00     0.067 A 
BRANCH  37  43
HETATM   43  N1  UNL     1     106.056  20.597   0.047  1.00  0.00    -0.095 N 
HETATM   44  C1  UNL     1     106.892  19.731   0.845  1.00  0.00     0.205 C 
BRANCH  43  45
HETATM   45  O1  UNL     1     106.547  21.761  -0.404  1.00  0.00    -0.274 OA
ATOM     46  H1  UNL     1     107.336  21.764  -0.933  1.00  0.00     0.245 HD
ENDBRANCH  43  45
ENDBRANCH  37  43
ENDBRANCH  33  35
ENDBRANCH  26  33
BRANCH  29  47
HETATM   47  N16 UNL     1      98.484  23.639  -0.992  1.00  0.00    -0.234 N 
ATOM     48 2H16 UNL     1      98.215  23.385  -0.040  1.00  0.00     0.174 HD
ATOM     49 1H16 UNL     1      97.759  23.948  -1.638  1.00  0.00     0.174 HD
ENDBRANCH  29  47
ENDBRANCH  22  24
ENDBRANCH  20  22
ENDBRANCH   9  20
ENDBRANCH   7   8
ENDBRANCH   1   7
TORSDOF 10
ENDMDL
MODEL 2
REMARK VINA RESULT: -7.230505695      5.688      7.961
REMARK  10 active torsions:
REMARK  status: ('A' for Active; 'I' for Inactive)
REMARK    1  A    between atoms: N1_2  and  O1_3 
REMARK    2  A    between atoms: N1_2  and  C2_5 
REMARK    3  A    between atoms: C3_8  and  N3_9 
REMARK    4  A    between atoms: N3_9  and  C4_11 
REMARK    5  A    between atoms: C5_14  and  N5_15 
REMARK    6  A    between atoms: N5_15  and  N6_17 
REMARK    7  A    between atoms: N6_17  and  C6_19 
REMARK    8  A    between atoms: C9_30  and  C10_31 
REMARK    9  A    between atoms: C10_31  and  C11_32 
REMARK   10  A    between atoms: C13_40  and  N16_41 
ROOT
HETATM    1  C11 UNL     1     101.307  34.022  -2.022  1.00  0.00     0.104 C 
HETATM    2  N12 UNL     1     101.440  35.378  -1.604  1.00  0.00    -0.087 NA
HETATM    3  N13 UNL     1     100.219  33.655  -2.594  1.00  0.00    -0.285 N 
ATOM      4  H13 UNL     1     100.101  32.691  -2.905  1.00  0.00     0.179 HD
HETATM    5  C12 UNL     1      99.201  34.584  -2.788  1.00  0.00     0.182 C 
HETATM    6  N14 UNL     1      98.371  35.364  -2.961  1.00  0.00    -0.172 NA
ENDROOT
BRANCH   1   7
HETATM    7  C10 UNL     1     102.429  33.040  -1.799  1.00  0.00     0.106 C 
BRANCH   7   8
HETATM    8  C9  UNL     1     103.665  33.763  -1.363  1.00  0.00     0.160 C 
HETATM    9  C6  UNL     1     104.840  32.915  -1.206  1.00  0.00     0.122 C 
HETATM   10  N7  UNL     1     106.046  33.311  -0.965  1.00  0.00    -0.317 N 
HETATM   11  C7  UNL     1     106.547  34.659  -0.798  1.00  0.00     0.196 C 
ATOM     12  H7  UNL     1     106.742  32.571  -0.880  1.00  0.00     0.170 HD
HETATM   13  N8  UNL     1     107.694  34.808   0.034  1.00  0.00    -0.063 NA
HETATM   14  N9  UNL     1     106.062  35.758  -1.330  1.00  0.00    -0.305 N 
HETATM   15  C8  UNL     1     104.905  35.744  -2.195  1.00  0.00     0.191 C 
ATOM     16  H9  UNL     1     106.517  36.648  -1.127  1.00  0.00     0.171 HD
HETATM   17  N10 UNL     1     104.816  36.791  -3.184  1.00  0.00    -0.063 NA
HETATM   18  N11 UNL     1     103.935  34.910  -2.185  1.00  0.00    -0.352 N 
ATOM     19  H11 UNL     1     103.221  35.093  -2.890  1.00  0.00     0.163 HD
BRANCH   9  20
HETATM   20  N6  UNL     1     104.670  31.481  -1.318  1.00  0.00    -0.273 N 
ATOM     21  H6  UNL     1     103.759  31.100  -1.578  1.00  0.00     0.189 HD
BRANCH  20  22
HETATM   22  N5  UNL     1     105.738  30.613  -1.075  1.00  0.00    -0.130 N 
ATOM     23  H5  UNL     1     106.682  30.842  -1.383  1.00  0.00     0.205 HD
BRANCH  22  24
HETATM   24  C5  UNL     1     105.465  29.392  -0.380  1.00  0.00     0.726 A 
HETATM   25  N4  UNL     1     104.286  28.755  -0.504  1.00  0.00    -0.020 N 
HETATM   26  C4  UNL     1     104.030  27.609   0.147  1.00  0.00     0.713 A 
ATOM     27  H4  UNL     1     103.568  29.154  -1.108  1.00  0.00     0.203 HD
HETATM   28  N17 UNL     1     104.958  27.079   0.938  1.00  0.00    -0.021 N 
HETATM   29  C13 UNL     1     106.144  27.678   1.090  1.00  0.00     0.705 A 
ATOM     30  H17 UNL     1     104.765  26.208   1.433  1.00  0.00     0.203 HD
HETATM   31  N15 UNL     1     106.376  28.825   0.427  1.00  0.00    -0.020 N 
ATOM     32  H15 UNL     1     107.281  29.282   0.541  1.00  0.00     0.203 HD
BRANCH  26  33
HETATM   33  N3  UNL     1     102.778  26.926   0.022  1.00  0.00    -0.175 N 
ATOM     34  H3  UNL     1     101.902  27.418   0.198  1.00  0.00     0.186 HD
BRANCH  33  35
HETATM   35  C3  UNL     1     102.769  25.696  -0.311  1.00  0.00     0.138 A 
HETATM   36  N2  UNL     1     102.228  24.824   0.579  1.00  0.00    -0.174 N 
HETATM   37  C2  UNL     1     102.197  23.521   0.269  1.00  0.00     0.705 A 
ATOM     38  H2  UNL     1     101.852  25.155   1.467  1.00  0.00     0.186 HD
HETATM   39  N18 UNL     1     102.691  23.064  -0.906  1.00  0.00    -0.200 N 
HETATM   40  C15 UNL     1     103.229  23.895  -1.805  1.00  0.00     0.110 A 
ATOM     41  H18 UNL     1     102.650  22.066  -1.109  1.00  0.00     0.183 HD
HETATM   42  C14 UNL     1     103.269  25.240  -1.501  1.00  0.00     0.067 A 
BRANCH  37  43
HETATM   43  N1  UNL     1     101.639  22.588   1.178  1.00  0.00    -0.095 N 
HETATM   44  C1  UNL     1     101.625  21.181   0.856  1.00  0.00     0.205 C 
BRANCH  43  45
HETATM   45  O1  UNL     1     101.122  23.007   2.343  1.00  0.00    -0.274 OA
ATOM     46  H1  UNL     1     100.838  23.909   2.432  1.00  0.00     0.245 HD
ENDBRANCH  43  45
ENDBRANCH  37  43
ENDBRANCH  33  35
ENDBRANCH  26  33
BRANCH  29  47
HETATM   47  N16 UNL     1     107.072  27.184   1.855  1.00  0.00    -0.234 N 
ATOM     48 2H16 UNL     1     107.746  26.499   1.513  1.00  0.00     0.174 HD
ATOM     49 1H16 UNL     1     107.135  27.488   2.827  1.00  0.00     0.174 HD
ENDBRANCH  29  47
ENDBRANCH  22  24
ENDBRANCH  20  22
ENDBRANCH   9  20
ENDBRANCH   7   8
ENDBRANCH   1   7
TORSDOF 10
ENDMDL
MODEL 3
REMARK VINA RESULT: -7.215221898      5.687      8.479
REMARK  10 active torsions:
REMARK  status: ('A' for Active; 'I' for Inactive)
REMARK    1  A    between atoms: N1_2  and  O1_3 
REMARK    2  A    between atoms: N1_2  and  C2_5 
REMARK    3  A    between atoms: C3_8  and  N3_9 
REMARK    4  A    between atoms: N3_9  and  C4_11 
REMARK    5  A    between atoms: C5_14  and  N5_15 
REMARK    6  A    between atoms: N5_15  and  N6_17 
REMARK    7  A    between atoms: N6_17  and  C6_19 
REMARK    8  A    between atoms: C9_30  and  C10_31 
REMARK    9  A    between atoms: C10_31  and  C11_32 
REMARK   10  A    between atoms: C13_40  and  N16_41 
ROOT
HETATM    1  C11 UNL     1     106.866  32.604  -4.081  1.00  0.00     0.104 C 
HETATM    2  N12 UNL     1     106.289  31.372  -4.504  1.00  0.00    -0.087 NA
HETATM    3  N13 UNL     1     107.544  33.291  -4.927  1.00  0.00    -0.285 N 
ATOM      4  H13 UNL     1     107.965  34.178  -4.650  1.00  0.00     0.179 HD
HETATM    5  C12 UNL     1     107.700  32.816  -6.225  1.00  0.00     0.182 C 
HETATM    6  N14 UNL     1     107.808  32.424  -7.304  1.00  0.00    -0.172 NA
ENDROOT
BRANCH   1   7
HETATM    7  C10 UNL     1     106.678  33.092  -2.668  1.00  0.00     0.106 C 
BRANCH   7   8
HETATM    8  C9  UNL     1     105.615  34.145  -2.625  1.00  0.00     0.160 C 
HETATM    9  C6  UNL     1     104.482  33.829  -1.764  1.00  0.00     0.122 C 
HETATM   10  N7  UNL     1     103.506  34.619  -1.460  1.00  0.00    -0.317 N 
HETATM   11  C7  UNL     1     103.279  35.989  -1.868  1.00  0.00     0.196 C 
ATOM     12  H7  UNL     1     102.795  34.221  -0.845  1.00  0.00     0.170 HD
HETATM   13  N8  UNL     1     101.920  36.413  -1.929  1.00  0.00    -0.063 NA
HETATM   14  N9  UNL     1     104.188  36.883  -2.185  1.00  0.00    -0.305 N 
HETATM   15  C8  UNL     1     105.600  36.583  -2.160  1.00  0.00     0.191 C 
ATOM     16  H9  UNL     1     103.886  37.819  -2.457  1.00  0.00     0.171 HD
HETATM   17  N10 UNL     1     106.498  37.683  -1.907  1.00  0.00    -0.063 NA
HETATM   18  N11 UNL     1     106.158  35.446  -2.345  1.00  0.00    -0.352 N 
ATOM     19  H11 UNL     1     107.176  35.466  -2.281  1.00  0.00     0.163 HD
BRANCH   9  20
HETATM   20  N6  UNL     1     104.412  32.504  -1.183  1.00  0.00    -0.273 N 
ATOM     21  H6  UNL     1     104.887  32.315  -0.300  1.00  0.00     0.189 HD
BRANCH  20  22
HETATM   22  N5  UNL     1     103.701  31.482  -1.819  1.00  0.00    -0.130 N 
ATOM     23  H5  UNL     1     102.866  31.685  -2.367  1.00  0.00     0.205 HD
BRANCH  22  24
HETATM   24  C5  UNL     1     104.184  30.142  -1.677  1.00  0.00     0.726 A 
HETATM   25  N4  UNL     1     103.645  29.286  -0.789  1.00  0.00    -0.020 N 
HETATM   26  C4  UNL     1     104.096  28.029  -0.656  1.00  0.00     0.713 A 
ATOM     27  H4  UNL     1     102.874  29.601  -0.201  1.00  0.00     0.203 HD
HETATM   28  N17 UNL     1     105.101  27.605  -1.418  1.00  0.00    -0.021 N 
HETATM   29  C13 UNL     1     105.666  28.422  -2.314  1.00  0.00     0.705 A 
ATOM     30  H17 UNL     1     105.444  26.650  -1.318  1.00  0.00     0.203 HD
HETATM   31  N15 UNL     1     105.195  29.677  -2.427  1.00  0.00    -0.020 N 
ATOM     32  H15 UNL     1     105.624  30.300  -3.111  1.00  0.00     0.203 HD
BRANCH  26  33
HETATM   33  N3  UNL     1     103.530  27.112   0.287  1.00  0.00    -0.175 N 
ATOM     34  H3  UNL     1     103.724  27.212   1.283  1.00  0.00     0.186 HD
BRANCH  33  35
HETATM   35  C3  UNL     1     102.780  26.170  -0.131  1.00  0.00     0.138 A 
HETATM   36  N2  UNL     1     102.647  25.087   0.679  1.00  0.00    -0.174 N 
HETATM   37  C2  UNL     1     101.868  24.073   0.279  1.00  0.00     0.705 A 
ATOM     38  H2  UNL     1     103.131  25.047   1.575  1.00  0.00     0.186 HD
HETATM   39  N18 UNL     1     101.217  24.110  -0.907  1.00  0.00    -0.200 N 
HETATM   40  C15 UNL     1     101.325  25.161  -1.729  1.00  0.00     0.110 A 
ATOM     41  H18 UNL     1     100.632  23.321  -1.180  1.00  0.00     0.183 HD
HETATM   42  C14 UNL     1     102.124  26.213  -1.332  1.00  0.00     0.067 A 
BRANCH  37  43
HETATM   43  N1  UNL     1     101.711  22.932   1.103  1.00  0.00    -0.095 N 
HETATM   44  C1  UNL     1     102.087  21.626   0.614  1.00  0.00     0.205 C 
BRANCH  43  45
HETATM   45  O1  UNL     1     101.212  23.057   2.342  1.00  0.00    -0.274 OA
ATOM     46  H1  UNL     1     101.749  23.438   3.027  1.00  0.00     0.245 HD
ENDBRANCH  43  45
ENDBRANCH  37  43
ENDBRANCH  33  35
ENDBRANCH  26  33
BRANCH  29  47
HETATM   47  N16 UNL     1     106.648  28.037  -3.073  1.00  0.00    -0.234 N 
ATOM     48 2H16 UNL     1     106.685  28.267  -4.066  1.00  0.00     0.174 HD
ATOM     49 1H16 UNL     1     107.409  27.491  -2.669  1.00  0.00     0.174 HD
ENDBRANCH  29  47
ENDBRANCH  22  24
ENDBRANCH  20  22
ENDBRANCH   9  20
ENDBRANCH   7   8
ENDBRANCH   1   7
TORSDOF 10
ENDMDL
MODEL 4
REMARK VINA RESULT: -7.113962992      2.218      5.871
REMARK  10 active torsions:
REMARK  status: ('A' for Active; 'I' for Inactive)
REMARK    1  A    between atoms: N1_2  and  O1_3 
REMARK    2  A    between atoms: N1_2  and  C2_5 
REMARK    3  A    between atoms: C3_8  and  N3_9 
REMARK    4  A    between atoms: N3_9  and  C4_11 
REMARK    5  A    between atoms: C5_14  and  N5_15 
REMARK    6  A    between atoms: N5_15  and  N6_17 
REMARK    7  A    between atoms: N6_17  and  C6_19 
REMARK    8  A    between atoms: C9_30  and  C10_31 
REMARK    9  A    between atoms: C10_31  and  C11_32 
REMARK   10  A    between atoms: C13_40  and  N16_41 
ROOT
HETATM    1  C11 UNL     1     100.057  23.828  -1.431  1.00  0.00     0.104 C 
HETATM    2  N12 UNL     1      98.969  24.745  -1.360  1.00  0.00    -0.087 NA
HETATM    3  N13 UNL     1     101.078  24.134  -2.144  1.00  0.00    -0.285 N 
ATOM      4  H13 UNL     1     101.871  23.496  -2.209  1.00  0.00     0.179 HD
HETATM    5  C12 UNL     1     101.096  25.345  -2.829  1.00  0.00     0.182 C 
HETATM    6  N14 UNL     1     101.110  26.359  -3.377  1.00  0.00    -0.172 NA
ENDROOT
BRANCH   1   7
HETATM    7  C10 UNL     1     100.008  22.524  -0.676  1.00  0.00     0.106 C 
BRANCH   7   8
HETATM    8  C9  UNL     1     101.349  21.858  -0.714  1.00  0.00     0.160 C 
HETATM    9  C6  UNL     1     102.220  22.185   0.408  1.00  0.00     0.122 C 
HETATM   10  N7  UNL     1     103.365  21.648   0.672  1.00  0.00    -0.317 N 
HETATM   11  C7  UNL     1     104.071  20.607  -0.043  1.00  0.00     0.196 C 
ATOM     12  H7  UNL     1     103.838  22.009   1.501  1.00  0.00     0.170 HD
HETATM   13  N8  UNL     1     105.492  20.626   0.054  1.00  0.00    -0.063 NA
HETATM   14  N9  UNL     1     103.546  19.645  -0.768  1.00  0.00    -0.305 N 
HETATM   15  C8  UNL     1     102.118  19.510  -0.943  1.00  0.00     0.191 C 
ATOM     16  H9  UNL     1     104.165  18.973  -1.221  1.00  0.00     0.171 HD
HETATM   17  N10 UNL     1     101.612  18.181  -1.186  1.00  0.00    -0.063 NA
HETATM   18  N11 UNL     1     101.239  20.440  -0.915  1.00  0.00    -0.352 N 
ATOM     19  H11 UNL     1     100.284  20.114  -1.064  1.00  0.00     0.163 HD
BRANCH   9  20
HETATM   20  N6  UNL     1     101.789  23.214   1.332  1.00  0.00    -0.273 N 
ATOM     21  H6  UNL     1     100.849  23.176   1.727  1.00  0.00     0.189 HD
BRANCH  20  22
HETATM   22  N5  UNL     1     102.647  24.258   1.690  1.00  0.00    -0.130 N 
ATOM     23  H5  UNL     1     102.990  24.353   2.645  1.00  0.00     0.205 HD
BRANCH  22  24
HETATM   24  C5  UNL     1     103.029  25.190   0.673  1.00  0.00     0.726 A 
HETATM   25  N4  UNL     1     104.005  24.912  -0.211  1.00  0.00    -0.020 N 
HETATM   26  C4  UNL     1     104.363  25.785  -1.166  1.00  0.00     0.713 A 
ATOM     27  H4  UNL     1     104.485  24.014  -0.154  1.00  0.00     0.203 HD
HETATM   28  N17 UNL     1     103.744  26.960  -1.251  1.00  0.00    -0.021 N 
HETATM   29  C13 UNL     1     102.769  27.277  -0.393  1.00  0.00     0.705 A 
ATOM     30  H17 UNL     1     104.016  27.623  -1.976  1.00  0.00     0.203 HD
HETATM   31  N15 UNL     1     102.428  26.385   0.554  1.00  0.00    -0.020 N 
ATOM     32  H15 UNL     1     101.683  26.625   1.208  1.00  0.00     0.203 HD
BRANCH  26  33
HETATM   33  N3  UNL     1     105.401  25.498  -2.109  1.00  0.00    -0.175 N 
ATOM     34  H3  UNL     1     105.537  26.097  -2.924  1.00  0.00     0.186 HD
BRANCH  33  35
HETATM   35  C3  UNL     1     106.153  24.487  -1.922  1.00  0.00     0.138 A 
HETATM   36  N2  UNL     1     105.939  23.408  -2.720  1.00  0.00    -0.174 N 
HETATM   37  C2  UNL     1     106.707  22.322  -2.557  1.00  0.00     0.705 A 
ATOM     38  H2  UNL     1     105.207  23.423  -3.429  1.00  0.00     0.186 HD
HETATM   39  N18 UNL     1     107.684  22.284  -1.621  1.00  0.00    -0.200 N 
HETATM   40  C15 UNL     1     107.923  23.329  -0.820  1.00  0.00     0.110 A 
ATOM     41  H18 UNL     1     108.251  21.441  -1.525  1.00  0.00     0.183 HD
HETATM   42  C14 UNL     1     107.140  24.454  -0.974  1.00  0.00     0.067 A 
BRANCH  37  43
HETATM   43  N1  UNL     1     106.506  21.182  -3.374  1.00  0.00    -0.095 N 
HETATM   44  C1  UNL     1     107.296  20.998  -4.569  1.00  0.00     0.205 C 
BRANCH  43  45
HETATM   45  O1  UNL     1     105.583  20.268  -3.042  1.00  0.00    -0.274 OA
ATOM     46  H1  UNL     1     104.801  20.539  -2.575  1.00  0.00     0.245 HD
ENDBRANCH  43  45
ENDBRANCH  37  43
ENDBRANCH  33  35
ENDBRANCH  26  33
BRANCH  29  47
HETATM   47  N16 UNL     1     102.145  28.416  -0.451  1.00  0.00    -0.234 N 
ATOM     48 2H16 UNL     1     102.289  29.147   0.246  1.00  0.00     0.174 HD
ATOM     49 1H16 UNL     1     101.492  28.591  -1.215  1.00  0.00     0.174 HD
ENDBRANCH  29  47
ENDBRANCH  22  24
ENDBRANCH  20  22
ENDBRANCH   9  20
ENDBRANCH   7   8
ENDBRANCH   1   7
TORSDOF 10
ENDMDL
MODEL 5
REMARK VINA RESULT: -7.110007278      2.375      4.558
REMARK  10 active torsions:
REMARK  status: ('A' for Active; 'I' for Inactive)
REMARK    1  A    between atoms: N1_2  and  O1_3 
REMARK    2  A    between atoms: N1_2  and  C2_5 
REMARK    3  A    between atoms: C3_8  and  N3_9 
REMARK    4  A    between atoms: N3_9  and  C4_11 
REMARK    5  A    between atoms: C5_14  and  N5_15 
REMARK    6  A    between atoms: N5_15  and  N6_17 
REMARK    7  A    between atoms: N6_17  and  C6_19 
REMARK    8  A    between atoms: C9_30  and  C10_31 
REMARK    9  A    between atoms: C10_31  and  C11_32 
REMARK   10  A    between atoms: C13_40  and  N16_41 
ROOT
HETATM    1  C11 UNL     1     102.403  26.930  -0.551  1.00  0.00     0.104 C 
HETATM    2  N12 UNL     1     101.499  28.031  -0.531  1.00  0.00    -0.087 NA
HETATM    3  N13 UNL     1     102.400  26.146  -1.567  1.00  0.00    -0.285 N 
ATOM      4  H13 UNL     1     103.039  25.351  -1.606  1.00  0.00     0.179 HD
HETATM    5  C12 UNL     1     101.518  26.388  -2.615  1.00  0.00     0.182 C 
HETATM    6  N14 UNL     1     100.797  26.608  -3.487  1.00  0.00    -0.172 NA
ENDROOT
BRANCH   1   7
HETATM    7  C10 UNL     1     103.347  26.694   0.601  1.00  0.00     0.106 C 
BRANCH   7   8
HETATM    8  C9  UNL     1     104.597  27.496   0.412  1.00  0.00     0.160 C 
HETATM    9  C6  UNL     1     105.746  26.728  -0.053  1.00  0.00     0.122 C 
HETATM   10  N7  UNL     1     106.892  27.204  -0.411  1.00  0.00    -0.317 N 
HETATM   11  C7  UNL     1     107.335  28.581  -0.456  1.00  0.00     0.196 C 
ATOM     12  H7  UNL     1     107.582  26.511  -0.704  1.00  0.00     0.170 HD
HETATM   13  N8  UNL     1     108.732  28.801  -0.279  1.00  0.00    -0.063 NA
HETATM   14  N9  UNL     1     106.592  29.648  -0.644  1.00  0.00    -0.305 N 
HETATM   15  C8  UNL     1     105.164  29.563  -0.840  1.00  0.00     0.191 C 
ATOM     16  H9  UNL     1     107.038  30.566  -0.652  1.00  0.00     0.171 HD
HETATM   17  N10 UNL     1     104.547  30.608  -1.621  1.00  0.00    -0.063 NA
HETATM   18  N11 UNL     1     104.369  28.665  -0.393  1.00  0.00    -0.352 N 
ATOM     19  H11 UNL     1     103.393  28.804  -0.657  1.00  0.00     0.163 HD
BRANCH   9  20
HETATM   20  N6  UNL     1     105.622  25.287  -0.125  1.00  0.00    -0.273 N 
ATOM     21  H6  UNL     1     105.377  24.760   0.713  1.00  0.00     0.189 HD
BRANCH  20  22
HETATM   22  N5  UNL     1     105.835  24.611  -1.329  1.00  0.00    -0.130 N 
ATOM     23  H5  UNL     1     106.188  25.099  -2.152  1.00  0.00     0.205 HD
BRANCH  22  24
HETATM   24  C5  UNL     1     105.544  23.210  -1.373  1.00  0.00     0.726 A 
HETATM   25  N4  UNL     1     104.702  22.635  -0.495  1.00  0.00    -0.020 N 
HETATM   26  C4  UNL     1     104.426  21.322  -0.535  1.00  0.00     0.713 A 
ATOM     27  H4  UNL     1     104.260  23.213   0.220  1.00  0.00     0.203 HD
HETATM   28  N17 UNL     1     104.995  20.557  -1.463  1.00  0.00    -0.021 N 
HETATM   29  C13 UNL     1     105.839  21.087  -2.356  1.00  0.00     0.705 A 
ATOM     30  H17 UNL     1     104.787  19.560  -1.495  1.00  0.00     0.203 HD
HETATM   31  N15 UNL     1     106.097  22.406  -2.294  1.00  0.00    -0.020 N 
ATOM     32  H15 UNL     1     106.739  22.811  -2.976  1.00  0.00     0.203 HD
BRANCH  26  33
HETATM   33  N3  UNL     1     103.532  20.702   0.395  1.00  0.00    -0.175 N 
ATOM     34  H3  UNL     1     103.878  20.358   1.291  1.00  0.00     0.186 HD
BRANCH  33  35
HETATM   35  C3  UNL     1     102.300  20.584   0.093  1.00  0.00     0.138 A 
HETATM   36  N2  UNL     1     101.784  21.516  -0.749  1.00  0.00    -0.174 N 
HETATM   37  C2  UNL     1     100.492  21.430  -1.094  1.00  0.00     0.705 A 
ATOM     38  H2  UNL     1     102.369  22.268  -1.114  1.00  0.00     0.186 HD
HETATM   39  N18 UNL     1      99.701  20.439  -0.622  1.00  0.00    -0.200 N 
HETATM   40  C15 UNL     1     100.177  19.504   0.209  1.00  0.00     0.110 A 
ATOM     41  H18 UNL     1      98.722  20.403  -0.905  1.00  0.00     0.183 HD
HETATM   42  C14 UNL     1     101.505  19.579   0.574  1.00  0.00     0.067 A 
BRANCH  37  43
HETATM   43  N1  UNL     1      99.926  22.389  -1.971  1.00  0.00    -0.095 N 
HETATM   44  C1  UNL     1      99.506  23.675  -1.467  1.00  0.00     0.205 C 
BRANCH  43  45
HETATM   45  O1  UNL     1      99.778  22.107  -3.274  1.00  0.00    -0.274 OA
ATOM     46  H1  UNL     1      99.299  21.329  -3.534  1.00  0.00     0.245 HD
ENDBRANCH  43  45
ENDBRANCH  37  43
ENDBRANCH  33  35
ENDBRANCH  26  33
BRANCH  29  47
HETATM   47  N16 UNL     1     106.410  20.367  -3.275  1.00  0.00    -0.234 N 
ATOM     48 2H16 UNL     1     106.242  19.364  -3.358  1.00  0.00     0.174 HD
ATOM     49 1H16 UNL     1     107.044  20.813  -3.938  1.00  0.00     0.174 HD
ENDBRANCH  29  47
ENDBRANCH  22  24
ENDBRANCH  20  22
ENDBRANCH   9  20
ENDBRANCH   7   8
ENDBRANCH   1   7
TORSDOF 10
ENDMDL
