MODEL 1
REMARK VINA RESULT: -7.338724073      0.000      0.000
REMARK  11 active torsions:
REMARK  status: ('A' for Active; 'I' for Inactive)
REMARK       I    between atoms: C2_2  and  N1_4 
REMARK    1  A    between atoms: N1_4  and  N2_6 
REMARK    2  A    between atoms: C3_7  and  S1_8 
REMARK    3  A    between atoms: S1_8  and  C4_9 
REMARK    4  A    between atoms: C5_10  and  C6_11 
REMARK    5  A    between atoms: C9_25  and  C10_26 
REMARK    6  A    between atoms: C10_26  and  N8_27 
REMARK    7  A    between atoms: C10_26  and  N9_31 
REMARK    8  A    between atoms: C11_33  and  C12_34 
REMARK    9  A    between atoms: C12_34  and  O5_35 
REMARK   10  A    between atoms: C12_34  and  O6_37 
REMARK   11  A    between atoms: C14_40  and  N10_41 
ROOT
HETATM    1  N2  UNL     1     106.268  29.552  -1.180  1.00  0.00    -0.212 N 
HETATM    2  C3  UNL     1     105.856  30.730  -1.668  1.00  0.00     0.187 A 
HETATM    3  N6  UNL     1     104.893  30.441  -2.593  1.00  0.00    -0.277 N 
ATOM      4  H6  UNL     1     104.380  31.129  -3.143  1.00  0.00     0.189 HD
HETATM    5  N7  UNL     1     104.734  29.156  -2.662  1.00  0.00    -0.282 N 
ATOM      6  H7  UNL     1     104.077  28.677  -3.276  1.00  0.00     0.188 HD
HETATM    7  C9  UNL     1     105.572  28.551  -1.797  1.00  0.00     0.173 A 
ENDROOT
BRANCH   7   8
HETATM    8  C10 UNL     1     105.636  27.089  -1.662  1.00  0.00     0.383 C 
BRANCH   8   9
HETATM    9  N8  UNL     1     106.330  26.390  -2.693  1.00  0.00    -0.049 N 
ATOM     10  H83 UNL     1     107.133  26.939  -3.001  1.00  0.00     0.277 HD
ATOM     11  H82 UNL     1     106.802  25.577  -2.300  1.00  0.00     0.277 HD
ATOM     12  H81 UNL     1     105.775  26.108  -3.500  1.00  0.00     0.277 HD
ENDBRANCH   8   9
BRANCH   8  13
HETATM   13  N9  UNL     1     104.313  26.535  -1.459  1.00  0.00    -0.198 N 
HETATM   14  O4  UNL     1     103.344  26.462  -2.333  1.00  0.00    -0.231 OA
HETATM   15  C11 UNL     1     102.274  25.888  -1.780  1.00  0.00     0.134 A 
HETATM   16  C13 UNL     1     102.574  25.577  -0.478  1.00  0.00     0.090 A 
HETATM   17  C14 UNL     1     103.878  25.998  -0.297  1.00  0.00     0.127 A 
BRANCH  15  18
HETATM   18  C12 UNL     1     101.028  25.667  -2.517  1.00  0.00     0.314 C 
BRANCH  18  19
HETATM   19  O5  UNL     1     100.910  26.650  -3.506  1.00  0.00    -0.365 OA
ATOM     20  H5  UNL     1      99.994  26.740  -3.739  1.00  0.00     0.213 HD
ENDBRANCH  18  19
BRANCH  18  21
HETATM   21  O6  UNL     1      99.911  25.751  -1.711  1.00  0.00    -0.365 OA
ATOM     22  H6  UNL     1      99.252  25.102  -1.928  1.00  0.00     0.213 HD
ENDBRANCH  18  21
ENDBRANCH  15  18
BRANCH  17  23
HETATM   23  N10 UNL     1     104.498  25.863   0.825  1.00  0.00    -0.384 N 
ATOM     24 2H10 UNL     1     105.235  25.173   0.962  1.00  0.00     0.157 HD
ATOM     25 1H10 UNL     1     104.375  26.375   1.698  1.00  0.00     0.157 HD
ENDBRANCH  17  23
ENDBRANCH   8  13
ENDBRANCH   7   8
BRANCH   1  26
HETATM   26  N1  UNL     1     107.189  29.281  -0.195  1.00  0.00    -0.260 N 
HETATM   27  C2  UNL     1     107.091  28.676   1.059  1.00  0.00     0.232 C 
HETATM   28  C1  UNL     1     108.349  28.536   1.932  1.00  0.00     0.119 C 
HETATM   29  O1  UNL     1     106.088  28.208   1.609  1.00  0.00    -0.272 OA
ATOM     30  H1  UNL     1     108.135  29.584  -0.427  1.00  0.00     0.190 HD
ENDBRANCH   1  26
BRANCH   2  31
HETATM   31  S1  UNL     1     106.334  32.404  -1.371  1.00  0.00    -0.051 SA
BRANCH  31  32
HETATM   32  C4  UNL     1     104.946  33.531  -1.544  1.00  0.00     0.037 A 
HETATM   33  C5  UNL     1     105.139  34.807  -1.789  1.00  0.00     0.127 A 
HETATM   34  N3  UNL     1     104.034  35.684  -1.922  1.00  0.00    -0.324 N 
HETATM   35  C7  UNL     1     102.732  35.169  -1.789  1.00  0.00     0.189 A 
ATOM     36  H3  UNL     1     104.180  36.676  -2.113  1.00  0.00     0.169 HD
HETATM   37  N4  UNL     1     101.602  36.019  -1.916  1.00  0.00    -0.064 NA
HETATM   38  N5  UNL     1     102.531  33.920  -1.549  1.00  0.00    -0.360 N 
HETATM   39  C8  UNL     1     103.592  32.960  -1.399  1.00  0.00     0.171 A 
ATOM     40  H5  UNL     1     101.568  33.594  -1.461  1.00  0.00     0.162 HD
BRANCH  33  41
HETATM   41  C6  UNL     1     106.500  35.323  -1.924  1.00  0.00     0.228 C 
HETATM   42  O2  UNL     1     107.059  35.315  -3.050  1.00  0.00    -0.643 OA
HETATM   43  O3  UNL     1     107.213  35.827  -0.850  1.00  0.00    -0.643 OA
ENDBRANCH  33  41
ENDBRANCH  31  32
ENDBRANCH   2  31
TORSDOF 11
ENDMDL
MODEL 2
REMARK VINA RESULT: -7.328166175      2.660      7.860
REMARK  11 active torsions:
REMARK  status: ('A' for Active; 'I' for Inactive)
REMARK       I    between atoms: C2_2  and  N1_4 
REMARK    1  A    between atoms: N1_4  and  N2_6 
REMARK    2  A    between atoms: C3_7  and  S1_8 
REMARK    3  A    between atoms: S1_8  and  C4_9 
REMARK    4  A    between atoms: C5_10  and  C6_11 
REMARK    5  A    between atoms: C9_25  and  C10_26 
REMARK    6  A    between atoms: C10_26  and  N8_27 
REMARK    7  A    between atoms: C10_26  and  N9_31 
REMARK    8  A    between atoms: C11_33  and  C12_34 
REMARK    9  A    between atoms: C12_34  and  O5_35 
REMARK   10  A    between atoms: C12_34  and  O6_37 
REMARK   11  A    between atoms: C14_40  and  N10_41 
ROOT
HETATM    1  N2  UNL     1     105.788  28.110  -1.200  1.00  0.00    -0.212 N 
HETATM    2  C3  UNL     1     104.797  27.412  -1.771  1.00  0.00     0.187 A 
HETATM    3  N6  UNL     1     103.798  28.310  -2.022  1.00  0.00    -0.277 N 
ATOM      4  H6  UNL     1     102.903  28.089  -2.457  1.00  0.00     0.189 HD
HETATM    5  N7  UNL     1     104.166  29.486  -1.620  1.00  0.00    -0.282 N 
ATOM      6  H7  UNL     1     103.604  30.334  -1.689  1.00  0.00     0.188 HD
HETATM    7  C9  UNL     1     105.405  29.416  -1.096  1.00  0.00     0.173 A 
ENDROOT
BRANCH   7   8
HETATM    8  C10 UNL     1     106.085  30.593  -0.536  1.00  0.00     0.383 C 
BRANCH   8   9
HETATM    9  N8  UNL     1     106.140  30.674   0.886  1.00  0.00    -0.049 N 
ATOM     10  H83 UNL     1     105.277  30.305   1.286  1.00  0.00     0.277 HD
ATOM     11  H82 UNL     1     106.813  29.996   1.244  1.00  0.00     0.277 HD
ATOM     12  H81 UNL     1     106.337  31.593   1.279  1.00  0.00     0.277 HD
ENDBRANCH   8   9
BRANCH   8  13
HETATM   13  N9  UNL     1     105.549  31.813  -1.105  1.00  0.00    -0.198 N 
HETATM   14  O4  UNL     1     104.352  32.306  -0.931  1.00  0.00    -0.231 OA
HETATM   15  C11 UNL     1     104.224  33.444  -1.615  1.00  0.00     0.134 A 
HETATM   16  C13 UNL     1     105.406  33.694  -2.264  1.00  0.00     0.090 A 
HETATM   17  C14 UNL     1     106.235  32.642  -1.924  1.00  0.00     0.127 A 
BRANCH  15  18
HETATM   18  C12 UNL     1     102.988  34.230  -1.615  1.00  0.00     0.314 C 
BRANCH  18  19
HETATM   19  O5  UNL     1     101.962  33.456  -2.167  1.00  0.00    -0.365 OA
ATOM     20  H5  UNL     1     101.308  33.294  -1.498  1.00  0.00     0.213 HD
ENDBRANCH  18  19
BRANCH  18  21
HETATM   21  O6  UNL     1     103.090  35.383  -2.366  1.00  0.00    -0.365 OA
ATOM     22  H6  UNL     1     102.983  36.171  -1.846  1.00  0.00     0.213 HD
ENDBRANCH  18  21
ENDBRANCH  15  18
BRANCH  17  23
HETATM   23  N10 UNL     1     107.443  32.545  -2.360  1.00  0.00    -0.384 N 
ATOM     24 2H10 UNL     1     108.157  32.001  -1.877  1.00  0.00     0.157 HD
ATOM     25 1H10 UNL     1     107.867  32.958  -3.191  1.00  0.00     0.157 HD
ENDBRANCH  17  23
ENDBRANCH   8  13
ENDBRANCH   7   8
BRANCH   1  26
HETATM   26  N1  UNL     1     107.035  27.694  -0.792  1.00  0.00    -0.260 N 
HETATM   27  C2  UNL     1     107.614  27.515   0.465  1.00  0.00     0.232 C 
HETATM   28  C1  UNL     1     109.071  27.034   0.565  1.00  0.00     0.119 C 
HETATM   29  O1  UNL     1     107.106  27.695   1.577  1.00  0.00    -0.272 OA
ATOM     30  H1  UNL     1     107.663  27.473  -1.564  1.00  0.00     0.190 HD
ENDBRANCH   1  26
BRANCH   2  31
HETATM   31  S1  UNL     1     104.583  25.704  -2.169  1.00  0.00    -0.051 SA
BRANCH  31  32
HETATM   32  C4  UNL     1     103.533  24.871  -0.973  1.00  0.00     0.037 A 
HETATM   33  C5  UNL     1     102.232  24.811  -1.144  1.00  0.00     0.127 A 
HETATM   34  N3  UNL     1     101.417  24.150  -0.191  1.00  0.00    -0.324 N 
HETATM   35  C7  UNL     1     102.020  23.563   0.935  1.00  0.00     0.189 A 
ATOM     36  H3  UNL     1     100.406  24.102  -0.320  1.00  0.00     0.169 HD
HETATM   37  N4  UNL     1     101.233  22.893   1.909  1.00  0.00    -0.064 NA
HETATM   38  N5  UNL     1     103.294  23.615   1.112  1.00  0.00    -0.360 N 
HETATM   39  C8  UNL     1     104.196  24.264   0.198  1.00  0.00     0.171 A 
ATOM     40  H5  UNL     1     103.685  23.174   1.944  1.00  0.00     0.162 HD
BRANCH  33  41
HETATM   41  C6  UNL     1     101.624  25.429  -2.322  1.00  0.00     0.228 C 
HETATM   42  O2  UNL     1     101.392  24.729  -3.339  1.00  0.00    -0.643 OA
HETATM   43  O3  UNL     1     101.289  26.770  -2.366  1.00  0.00    -0.643 OA
ENDBRANCH  33  41
ENDBRANCH  31  32
ENDBRANCH   2  31
TORSDOF 11
ENDMDL
MODEL 3
REMARK VINA RESULT: -7.297850763      4.035      6.249
REMARK  11 active torsions:
REMARK  status: ('A' for Active; 'I' for Inactive)
REMARK       I    between atoms: C2_2  and  N1_4 
REMARK    1  A    between atoms: N1_4  and  N2_6 
REMARK    2  A    between atoms: C3_7  and  S1_8 
REMARK    3  A    between atoms: S1_8  and  C4_9 
REMARK    4  A    between atoms: C5_10  and  C6_11 
REMARK    5  A    between atoms: C9_25  and  C10_26 
REMARK    6  A    between atoms: C10_26  and  N8_27 
REMARK    7  A    between atoms: C10_26  and  N9_31 
REMARK    8  A    between atoms: C11_33  and  C12_34 
REMARK    9  A    between atoms: C12_34  and  O5_35 
REMARK   10  A    between atoms: C12_34  and  O6_37 
REMARK   11  A    between atoms: C14_40  and  N10_41 
ROOT
HETATM    1  N2  UNL     1     104.529  23.874  -0.215  1.00  0.00    -0.212 N 
HETATM    2  C3  UNL     1     105.057  25.092  -0.396  1.00  0.00     0.187 A 
HETATM    3  N6  UNL     1     105.975  24.961  -1.399  1.00  0.00    -0.277 N 
ATOM      4  H6  UNL     1     106.550  25.715  -1.773  1.00  0.00     0.189 HD
HETATM    5  N7  UNL     1     106.002  23.729  -1.800  1.00  0.00    -0.282 N 
ATOM      6  H7  UNL     1     106.603  23.363  -2.538  1.00  0.00     0.188 HD
HETATM    7  C9  UNL     1     105.115  23.004  -1.090  1.00  0.00     0.173 A 
ENDROOT
BRANCH   7   8
HETATM    8  C10 UNL     1     104.932  21.562  -1.306  1.00  0.00     0.383 C 
BRANCH   8   9
HETATM    9  N8  UNL     1     105.632  20.994  -2.410  1.00  0.00    -0.049 N 
ATOM     10  H83 UNL     1     106.334  21.652  -2.748  1.00  0.00     0.277 HD
ATOM     11  H82 UNL     1     106.231  20.236  -2.085  1.00  0.00     0.277 HD
ATOM     12  H81 UNL     1     105.060  20.671  -3.190  1.00  0.00     0.277 HD
ENDBRANCH   8   9
BRANCH   8  13
HETATM   13  N9  UNL     1     103.524  21.226  -1.356  1.00  0.00    -0.198 N 
HETATM   14  O4  UNL     1     102.596  21.811  -2.067  1.00  0.00    -0.231 OA
HETATM   15  C11 UNL     1     101.418  21.225  -1.851  1.00  0.00     0.134 A 
HETATM   16  C13 UNL     1     101.600  20.206  -0.950  1.00  0.00     0.090 A 
HETATM   17  C14 UNL     1     102.949  20.226  -0.650  1.00  0.00     0.127 A 
BRANCH  15  18
HETATM   18  C12 UNL     1     100.186  21.662  -2.511  1.00  0.00     0.314 C 
BRANCH  18  19
HETATM   19  O5  UNL     1     100.450  21.859  -3.871  1.00  0.00    -0.365 OA
ATOM     20  H5  UNL     1     100.153  22.727  -4.117  1.00  0.00     0.213 HD
ENDBRANCH  18  19
BRANCH  18  21
HETATM   21  O6  UNL     1      99.704  22.852  -2.004  1.00  0.00    -0.365 OA
ATOM     22  H6  UNL     1      98.818  23.041  -2.291  1.00  0.00     0.213 HD
ENDBRANCH  18  21
ENDBRANCH  15  18
BRANCH  17  23
HETATM   23  N10 UNL     1     103.485  19.395   0.177  1.00  0.00    -0.384 N 
ATOM     24 2H10 UNL     1     102.940  18.894   0.877  1.00  0.00     0.157 HD
ATOM     25 1H10 UNL     1     104.461  19.115   0.272  1.00  0.00     0.157 HD
ENDBRANCH  17  23
ENDBRANCH   8  13
ENDBRANCH   7   8
BRANCH   1  26
HETATM   26  N1  UNL     1     103.532  23.465   0.641  1.00  0.00    -0.260 N 
HETATM   27  C2  UNL     1     102.154  23.686   0.670  1.00  0.00     0.232 C 
HETATM   28  C1  UNL     1     101.314  23.071   1.802  1.00  0.00     0.119 C 
HETATM   29  O1  UNL     1     101.464  24.337  -0.121  1.00  0.00    -0.272 OA
ATOM     30  H1  UNL     1     103.867  22.883   1.409  1.00  0.00     0.190 HD
ENDBRANCH   1  26
BRANCH   2  31
HETATM   31  S1  UNL     1     104.814  26.653   0.393  1.00  0.00    -0.051 SA
BRANCH  31  32
HETATM   32  C4  UNL     1     104.994  28.016  -0.763  1.00  0.00     0.037 A 
HETATM   33  C5  UNL     1     103.969  28.448  -1.462  1.00  0.00     0.127 A 
HETATM   34  N3  UNL     1     104.127  29.524  -2.371  1.00  0.00    -0.324 N 
HETATM   35  C7  UNL     1     105.393  30.120  -2.511  1.00  0.00     0.189 A 
ATOM     36  H3  UNL     1     103.334  29.862  -2.916  1.00  0.00     0.169 HD
HETATM   37  N4  UNL     1     105.587  31.200  -3.412  1.00  0.00    -0.064 NA
HETATM   38  N5  UNL     1     106.404  29.706  -1.831  1.00  0.00    -0.360 N 
HETATM   39  C8  UNL     1     106.335  28.621  -0.887  1.00  0.00     0.171 A 
ATOM     40  H5  UNL     1     107.302  30.171  -1.967  1.00  0.00     0.162 HD
BRANCH  33  41
HETATM   41  C6  UNL     1     102.661  27.814  -1.302  1.00  0.00     0.228 C 
HETATM   42  O2  UNL     1     102.327  26.878  -2.070  1.00  0.00    -0.643 OA
HETATM   43  O3  UNL     1     101.761  28.206  -0.327  1.00  0.00    -0.643 OA
ENDBRANCH  33  41
ENDBRANCH  31  32
ENDBRANCH   2  31
TORSDOF 11
ENDMDL
MODEL 4
REMARK VINA RESULT: -7.181435690      2.958      8.167
REMARK  11 active torsions:
REMARK  status: ('A' for Active; 'I' for Inactive)
REMARK       I    between atoms: C2_2  and  N1_4 
REMARK    1  A    between atoms: N1_4  and  N2_6 
REMARK    2  A    between atoms: C3_7  and  S1_8 
REMARK    3  A    between atoms: S1_8  and  C4_9 
REMARK    4  A    between atoms: C5_10  and  C6_11 
REMARK    5  A    between atoms: C9_25  and  C10_26 
REMARK    6  A    between atoms: C10_26  and  N8_27 
REMARK    7  A    between atoms: C10_26  and  N9_31 
REMARK    8  A    between atoms: C11_33  and  C12_34 
REMARK    9  A    between atoms: C12_34  and  O5_35 
REMARK   10  A    between atoms: C12_34  and  O6_37 
REMARK   11  A    between atoms: C14_40  and  N10_41 
ROOT
HETATM    1  N2  UNL     1     105.675  27.911  -1.481  1.00  0.00    -0.212 N 
HETATM    2  C3  UNL     1     104.594  27.120  -1.456  1.00  0.00     0.187 A 
HETATM    3  N6  UNL     1     103.678  27.757  -0.667  1.00  0.00    -0.277 N 
ATOM      4  H6  UNL     1     102.744  27.410  -0.450  1.00  0.00     0.189 HD
HETATM    5  N7  UNL     1     104.182  28.872  -0.237  1.00  0.00    -0.282 N 
ATOM      6  H7  UNL     1     103.705  29.537   0.372  1.00  0.00     0.188 HD
HETATM    7  C9  UNL     1     105.432  29.016  -0.717  1.00  0.00     0.173 A 
ENDROOT
BRANCH   7   8
HETATM    8  C10 UNL     1     106.269  30.178  -0.384  1.00  0.00     0.383 C 
BRANCH   8   9
HETATM    9  N8  UNL     1     106.506  30.410   1.002  1.00  0.00    -0.049 N 
ATOM     10  H83 UNL     1     105.931  29.778   1.560  1.00  0.00     0.277 HD
ATOM     11  H82 UNL     1     107.438  30.080   1.252  1.00  0.00     0.277 HD
ATOM     12  H81 UNL     1     106.381  31.368   1.328  1.00  0.00     0.277 HD
ENDBRANCH   8   9
BRANCH   8  13
HETATM   13  N9  UNL     1     105.767  31.373  -1.032  1.00  0.00    -0.198 N 
HETATM   14  O4  UNL     1     104.645  31.996  -0.781  1.00  0.00    -0.231 OA
HETATM   15  C11 UNL     1     104.525  33.057  -1.580  1.00  0.00     0.134 A 
HETATM   16  C13 UNL     1     105.631  33.118  -2.388  1.00  0.00     0.090 A 
HETATM   17  C14 UNL     1     106.408  32.035  -2.021  1.00  0.00     0.127 A 
BRANCH  15  18
HETATM   18  C12 UNL     1     103.368  33.954  -1.532  1.00  0.00     0.314 C 
BRANCH  18  19
HETATM   19  O5  UNL     1     102.279  33.314  -2.133  1.00  0.00    -0.365 OA
ATOM     20  H5  UNL     1     101.499  33.837  -1.987  1.00  0.00     0.213 HD
ENDBRANCH  18  19
BRANCH  18  21
HETATM   21  O6  UNL     1     103.583  35.137  -2.209  1.00  0.00    -0.365 OA
ATOM     22  H6  UNL     1     102.812  35.692  -2.231  1.00  0.00     0.213 HD
ENDBRANCH  18  21
ENDBRANCH  15  18
BRANCH  17  23
HETATM   23  N10 UNL     1     107.540  31.775  -2.580  1.00  0.00    -0.384 N 
ATOM     24 2H10 UNL     1     107.661  31.003  -3.235  1.00  0.00     0.157 HD
ATOM     25 1H10 UNL     1     108.436  32.250  -2.478  1.00  0.00     0.157 HD
ENDBRANCH  17  23
ENDBRANCH   8  13
ENDBRANCH   7   8
BRANCH   1  26
HETATM   26  N1  UNL     1     106.862  27.757  -2.162  1.00  0.00    -0.260 N 
HETATM   27  C2  UNL     1     107.377  28.346  -3.317  1.00  0.00     0.232 C 
HETATM   28  C1  UNL     1     108.769  27.929  -3.821  1.00  0.00     0.119 C 
HETATM   29  O1  UNL     1     106.857  29.202  -4.041  1.00  0.00    -0.272 OA
ATOM     30  H1  UNL     1     107.490  27.076  -1.737  1.00  0.00     0.190 HD
ENDBRANCH   1  26
BRANCH   2  31
HETATM   31  S1  UNL     1     104.220  25.546  -2.164  1.00  0.00    -0.051 SA
BRANCH  31  32
HETATM   32  C4  UNL     1     103.264  24.522  -1.038  1.00  0.00     0.037 A 
HETATM   33  C5  UNL     1     101.954  24.608  -0.995  1.00  0.00     0.127 A 
HETATM   34  N3  UNL     1     101.214  23.795  -0.102  1.00  0.00    -0.324 N 
HETATM   35  C7  UNL     1     101.901  22.898   0.735  1.00  0.00     0.189 A 
ATOM     36  H3  UNL     1     100.196  23.859  -0.066  1.00  0.00     0.169 HD
HETATM   37  N4  UNL     1     101.190  22.067   1.642  1.00  0.00    -0.064 NA
HETATM   38  N5  UNL     1     103.184  22.804   0.701  1.00  0.00    -0.360 N 
HETATM   39  C8  UNL     1     104.014  23.590  -0.173  1.00  0.00     0.171 A 
ATOM     40  H5  UNL     1     103.637  22.138   1.327  1.00  0.00     0.162 HD
BRANCH  33  41
HETATM   41  C6  UNL     1     101.258  25.548  -1.873  1.00  0.00     0.228 C 
HETATM   42  O2  UNL     1     100.815  26.626  -1.402  1.00  0.00    -0.643 OA
HETATM   43  O3  UNL     1     101.063  25.300  -3.221  1.00  0.00    -0.643 OA
ENDBRANCH  33  41
ENDBRANCH  31  32
ENDBRANCH   2  31
TORSDOF 11
ENDMDL
MODEL 5
REMARK VINA RESULT: -7.061600716      2.750      7.529
REMARK  11 active torsions:
REMARK  status: ('A' for Active; 'I' for Inactive)
REMARK       I    between atoms: C2_2  and  N1_4 
REMARK    1  A    between atoms: N1_4  and  N2_6 
REMARK    2  A    between atoms: C3_7  and  S1_8 
REMARK    3  A    between atoms: S1_8  and  C4_9 
REMARK    4  A    between atoms: C5_10  and  C6_11 
REMARK    5  A    between atoms: C9_25  and  C10_26 
REMARK    6  A    between atoms: C10_26  and  N8_27 
REMARK    7  A    between atoms: C10_26  and  N9_31 
REMARK    8  A    between atoms: C11_33  and  C12_34 
REMARK    9  A    between atoms: C12_34  and  O5_35 
REMARK   10  A    between atoms: C12_34  and  O6_37 
REMARK   11  A    between atoms: C14_40  and  N10_41 
ROOT
HETATM    1  N2  UNL     1     105.471  30.653  -1.091  1.00  0.00    -0.212 N 
HETATM    2  C3  UNL     1     104.900  29.449  -1.225  1.00  0.00     0.187 A 
HETATM    3  N6  UNL     1     104.741  29.254  -2.568  1.00  0.00    -0.277 N 
ATOM      4  H6  UNL     1     104.332  28.425  -2.999  1.00  0.00     0.189 HD
HETATM    5  N7  UNL     1     105.190  30.287  -3.209  1.00  0.00    -0.282 N 
ATOM      6  H7  UNL     1     105.189  30.397  -4.223  1.00  0.00     0.188 HD
HETATM    7  C9  UNL     1     105.660  31.194  -2.330  1.00  0.00     0.173 A 
ENDROOT
BRANCH   7   8
HETATM    8  C10 UNL     1     106.218  32.484  -2.760  1.00  0.00     0.383 C 
BRANCH   8   9
HETATM    9  N8  UNL     1     107.541  32.779  -2.318  1.00  0.00    -0.049 N 
ATOM     10  H83 UNL     1     107.706  32.343  -1.410  1.00  0.00     0.277 HD
ATOM     11  H82 UNL     1     108.216  32.273  -2.890  1.00  0.00     0.277 HD
ATOM     12  H81 UNL     1     107.795  33.765  -2.278  1.00  0.00     0.277 HD
ENDBRANCH   8   9
BRANCH   8  13
HETATM   13  N9  UNL     1     105.311  33.567  -2.439  1.00  0.00    -0.198 N 
HETATM   14  O4  UNL     1     104.047  33.471  -2.119  1.00  0.00    -0.231 OA
HETATM   15  C11 UNL     1     103.541  34.684  -1.893  1.00  0.00     0.134 A 
HETATM   16  C13 UNL     1     104.535  35.610  -2.080  1.00  0.00     0.090 A 
HETATM   17  C14 UNL     1     105.653  34.875  -2.427  1.00  0.00     0.127 A 
BRANCH  15  18
HETATM   18  C12 UNL     1     102.143  34.897  -1.513  1.00  0.00     0.314 C 
BRANCH  18  19
HETATM   19  O5  UNL     1     101.338  34.022  -2.252  1.00  0.00    -0.365 OA
ATOM     20  H5  UNL     1     100.478  33.986  -1.850  1.00  0.00     0.213 HD
ENDBRANCH  18  19
BRANCH  18  21
HETATM   21  O6  UNL     1     101.709  36.181  -1.774  1.00  0.00    -0.365 OA
ATOM     22  H6  UNL     1     101.128  36.228  -2.523  1.00  0.00     0.213 HD
ENDBRANCH  18  21
ENDBRANCH  15  18
BRANCH  17  23
HETATM   23  N10 UNL     1     106.791  35.425  -2.679  1.00  0.00    -0.384 N 
ATOM     24 2H10 UNL     1     107.362  35.157  -3.481  1.00  0.00     0.157 HD
ATOM     25 1H10 UNL     1     107.282  36.160  -2.171  1.00  0.00     0.157 HD
ENDBRANCH  17  23
ENDBRANCH   8  13
ENDBRANCH   7   8
BRANCH   1  26
HETATM   26  N1  UNL     1     105.885  31.309   0.047  1.00  0.00    -0.260 N 
HETATM   27  C2  UNL     1     106.775  30.973   1.067  1.00  0.00     0.232 C 
HETATM   28  C1  UNL     1     107.005  31.960   2.225  1.00  0.00     0.119 C 
HETATM   29  O1  UNL     1     107.448  29.945   1.192  1.00  0.00    -0.272 OA
ATOM     30  H1  UNL     1     105.452  32.225   0.169  1.00  0.00     0.190 HD
ENDBRANCH   1  26
BRANCH   2  31
HETATM   31  S1  UNL     1     104.343  28.231  -0.074  1.00  0.00    -0.051 SA
BRANCH  31  32
HETATM   32  C4  UNL     1     103.349  26.966  -0.876  1.00  0.00     0.037 A 
HETATM   33  C5  UNL     1     103.915  25.940  -1.470  1.00  0.00     0.127 A 
HETATM   34  N3  UNL     1     103.118  24.951  -2.099  1.00  0.00    -0.324 N 
HETATM   35  C7  UNL     1     101.719  25.084  -2.076  1.00  0.00     0.189 A 
ATOM     36  H3  UNL     1     103.553  24.153  -2.562  1.00  0.00     0.169 HD
HETATM   37  N4  UNL     1     100.890  24.112  -2.696  1.00  0.00    -0.064 NA
HETATM   38  N5  UNL     1     101.153  26.085  -1.496  1.00  0.00    -0.360 N 
HETATM   39  C8  UNL     1     101.883  27.134  -0.834  1.00  0.00     0.171 A 
ATOM     40  H5  UNL     1     100.135  26.137  -1.505  1.00  0.00     0.162 HD
BRANCH  33  41
HETATM   41  C6  UNL     1     105.372  25.821  -1.484  1.00  0.00     0.228 C 
HETATM   42  O2  UNL     1     106.030  26.350  -2.414  1.00  0.00    -0.643 OA
HETATM   43  O3  UNL     1     106.070  25.139  -0.502  1.00  0.00    -0.643 OA
ENDBRANCH  33  41
ENDBRANCH  31  32
ENDBRANCH   2  31
TORSDOF 11
ENDMDL
