MODEL 1
REMARK VINA RESULT: -7.609097056      0.000      0.000
REMARK  11 active torsions:
REMARK  status: ('A' for Active; 'I' for Inactive)
REMARK    1  A    between atoms: C4_6  and  C5_7 
REMARK    2  A    between atoms: C5_7  and  O1_8 
REMARK    3  A    between atoms: C5_7  and  O2_10 
REMARK    4  A    between atoms: C6_14  and  N3_15 
REMARK    5  A    between atoms: N3_15  and  C7_16 
REMARK    6  A    between atoms: N3_15  and  C12_34 
REMARK    7  A    between atoms: C8_19  and  N5_20 
REMARK    8  A    between atoms: N7_27  and  N8_28 
REMARK    9  A    between atoms: N8_28  and  C10_30 
REMARK   10  A    between atoms: C10_30  and  O3_32 
REMARK   11  A    between atoms: C14_43  and  N12_44 
ROOT
HETATM    1  N3  UNL     1     103.337  24.287  -1.301  1.00  0.00     0.044 N 
ENDROOT
BRANCH   1   2
HETATM    2  C6  UNL     1     103.940  22.938  -1.450  1.00  0.00     0.707 A 
HETATM    3  N2  UNL     1     103.249  21.837  -1.172  1.00  0.00    -0.189 N 
HETATM    4  C4  UNL     1     103.829  20.629  -1.334  1.00  0.00     0.084 A 
ATOM      5  H2  UNL     1     102.286  21.905  -0.840  1.00  0.00     0.184 HD
HETATM    6  C3  UNL     1     105.128  20.573  -1.783  1.00  0.00     0.079 A 
HETATM    7  C2  UNL     1     105.853  21.704  -2.074  1.00  0.00     0.118 A 
HETATM    8  N1  UNL     1     107.032  21.652  -2.492  1.00  0.00    -0.380 N 
HETATM    9  N13 UNL     1     105.205  22.899  -1.888  1.00  0.00    -0.176 N 
HETATM   10  C1  UNL     1     107.830  20.514  -2.741  1.00  0.00     0.147 C 
ATOM     11  H1  UNL     1     107.474  22.552  -2.678  1.00  0.00     0.160 HD
ATOM     12  H13 UNL     1     105.695  23.771  -2.087  1.00  0.00     0.186 HD
BRANCH   4  13
HETATM   13  C5  UNL     1     103.099  19.399  -1.032  1.00  0.00     0.305 C 
BRANCH  13  14
HETATM   14  O1  UNL     1     103.683  18.312  -1.702  1.00  0.00    -0.366 OA
ATOM     15  H1  UNL     1     103.870  17.609  -1.090  1.00  0.00     0.213 HD
ENDBRANCH  13  14
BRANCH  13  16
HETATM   16  O2  UNL     1     101.790  19.517  -1.466  1.00  0.00    -0.366 OA
ATOM     17  H2  UNL     1     101.372  18.664  -1.454  1.00  0.00     0.213 HD
ENDBRANCH  13  16
ENDBRANCH   4  13
ENDBRANCH   1   2
BRANCH   1  18
HETATM   18  C7  UNL     1     104.358  25.229  -1.161  1.00  0.00     0.726 A 
HETATM   19  N4  UNL     1     104.859  25.862  -2.173  1.00  0.00    -0.177 N 
HETATM   20  C8  UNL     1     105.877  26.834  -2.207  1.00  0.00     0.402 A 
ATOM     21  H4  UNL     1     104.457  25.621  -3.078  1.00  0.00     0.181 HD
HETATM   22  N6  UNL     1     106.350  27.162  -0.901  1.00  0.00    -0.341 N 
HETATM   23  C9  UNL     1     105.920  26.614   0.156  1.00  0.00     0.223 A 
ATOM     24  H6  UNL     1     107.075  27.875  -0.815  1.00  0.00     0.164 HD
HETATM   25  N7  UNL     1     104.922  25.628   0.120  1.00  0.00    -0.083 N 
BRANCH  20  26
HETATM   26  N5  UNL     1     107.050  26.427  -2.973  1.00  0.00    -0.040 N 
ATOM     27  H53 UNL     1     106.778  26.086  -3.895  1.00  0.00     0.279 HD
ATOM     28  H52 UNL     1     107.601  27.240  -3.249  1.00  0.00     0.279 HD
ATOM     29  H51 UNL     1     107.635  25.742  -2.494  1.00  0.00     0.279 HD
ENDBRANCH  20  26
BRANCH  25  30
HETATM   30  N8  UNL     1     104.442  24.993   1.234  1.00  0.00    -0.286 N 
ATOM     31  H8  UNL     1     104.908  24.164   1.603  1.00  0.00     0.184 HD
BRANCH  30  32
HETATM   32  C10 UNL     1     103.282  25.511   1.864  1.00  0.00     0.230 C 
HETATM   33  C11 UNL     1     102.762  26.813   1.302  1.00  0.00     0.064 C 
BRANCH  32  34
HETATM   34  O3  UNL     1     102.231  24.646   2.050  1.00  0.00    -0.376 OA
ATOM     35  H3  UNL     1     102.078  24.333   2.934  1.00  0.00     0.212 HD
ENDBRANCH  32  34
ENDBRANCH  30  32
ENDBRANCH  25  30
ENDBRANCH   1  18
BRANCH   1  36
HETATM   36  C12 UNL     1     101.955  24.319  -1.325  1.00  0.00     0.213 A 
HETATM   37  N9  UNL     1     101.169  23.381  -0.688  1.00  0.00    -0.171 N 
HETATM   38  C13 UNL     1      99.877  23.628  -0.885  1.00  0.00     0.679 A 
ATOM     39  H9  UNL     1     101.530  22.601  -0.139  1.00  0.00     0.186 HD
HETATM   40  N10 UNL     1      98.893  22.935  -0.426  1.00  0.00    -0.234 N 
HETATM   41  N11 UNL     1      99.771  24.706  -1.635  1.00  0.00    -0.167 N 
ATOM     42 2H10 UNL     1      98.975  22.100   0.155  1.00  0.00     0.174 HD
ATOM     43 1H10 UNL     1      97.901  23.124  -0.577  1.00  0.00     0.174 HD
HETATM   44  C14 UNL     1     101.050  25.157  -1.922  1.00  0.00     0.234 A 
ATOM     45  H11 UNL     1      98.900  25.134  -1.949  1.00  0.00     0.186 HD
BRANCH  44  46
HETATM   46  N12 UNL     1     101.212  26.298  -2.704  1.00  0.00    -0.093 N 
HETATM   47  O4  UNL     1     101.947  27.243  -2.235  1.00  0.00    -0.530 OA
HETATM   48  O5  UNL     1     100.703  26.581  -3.913  1.00  0.00    -0.530 OA
ENDBRANCH  44  46
ENDBRANCH   1  36
TORSDOF 11
ENDMDL
MODEL 2
REMARK VINA RESULT: -7.447158321      6.635      9.944
REMARK  11 active torsions:
REMARK  status: ('A' for Active; 'I' for Inactive)
REMARK    1  A    between atoms: C4_6  and  C5_7 
REMARK    2  A    between atoms: C5_7  and  O1_8 
REMARK    3  A    between atoms: C5_7  and  O2_10 
REMARK    4  A    between atoms: C6_14  and  N3_15 
REMARK    5  A    between atoms: N3_15  and  C7_16 
REMARK    6  A    between atoms: N3_15  and  C12_34 
REMARK    7  A    between atoms: C8_19  and  N5_20 
REMARK    8  A    between atoms: N7_27  and  N8_28 
REMARK    9  A    between atoms: N8_28  and  C10_30 
REMARK   10  A    between atoms: C10_30  and  O3_32 
REMARK   11  A    between atoms: C14_43  and  N12_44 
ROOT
HETATM    1  N3  UNL     1     105.346  32.795  -1.526  1.00  0.00     0.044 N 
ENDROOT
BRANCH   1   2
HETATM    2  C6  UNL     1     106.244  32.865  -2.707  1.00  0.00     0.707 A 
HETATM    3  N2  UNL     1     106.109  32.026  -3.729  1.00  0.00    -0.189 N 
HETATM    4  C4  UNL     1     106.936  32.132  -4.790  1.00  0.00     0.084 A 
ATOM      5  H2  UNL     1     105.385  31.308  -3.713  1.00  0.00     0.184 HD
HETATM    6  C3  UNL     1     107.903  33.112  -4.781  1.00  0.00     0.079 A 
HETATM    7  C2  UNL     1     108.052  33.985  -3.731  1.00  0.00     0.118 A 
HETATM    8  N1  UNL     1     108.925  34.883  -3.728  1.00  0.00    -0.380 N 
HETATM    9  N13 UNL     1     107.180  33.823  -2.685  1.00  0.00    -0.176 N 
HETATM   10  C1  UNL     1     109.885  35.183  -4.719  1.00  0.00     0.147 C 
ATOM     11  H1  UNL     1     108.946  35.476  -2.898  1.00  0.00     0.160 HD
ATOM     12  H13 UNL     1     107.245  34.442  -1.877  1.00  0.00     0.186 HD
BRANCH   4  13
HETATM   13  C5  UNL     1     106.820  31.222  -5.929  1.00  0.00     0.305 C 
BRANCH  13  14
HETATM   14  O1  UNL     1     105.603  31.432  -6.596  1.00  0.00    -0.366 OA
ATOM     15  H1  UNL     1     105.355  30.653  -7.081  1.00  0.00     0.213 HD
ENDBRANCH  13  14
BRANCH  13  16
HETATM   16  O2  UNL     1     106.843  29.912  -5.479  1.00  0.00    -0.366 OA
ATOM     17  H2  UNL     1     107.650  29.495  -5.758  1.00  0.00     0.213 HD
ENDBRANCH  13  16
ENDBRANCH   4  13
ENDBRANCH   1   2
BRANCH   1  18
HETATM   18  C7  UNL     1     105.962  32.035  -0.530  1.00  0.00     0.726 A 
HETATM   19  N4  UNL     1     106.810  32.545   0.305  1.00  0.00    -0.177 N 
HETATM   20  C8  UNL     1     107.511  31.930   1.359  1.00  0.00     0.402 A 
ATOM     21  H4  UNL     1     106.996  33.540   0.181  1.00  0.00     0.181 HD
HETATM   22  N6  UNL     1     107.156  30.555   1.508  1.00  0.00    -0.341 N 
HETATM   23  C9  UNL     1     106.330  29.961   0.756  1.00  0.00     0.223 A 
ATOM     24  H6  UNL     1     107.593  30.023   2.261  1.00  0.00     0.164 HD
HETATM   25  N7  UNL     1     105.684  30.626  -0.299  1.00  0.00    -0.083 N 
BRANCH  20  26
HETATM   26  N5  UNL     1     108.960  31.959   1.194  1.00  0.00    -0.040 N 
ATOM     27  H53 UNL     1     109.256  31.286   0.487  1.00  0.00     0.279 HD
ATOM     28  H52 UNL     1     109.254  32.823   0.739  1.00  0.00     0.279 HD
ATOM     29  H51 UNL     1     109.475  31.817   2.063  1.00  0.00     0.279 HD
ENDBRANCH  20  26
BRANCH  25  30
HETATM   30  N8  UNL     1     104.800  30.019  -1.150  1.00  0.00    -0.286 N 
ATOM     31  H8  UNL     1     103.847  30.369  -1.247  1.00  0.00     0.184 HD
BRANCH  30  32
HETATM   32  C10 UNL     1     105.237  28.895  -1.895  1.00  0.00     0.230 C 
HETATM   33  C11 UNL     1     104.329  27.688  -1.846  1.00  0.00     0.064 C 
BRANCH  32  34
HETATM   34  O3  UNL     1     105.625  29.116  -3.194  1.00  0.00    -0.376 OA
ATOM     35  H3  UNL     1     105.118  28.692  -3.876  1.00  0.00     0.212 HD
ENDBRANCH  32  34
ENDBRANCH  30  32
ENDBRANCH  25  30
ENDBRANCH   1  18
BRANCH   1  36
HETATM   36  C12 UNL     1     104.143  33.463  -1.663  1.00  0.00     0.213 A 
HETATM   37  N9  UNL     1     102.918  32.842  -1.535  1.00  0.00    -0.171 N 
HETATM   38  C13 UNL     1     101.923  33.702  -1.734  1.00  0.00     0.679 A 
ATOM     39  H9  UNL     1     102.791  31.853  -1.318  1.00  0.00     0.186 HD
HETATM   40  N10 UNL     1     100.664  33.432  -1.688  1.00  0.00    -0.234 N 
HETATM   41  N11 UNL     1     102.444  34.885  -1.990  1.00  0.00    -0.167 N 
ATOM     42 2H10 UNL     1     100.262  32.516  -1.490  1.00  0.00     0.174 HD
ATOM     43 1H10 UNL     1      99.901  34.092  -1.840  1.00  0.00     0.174 HD
HETATM   44  C14 UNL     1     103.824  34.764  -1.951  1.00  0.00     0.234 A 
ATOM     45  H11 UNL     1     101.922  35.740  -2.183  1.00  0.00     0.186 HD
BRANCH  44  46
HETATM   46  N12 UNL     1     104.615  35.886  -2.185  1.00  0.00    -0.093 N 
HETATM   47  O4  UNL     1     104.227  36.711  -3.091  1.00  0.00    -0.530 OA
HETATM   48  O5  UNL     1     105.763  36.257  -1.595  1.00  0.00    -0.530 OA
ENDBRANCH  44  46
ENDBRANCH   1  36
TORSDOF 11
ENDMDL
MODEL 3
REMARK VINA RESULT: -7.279121038      7.781     11.084
REMARK  11 active torsions:
REMARK  status: ('A' for Active; 'I' for Inactive)
REMARK    1  A    between atoms: C4_6  and  C5_7 
REMARK    2  A    between atoms: C5_7  and  O1_8 
REMARK    3  A    between atoms: C5_7  and  O2_10 
REMARK    4  A    between atoms: C6_14  and  N3_15 
REMARK    5  A    between atoms: N3_15  and  C7_16 
REMARK    6  A    between atoms: N3_15  and  C12_34 
REMARK    7  A    between atoms: C8_19  and  N5_20 
REMARK    8  A    between atoms: N7_27  and  N8_28 
REMARK    9  A    between atoms: N8_28  and  C10_30 
REMARK   10  A    between atoms: C10_30  and  O3_32 
REMARK   11  A    between atoms: C14_43  and  N12_44 
ROOT
HETATM    1  N3  UNL     1     106.589  34.007  -2.106  1.00  0.00     0.044 N 
ENDROOT
BRANCH   1   2
HETATM    2  C6  UNL     1     107.187  33.619  -3.408  1.00  0.00     0.707 A 
HETATM    3  N2  UNL     1     106.709  32.597  -4.113  1.00  0.00    -0.189 N 
HETATM    4  C4  UNL     1     107.273  32.285  -5.298  1.00  0.00     0.084 A 
ATOM      5  H2  UNL     1     105.922  32.053  -3.759  1.00  0.00     0.184 HD
HETATM    6  C3  UNL     1     108.334  33.039  -5.746  1.00  0.00     0.079 A 
HETATM    7  C2  UNL     1     108.837  34.097  -5.028  1.00  0.00     0.118 A 
HETATM    8  N1  UNL     1     109.795  34.789  -5.441  1.00  0.00    -0.380 N 
HETATM    9  N13 UNL     1     108.219  34.360  -3.832  1.00  0.00    -0.176 N 
HETATM   10  C1  UNL     1     110.528  34.654  -6.640  1.00  0.00     0.147 C 
ATOM     11  H1  UNL     1     110.086  35.550  -4.828  1.00  0.00     0.160 HD
ATOM     12  H13 UNL     1     108.550  35.134  -3.256  1.00  0.00     0.186 HD
BRANCH   4  13
HETATM   13  C5  UNL     1     106.776  31.165  -6.095  1.00  0.00     0.305 C 
BRANCH  13  14
HETATM   14  O1  UNL     1     105.529  31.482  -6.656  1.00  0.00    -0.366 OA
ATOM     15  H1  UNL     1     105.104  30.695  -6.979  1.00  0.00     0.213 HD
ENDBRANCH  13  14
BRANCH  13  16
HETATM   16  O2  UNL     1     106.613  30.055  -5.283  1.00  0.00    -0.366 OA
ATOM     17  H2  UNL     1     105.768  29.656  -5.457  1.00  0.00     0.213 HD
ENDBRANCH  13  16
ENDBRANCH   4  13
ENDBRANCH   1   2
BRANCH   1  18
HETATM   18  C7  UNL     1     107.030  33.123  -1.120  1.00  0.00     0.726 A 
HETATM   19  N4  UNL     1     108.157  33.282  -0.503  1.00  0.00    -0.177 N 
HETATM   20  C8  UNL     1     108.744  32.496   0.507  1.00  0.00     0.402 A 
ATOM     21  H4  UNL     1     108.698  34.096  -0.790  1.00  0.00     0.181 HD
HETATM   22  N6  UNL     1     107.904  31.410   0.898  1.00  0.00    -0.341 N 
HETATM   23  C9  UNL     1     106.779  31.171   0.370  1.00  0.00     0.223 A 
ATOM     24  H6  UNL     1     108.229  30.792   1.642  1.00  0.00     0.164 HD
HETATM   25  N7  UNL     1     106.261  31.978  -0.656  1.00  0.00    -0.083 N 
BRANCH  20  26
HETATM   26  N5  UNL     1     110.020  31.904   0.121  1.00  0.00    -0.040 N 
ATOM     27  H53 UNL     1     110.796  32.411   0.546  1.00  0.00     0.279 HD
ATOM     28  H52 UNL     1     110.145  30.995   0.568  1.00  0.00     0.279 HD
ATOM     29  H51 UNL     1     110.149  31.828  -0.889  1.00  0.00     0.279 HD
ENDBRANCH  20  26
BRANCH  25  30
HETATM   30  N8  UNL     1     105.060  31.746  -1.271  1.00  0.00    -0.286 N 
ATOM     31  H8  UNL     1     104.307  32.433  -1.219  1.00  0.00     0.184 HD
BRANCH  30  32
HETATM   32  C10 UNL     1     104.883  30.532  -1.981  1.00  0.00     0.230 C 
HETATM   33  C11 UNL     1     103.964  29.525  -1.329  1.00  0.00     0.064 C 
BRANCH  32  34
HETATM   34  O3  UNL     1     104.577  30.626  -3.316  1.00  0.00    -0.376 OA
ATOM     35  H3  UNL     1     104.373  31.490  -3.655  1.00  0.00     0.212 HD
ENDBRANCH  32  34
ENDBRANCH  30  32
ENDBRANCH  25  30
ENDBRANCH   1  18
BRANCH   1  36
HETATM   36  C12 UNL     1     105.753  35.109  -2.149  1.00  0.00     0.213 A 
HETATM   37  N9  UNL     1     104.378  35.010  -2.199  1.00  0.00    -0.171 N 
HETATM   38  C13 UNL     1     103.815  36.214  -2.254  1.00  0.00     0.679 A 
ATOM     39  H9  UNL     1     103.862  34.131  -2.194  1.00  0.00     0.186 HD
HETATM   40  N10 UNL     1     102.552  36.459  -2.313  1.00  0.00    -0.234 N 
HETATM   41  N11 UNL     1     104.772  37.119  -2.242  1.00  0.00    -0.167 N 
ATOM     42 2H10 UNL     1     101.811  35.757  -2.323  1.00  0.00     0.174 HD
ATOM     43 1H10 UNL     1     102.119  37.382  -2.356  1.00  0.00     0.174 HD
HETATM   44  C14 UNL     1     105.988  36.458  -2.176  1.00  0.00     0.234 A 
ATOM     45  H11 UNL     1     104.640  38.130  -2.275  1.00  0.00     0.186 HD
BRANCH  44  46
HETATM   46  N12 UNL     1     107.167  37.199  -2.144  1.00  0.00    -0.093 N 
HETATM   47  O4  UNL     1     107.134  38.350  -1.573  1.00  0.00    -0.530 OA
HETATM   48  O5  UNL     1     108.379  36.892  -2.635  1.00  0.00    -0.530 OA
ENDBRANCH  44  46
ENDBRANCH   1  36
TORSDOF 11
ENDMDL
MODEL 4
REMARK VINA RESULT: -7.278111657      1.440      3.943
REMARK  11 active torsions:
REMARK  status: ('A' for Active; 'I' for Inactive)
REMARK    1  A    between atoms: C4_6  and  C5_7 
REMARK    2  A    between atoms: C5_7  and  O1_8 
REMARK    3  A    between atoms: C5_7  and  O2_10 
REMARK    4  A    between atoms: C6_14  and  N3_15 
REMARK    5  A    between atoms: N3_15  and  C7_16 
REMARK    6  A    between atoms: N3_15  and  C12_34 
REMARK    7  A    between atoms: C8_19  and  N5_20 
REMARK    8  A    between atoms: N7_27  and  N8_28 
REMARK    9  A    between atoms: N8_28  and  C10_30 
REMARK   10  A    between atoms: C10_30  and  O3_32 
REMARK   11  A    between atoms: C14_43  and  N12_44 
ROOT
HETATM    1  N3  UNL     1     103.406  24.327  -1.223  1.00  0.00     0.044 N 
ENDROOT
BRANCH   1   2
HETATM    2  C6  UNL     1     104.403  23.306  -1.634  1.00  0.00     0.707 A 
HETATM    3  N2  UNL     1     104.190  22.010  -1.430  1.00  0.00    -0.189 N 
HETATM    4  C4  UNL     1     105.116  21.113  -1.832  1.00  0.00     0.084 A 
ATOM      5  H2  UNL     1     103.334  21.695  -0.975  1.00  0.00     0.184 HD
HETATM    6  C3  UNL     1     106.260  21.570  -2.443  1.00  0.00     0.079 A 
HETATM    7  C2  UNL     1     106.492  22.908  -2.660  1.00  0.00     0.118 A 
HETATM    8  N1  UNL     1     107.529  23.323  -3.225  1.00  0.00    -0.380 N 
HETATM    9  N13 UNL     1     105.512  23.765  -2.228  1.00  0.00    -0.176 N 
HETATM   10  C1  UNL     1     108.617  22.578  -3.730  1.00  0.00     0.147 C 
ATOM     11  H1  UNL     1     107.596  24.334  -3.336  1.00  0.00     0.160 HD
ATOM     12  H13 UNL     1     105.631  24.770  -2.361  1.00  0.00     0.186 HD
BRANCH   4  13
HETATM   13  C5  UNL     1     104.917  19.680  -1.618  1.00  0.00     0.305 C 
BRANCH  13  14
HETATM   14  O1  UNL     1     105.681  18.941  -2.535  1.00  0.00    -0.366 OA
ATOM     15  H1  UNL     1     105.919  18.100  -2.163  1.00  0.00     0.213 HD
ENDBRANCH  13  14
BRANCH  13  16
HETATM   16  O2  UNL     1     103.583  19.363  -1.816  1.00  0.00    -0.366 OA
ATOM     17  H2  UNL     1     103.223  18.993  -1.017  1.00  0.00     0.213 HD
ENDBRANCH  13  16
ENDBRANCH   4  13
ENDBRANCH   1   2
BRANCH   1  18
HETATM   18  C7  UNL     1     102.371  23.699  -0.527  1.00  0.00     0.726 A 
HETATM   19  N4  UNL     1     101.338  23.201  -1.127  1.00  0.00    -0.177 N 
HETATM   20  C8  UNL     1     100.220  22.539  -0.585  1.00  0.00     0.402 A 
ATOM     21  H4  UNL     1     101.333  23.302  -2.142  1.00  0.00     0.181 HD
HETATM   22  N6  UNL     1     100.324  22.382   0.830  1.00  0.00    -0.341 N 
HETATM   23  C9  UNL     1     101.296  22.818   1.512  1.00  0.00     0.223 A 
ATOM     24  H6  UNL     1      99.573  21.892   1.318  1.00  0.00     0.164 HD
HETATM   25  N7  UNL     1     102.369  23.498   0.914  1.00  0.00    -0.083 N 
BRANCH  20  26
HETATM   26  N5  UNL     1      98.957  23.229  -0.825  1.00  0.00    -0.040 N 
ATOM     27  H53 UNL     1      98.312  22.630  -1.339  1.00  0.00     0.279 HD
ATOM     28  H52 UNL     1      98.435  23.336   0.044  1.00  0.00     0.279 HD
ATOM     29  H51 UNL     1      99.064  24.128  -1.294  1.00  0.00     0.279 HD
ENDBRANCH  20  26
BRANCH  25  30
HETATM   30  N8  UNL     1     103.431  24.006   1.613  1.00  0.00    -0.286 N 
ATOM     31  H8  UNL     1     104.220  23.411   1.867  1.00  0.00     0.184 HD
BRANCH  30  32
HETATM   32  C10 UNL     1     103.411  25.375   1.978  1.00  0.00     0.230 C 
HETATM   33  C11 UNL     1     104.740  26.092   1.891  1.00  0.00     0.064 C 
BRANCH  32  34
HETATM   34  O3  UNL     1     102.436  26.160   1.414  1.00  0.00    -0.376 OA
ATOM     35  H3  UNL     1     101.715  26.424   1.973  1.00  0.00     0.212 HD
ENDBRANCH  32  34
ENDBRANCH  30  32
ENDBRANCH  25  30
ENDBRANCH   1  18
BRANCH   1  36
HETATM   36  C12 UNL     1     103.700  25.623  -1.607  1.00  0.00     0.213 A 
HETATM   37  N9  UNL     1     104.975  26.148  -1.573  1.00  0.00    -0.171 N 
HETATM   38  C13 UNL     1     104.980  27.416  -1.973  1.00  0.00     0.679 A 
ATOM     39  H9  UNL     1     105.805  25.632  -1.278  1.00  0.00     0.186 HD
HETATM   40  N10 UNL     1     106.011  28.184  -2.050  1.00  0.00    -0.234 N 
HETATM   41  N11 UNL     1     103.745  27.759  -2.278  1.00  0.00    -0.167 N 
ATOM     42 2H10 UNL     1     106.968  27.919  -1.813  1.00  0.00     0.174 HD
ATOM     43 1H10 UNL     1     106.016  29.157  -2.357  1.00  0.00     0.174 HD
HETATM   44  C14 UNL     1     102.929  26.660  -2.060  1.00  0.00     0.234 A 
ATOM     45  H11 UNL     1     103.443  28.673  -2.616  1.00  0.00     0.186 HD
BRANCH  44  46
HETATM   46  N12 UNL     1     101.563  26.763  -2.316  1.00  0.00    -0.093 N 
HETATM   47  O4  UNL     1     100.772  26.848  -1.307  1.00  0.00    -0.530 OA
HETATM   48  O5  UNL     1     100.917  26.784  -3.493  1.00  0.00    -0.530 OA
ENDBRANCH  44  46
ENDBRANCH   1  36
TORSDOF 11
ENDMDL
MODEL 5
REMARK VINA RESULT: -7.270370167      2.125      5.557
REMARK  11 active torsions:
REMARK  status: ('A' for Active; 'I' for Inactive)
REMARK    1  A    between atoms: C4_6  and  C5_7 
REMARK    2  A    between atoms: C5_7  and  O1_8 
REMARK    3  A    between atoms: C5_7  and  O2_10 
REMARK    4  A    between atoms: C6_14  and  N3_15 
REMARK    5  A    between atoms: N3_15  and  C7_16 
REMARK    6  A    between atoms: N3_15  and  C12_34 
REMARK    7  A    between atoms: C8_19  and  N5_20 
REMARK    8  A    between atoms: N7_27  and  N8_28 
REMARK    9  A    between atoms: N8_28  and  C10_30 
REMARK   10  A    between atoms: C10_30  and  O3_32 
REMARK   11  A    between atoms: C14_43  and  N12_44 
ROOT
HETATM    1  N3  UNL     1     103.904  21.895  -1.062  1.00  0.00     0.044 N 
ENDROOT
BRANCH   1   2
HETATM    2  C6  UNL     1     103.511  23.327  -1.062  1.00  0.00     0.707 A 
HETATM    3  N2  UNL     1     102.508  23.770  -1.814  1.00  0.00    -0.189 N 
HETATM    4  C4  UNL     1     102.174  25.077  -1.775  1.00  0.00     0.084 A 
ATOM      5  H2  UNL     1     101.993  23.126  -2.415  1.00  0.00     0.184 HD
HETATM    6  C3  UNL     1     102.888  25.919  -0.953  1.00  0.00     0.079 A 
HETATM    7  C2  UNL     1     103.927  25.474  -0.171  1.00  0.00     0.118 A 
HETATM    8  N1  UNL     1     104.570  26.238   0.583  1.00  0.00    -0.380 N 
HETATM    9  N13 UNL     1     104.215  24.136  -0.259  1.00  0.00    -0.176 N 
HETATM   10  C1  UNL     1     104.397  27.624   0.791  1.00  0.00     0.147 C 
ATOM     11  H1  UNL     1     105.319  25.801   1.120  1.00  0.00     0.160 HD
ATOM     12  H13 UNL     1     104.977  23.749   0.299  1.00  0.00     0.186 HD
BRANCH   4  13
HETATM   13  C5  UNL     1     101.080  25.599  -2.593  1.00  0.00     0.305 C 
BRANCH  13  14
HETATM   14  O1  UNL     1     101.425  26.852  -3.123  1.00  0.00    -0.366 OA
ATOM     15  H1  UNL     1     100.843  27.523  -2.786  1.00  0.00     0.213 HD
ENDBRANCH  13  14
BRANCH  13  16
HETATM   16  O2  UNL     1      99.951  25.760  -1.808  1.00  0.00    -0.366 OA
ATOM     17  H2  UNL     1      99.509  24.925  -1.711  1.00  0.00     0.213 HD
ENDBRANCH  13  16
ENDBRANCH   4  13
ENDBRANCH   1   2
BRANCH   1  18
HETATM   18  C7  UNL     1     105.269  21.797  -1.334  1.00  0.00     0.726 A 
HETATM   19  N4  UNL     1     105.824  22.423  -2.322  1.00  0.00    -0.177 N 
HETATM   20  C8  UNL     1     107.171  22.438  -2.730  1.00  0.00     0.402 A 
ATOM     21  H4  UNL     1     105.192  22.990  -2.887  1.00  0.00     0.181 HD
HETATM   22  N6  UNL     1     108.004  21.671  -1.860  1.00  0.00    -0.341 N 
HETATM   23  C9  UNL     1     107.567  21.032  -0.859  1.00  0.00     0.223 A 
ATOM     24  H6  UNL     1     109.004  21.636  -2.056  1.00  0.00     0.164 HD
HETATM   25  N7  UNL     1     106.204  21.034  -0.521  1.00  0.00    -0.083 N 
BRANCH  20  26
HETATM   26  N5  UNL     1     107.383  21.901  -4.070  1.00  0.00    -0.040 N 
ATOM     27  H53 UNL     1     106.518  21.927  -4.610  1.00  0.00     0.279 HD
ATOM     28  H52 UNL     1     107.951  22.538  -4.628  1.00  0.00     0.279 HD
ATOM     29  H51 UNL     1     107.783  20.962  -4.078  1.00  0.00     0.279 HD
ENDBRANCH  20  26
BRANCH  25  30
HETATM   30  N8  UNL     1     105.684  20.341   0.539  1.00  0.00    -0.286 N 
ATOM     31  H8  UNL     1     105.199  20.829   1.292  1.00  0.00     0.184 HD
BRANCH  30  32
HETATM   32  C10 UNL     1     105.834  18.932   0.568  1.00  0.00     0.230 C 
HETATM   33  C11 UNL     1     106.777  18.399   1.622  1.00  0.00     0.064 C 
BRANCH  32  34
HETATM   34  O3  UNL     1     104.685  18.180   0.568  1.00  0.00    -0.376 OA
ATOM     35  H3  UNL     1     104.548  17.597   1.306  1.00  0.00     0.212 HD
ENDBRANCH  32  34
ENDBRANCH  30  32
ENDBRANCH  25  30
ENDBRANCH   1  18
BRANCH   1  36
HETATM   36  C12 UNL     1     102.875  21.005  -0.811  1.00  0.00     0.213 A 
HETATM   37  N9  UNL     1     102.826  19.737  -1.352  1.00  0.00    -0.171 N 
HETATM   38  C13 UNL     1     101.726  19.097  -0.969  1.00  0.00     0.679 A 
ATOM     39  H9  UNL     1     103.540  19.343  -1.965  1.00  0.00     0.186 HD
HETATM   40  N10 UNL     1     101.387  17.900  -1.307  1.00  0.00    -0.234 N 
HETATM   41  N11 UNL     1     101.033  19.896  -0.185  1.00  0.00    -0.167 N 
ATOM     42 2H10 UNL     1     101.924  17.281  -1.915  1.00  0.00     0.174 HD
ATOM     43 1H10 UNL     1     100.543  17.408  -1.013  1.00  0.00     0.174 HD
HETATM   44  C14 UNL     1     101.727  21.091  -0.068  1.00  0.00     0.234 A 
ATOM     45  H11 UNL     1     100.142  19.675   0.260  1.00  0.00     0.186 HD
BRANCH  44  46
HETATM   46  N12 UNL     1     101.202  22.111   0.721  1.00  0.00    -0.093 N 
HETATM   47  O4  UNL     1     100.249  22.818   0.227  1.00  0.00    -0.530 OA
HETATM   48  O5  UNL     1     101.548  22.491   1.962  1.00  0.00    -0.530 OA
ENDBRANCH  44  46
ENDBRANCH   1  36
TORSDOF 11
ENDMDL
