MODEL 1
REMARK VINA RESULT: -6.672360443      0.000      0.000
REMARK  11 active torsions:
REMARK  status: ('A' for Active; 'I' for Inactive)
REMARK    1  A    between atoms: O1_2  and  C2_3 
REMARK    2  A    between atoms: N2_9  and  N3_10 
REMARK    3  A    between atoms: C4_11  and  O3_12 
REMARK    4  A    between atoms: C5_14  and  N4_15 
REMARK    5  A    between atoms: N4_15  and  O4_17 
REMARK    6  A    between atoms: C6_19  and  N5_20 
REMARK    7  A    between atoms: N7_26  and  N8_28 
REMARK    8  A    between atoms: N8_28  and  O5_30 
REMARK    9  A    between atoms: C9_33  and  C10_34 
REMARK   10  A    between atoms: C11_40  and  C12_41 
REMARK   11  A    between atoms: C12_41  and  N10_42 
ROOT
HETATM    1  C2  UNL     1     104.388  26.540   0.478  1.00  0.00     0.231 C 
HETATM    2  O2  UNL     1     103.446  26.269   1.513  1.00  0.00    -0.278 OA
HETATM    3  C3  UNL     1     102.887  25.038   1.310  1.00  0.00     0.238 C 
HETATM    4  N1  UNL     1     102.144  24.416   2.174  1.00  0.00    -0.364 N 
ATOM      5  H11 UNL     1     101.727  23.498   2.022  1.00  0.00     0.159 HD
ATOM      6  H12 UNL     1     101.894  24.767   3.098  1.00  0.00     0.159 HD
HETATM    7  N2  UNL     1     103.241  24.542   0.002  1.00  0.00    -0.220 N 
HETATM    8  C8  UNL     1     104.119  25.507  -0.587  1.00  0.00     0.220 C 
HETATM    9  C9  UNL     1     105.472  24.990  -0.969  1.00  0.00     0.317 C 
HETATM   10  N9  UNL     1     106.465  25.581  -0.137  1.00  0.00    -0.045 N 
ATOM     11  H91 UNL     1     107.119  26.166  -0.656  1.00  0.00     0.279 HD
ATOM     12  H92 UNL     1     107.141  24.903   0.214  1.00  0.00     0.279 HD
HETATM   13  C11 UNL     1     105.783  26.302   0.929  1.00  0.00     0.289 C 
ENDROOT
BRANCH   7  14
HETATM   14  N3  UNL     1     102.725  23.344  -0.470  1.00  0.00    -0.054 N 
HETATM   15  C4  UNL     1     101.535  23.403  -1.125  1.00  0.00     0.213 A 
HETATM   16  C5  UNL     1     100.951  22.254  -1.614  1.00  0.00     0.151 A 
HETATM   17  C6  UNL     1     101.559  21.026  -1.449  1.00  0.00     0.148 A 
HETATM   18  N6  UNL     1     102.731  21.005  -0.800  1.00  0.00    -0.171 N 
HETATM   19  C7  UNL     1     103.310  22.145  -0.315  1.00  0.00     0.723 A 
ATOM     20  H6  UNL     1     103.205  20.112  -0.662  1.00  0.00     0.186 HD
HETATM   21  N7  UNL     1     104.434  22.092   0.318  1.00  0.00    -0.111 N 
ATOM     22  H7  UNL     1     104.872  22.935   0.692  1.00  0.00     0.207 HD
BRANCH  15  23
HETATM   23  O3  UNL     1     100.903  24.627  -1.303  1.00  0.00    -0.343 OA
ATOM     24  H3  UNL     1      99.992  24.655  -1.571  1.00  0.00     0.219 HD
ENDBRANCH  15  23
BRANCH  16  25
HETATM   25  N4  UNL     1      99.703  22.278  -2.308  1.00  0.00    -0.261 N 
ATOM     26  H4  UNL     1      98.860  22.535  -1.794  1.00  0.00     0.194 HD
BRANCH  25  27
HETATM   27  O4  UNL     1      99.606  21.994  -3.525  1.00  0.00    -0.289 OA
ATOM     28  H4  UNL     1      99.597  21.099  -3.840  1.00  0.00     0.244 HD
ENDBRANCH  25  27
ENDBRANCH  16  25
BRANCH  17  29
HETATM   29  N5  UNL     1     101.018  19.939  -1.905  1.00  0.00    -0.383 N 
ATOM     30  H52 UNL     1     100.887  19.120  -1.311  1.00  0.00     0.157 HD
ATOM     31  H51 UNL     1     100.708  19.866  -2.874  1.00  0.00     0.157 HD
ENDBRANCH  17  29
BRANCH  21  32
HETATM   32  N8  UNL     1     105.029  20.840   0.472  1.00  0.00    -0.196 N 
ATOM     33  H8  UNL     1     105.023  20.393   1.389  1.00  0.00     0.216 HD
BRANCH  32  34
HETATM   34  O5  UNL     1     105.617  20.199  -0.581  1.00  0.00    -0.274 OA
ATOM     35  H5  UNL     1     105.183  19.481  -1.027  1.00  0.00     0.246 HD
ENDBRANCH  32  34
ENDBRANCH  21  32
ENDBRANCH   7  14
BRANCH   1  36
HETATM   36  O1  UNL     1     104.161  27.830   0.055  1.00  0.00    -0.356 OA
HETATM   37  C1  UNL     1     103.248  27.998  -0.930  1.00  0.00     0.205 C 
ENDBRANCH   1  36
BRANCH   9  38
HETATM   38  C10 UNL     1     105.744  25.373  -2.408  1.00  0.00     0.207 C 
HETATM   39  O6  UNL     1     105.517  24.536  -3.328  1.00  0.00    -0.646 OA
HETATM   40  O7  UNL     1     106.230  26.622  -2.691  1.00  0.00    -0.646 OA
ENDBRANCH   9  38
BRANCH  13  41
HETATM   41  C12 UNL     1     106.588  27.459   1.407  1.00  0.00     0.096 C 
BRANCH  41  42
HETATM   42  N10 UNL     1     107.798  27.308   2.049  1.00  0.00    -0.400 N 
HETATM   43  C13 UNL     1     108.065  26.496   3.144  1.00  0.00     0.148 C 
HETATM   44  C14 UNL     1     108.590  28.547   2.074  1.00  0.00     0.148 C 
ENDBRANCH  41  42
ENDBRANCH  13  41
TORSDOF 11
ENDMDL
MODEL 2
REMARK VINA RESULT: -6.437938448      1.713      3.041
REMARK  11 active torsions:
REMARK  status: ('A' for Active; 'I' for Inactive)
REMARK    1  A    between atoms: O1_2  and  C2_3 
REMARK    2  A    between atoms: N2_9  and  N3_10 
REMARK    3  A    between atoms: C4_11  and  O3_12 
REMARK    4  A    between atoms: C5_14  and  N4_15 
REMARK    5  A    between atoms: N4_15  and  O4_17 
REMARK    6  A    between atoms: C6_19  and  N5_20 
REMARK    7  A    between atoms: N7_26  and  N8_28 
REMARK    8  A    between atoms: N8_28  and  O5_30 
REMARK    9  A    between atoms: C9_33  and  C10_34 
REMARK   10  A    between atoms: C11_40  and  C12_41 
REMARK   11  A    between atoms: C12_41  and  N10_42 
ROOT
HETATM    1  C2  UNL     1     105.382  26.587   0.622  1.00  0.00     0.231 C 
HETATM    2  O2  UNL     1     104.382  26.333   1.606  1.00  0.00    -0.278 OA
HETATM    3  C3  UNL     1     103.534  25.362   1.152  1.00  0.00     0.238 C 
HETATM    4  N1  UNL     1     102.641  24.766   1.883  1.00  0.00    -0.364 N 
ATOM      5  H11 UNL     1     102.008  24.041   1.544  1.00  0.00     0.159 HD
ATOM      6  H12 UNL     1     102.470  24.948   2.871  1.00  0.00     0.159 HD
HETATM    7  N2  UNL     1     103.776  25.104  -0.246  1.00  0.00    -0.220 N 
HETATM    8  C8  UNL     1     104.881  25.925  -0.637  1.00  0.00     0.220 C 
HETATM    9  C9  UNL     1     106.067  25.186  -1.178  1.00  0.00     0.317 C 
HETATM   10  N9  UNL     1     107.160  25.302  -0.275  1.00  0.00    -0.045 N 
ATOM     11  H91 UNL     1     107.951  25.808  -0.674  1.00  0.00     0.279 HD
ATOM     12  H92 UNL     1     107.636  24.415  -0.113  1.00  0.00     0.279 HD
HETATM   13  C11 UNL     1     106.663  25.910   0.953  1.00  0.00     0.289 C 
ENDROOT
BRANCH   7  14
HETATM   14  N3  UNL     1     102.982  24.214  -0.955  1.00  0.00    -0.054 N 
HETATM   15  C4  UNL     1     103.303  22.896  -0.862  1.00  0.00     0.213 A 
HETATM   16  C5  UNL     1     102.568  21.950  -1.545  1.00  0.00     0.151 A 
HETATM   17  C6  UNL     1     101.497  22.320  -2.333  1.00  0.00     0.148 A 
HETATM   18  N6  UNL     1     101.209  23.627  -2.401  1.00  0.00    -0.171 N 
HETATM   19  C7  UNL     1     101.937  24.564  -1.723  1.00  0.00     0.723 A 
ATOM     20  H6  UNL     1     100.422  23.931  -2.975  1.00  0.00     0.186 HD
HETATM   21  N7  UNL     1     101.644  25.819  -1.817  1.00  0.00    -0.111 N 
ATOM     22  H7  UNL     1     102.185  26.528  -1.323  1.00  0.00     0.207 HD
BRANCH  15  23
HETATM   23  O3  UNL     1     104.376  22.499  -0.075  1.00  0.00    -0.343 OA
ATOM     24  H3  UNL     1     104.258  21.819   0.578  1.00  0.00     0.219 HD
ENDBRANCH  15  23
BRANCH  16  25
HETATM   25  N4  UNL     1     102.875  20.557  -1.471  1.00  0.00    -0.261 N 
ATOM     26  H4  UNL     1     102.344  19.972  -0.825  1.00  0.00     0.194 HD
BRANCH  25  27
HETATM   27  O4  UNL     1     103.772  20.028  -2.168  1.00  0.00    -0.289 OA
ATOM     28  H4  UNL     1     104.570  20.485  -2.403  1.00  0.00     0.244 HD
ENDBRANCH  25  27
ENDBRANCH  16  25
BRANCH  17  29
HETATM   29  N5  UNL     1     100.799  21.438  -2.980  1.00  0.00    -0.383 N 
ATOM     30  H52 UNL     1      99.901  21.109  -2.628  1.00  0.00     0.157 HD
ATOM     31  H51 UNL     1     101.127  21.045  -3.862  1.00  0.00     0.157 HD
ENDBRANCH  17  29
BRANCH  21  32
HETATM   32  N8  UNL     1     100.557  26.167  -2.620  1.00  0.00    -0.196 N 
ATOM     33  H8  UNL     1      99.615  26.120  -2.234  1.00  0.00     0.216 HD
BRANCH  32  34
HETATM   34  O5  UNL     1     100.732  26.569  -3.914  1.00  0.00    -0.274 OA
ATOM     35  H5  UNL     1     101.574  26.877  -4.226  1.00  0.00     0.246 HD
ENDBRANCH  32  34
ENDBRANCH  21  32
ENDBRANCH   7  14
BRANCH   1  36
HETATM   36  O1  UNL     1     105.498  27.954   0.510  1.00  0.00    -0.356 OA
HETATM   37  C1  UNL     1     104.581  28.583  -0.261  1.00  0.00     0.205 C 
ENDBRANCH   1  36
BRANCH   9  38
HETATM   38  C10 UNL     1     106.454  25.805  -2.504  1.00  0.00     0.207 C 
HETATM   39  O6  UNL     1     106.463  27.063  -2.625  1.00  0.00    -0.646 OA
HETATM   40  O7  UNL     1     106.791  24.991  -3.553  1.00  0.00    -0.646 OA
ENDBRANCH   9  38
BRANCH  13  41
HETATM   41  C12 UNL     1     107.725  26.687   1.646  1.00  0.00     0.096 C 
BRANCH  41  42
HETATM   42  N10 UNL     1     108.508  26.149   2.645  1.00  0.00    -0.400 N 
HETATM   43  C13 UNL     1     108.514  26.513   3.986  1.00  0.00     0.148 C 
HETATM   44  C14 UNL     1     109.843  25.754   2.173  1.00  0.00     0.148 C 
ENDBRANCH  41  42
ENDBRANCH  13  41
TORSDOF 11
ENDMDL
MODEL 3
REMARK VINA RESULT: -6.431267173      1.483      3.173
REMARK  11 active torsions:
REMARK  status: ('A' for Active; 'I' for Inactive)
REMARK    1  A    between atoms: O1_2  and  C2_3 
REMARK    2  A    between atoms: N2_9  and  N3_10 
REMARK    3  A    between atoms: C4_11  and  O3_12 
REMARK    4  A    between atoms: C5_14  and  N4_15 
REMARK    5  A    between atoms: N4_15  and  O4_17 
REMARK    6  A    between atoms: C6_19  and  N5_20 
REMARK    7  A    between atoms: N7_26  and  N8_28 
REMARK    8  A    between atoms: N8_28  and  O5_30 
REMARK    9  A    between atoms: C9_33  and  C10_34 
REMARK   10  A    between atoms: C11_40  and  C12_41 
REMARK   11  A    between atoms: C12_41  and  N10_42 
ROOT
HETATM    1  C2  UNL     1     103.620  25.660   0.182  1.00  0.00     0.231 C 
HETATM    2  O2  UNL     1     102.639  25.364   1.174  1.00  0.00    -0.278 OA
HETATM    3  C3  UNL     1     102.299  24.042   1.097  1.00  0.00     0.238 C 
HETATM    4  N1  UNL     1     101.585  23.415   1.981  1.00  0.00    -0.364 N 
ATOM      5  H11 UNL     1     101.330  22.428   1.923  1.00  0.00     0.159 HD
ATOM      6  H12 UNL     1     101.199  23.828   2.830  1.00  0.00     0.159 HD
HETATM    7  N2  UNL     1     102.844  23.458  -0.104  1.00  0.00    -0.220 N 
HETATM    8  C8  UNL     1     103.613  24.475  -0.752  1.00  0.00     0.220 C 
HETATM    9  C9  UNL     1     105.060  24.148  -0.963  1.00  0.00     0.317 C 
HETATM   10  N9  UNL     1     105.868  24.989  -0.149  1.00  0.00    -0.045 N 
ATOM     11  H91 UNL     1     106.468  25.608  -0.694  1.00  0.00     0.279 HD
ATOM     12  H92 UNL     1     106.606  24.480   0.337  1.00  0.00     0.279 HD
HETATM   13  C11 UNL     1     104.988  25.712   0.760  1.00  0.00     0.289 C 
ENDROOT
BRANCH   7  14
HETATM   14  N3  UNL     1     102.565  22.143  -0.447  1.00  0.00    -0.054 N 
HETATM   15  C4  UNL     1     103.408  21.190   0.032  1.00  0.00     0.213 A 
HETATM   16  C5  UNL     1     103.204  19.862  -0.273  1.00  0.00     0.151 A 
HETATM   17  C6  UNL     1     102.145  19.473  -1.067  1.00  0.00     0.148 A 
HETATM   18  N6  UNL     1     101.333  20.438  -1.522  1.00  0.00    -0.171 N 
HETATM   19  C7  UNL     1     101.536  21.755  -1.219  1.00  0.00     0.723 A 
ATOM     20  H6  UNL     1     100.540  20.182  -2.111  1.00  0.00     0.186 HD
HETATM   21  N7  UNL     1     100.744  22.665  -1.681  1.00  0.00    -0.111 N 
ATOM     22  H7  UNL     1     100.890  23.652  -1.469  1.00  0.00     0.207 HD
BRANCH  15  23
HETATM   23  O3  UNL     1     104.481  21.556   0.834  1.00  0.00    -0.343 OA
ATOM     24  H3  UNL     1     105.296  21.070   0.785  1.00  0.00     0.219 HD
ENDBRANCH  15  23
BRANCH  16  25
HETATM   25  N4  UNL     1     104.068  18.833   0.213  1.00  0.00    -0.261 N 
ATOM     26  H4  UNL     1     104.948  18.661  -0.273  1.00  0.00     0.194 HD
BRANCH  25  27
HETATM   27  O4  UNL     1     103.784  18.135   1.214  1.00  0.00    -0.289 OA
ATOM     28  H4  UNL     1     103.697  17.191   1.169  1.00  0.00     0.244 HD
ENDBRANCH  25  27
ENDBRANCH  16  25
BRANCH  17  29
HETATM   29  N5  UNL     1     101.943  18.225  -1.361  1.00  0.00    -0.383 N 
ATOM     30  H52 UNL     1     102.507  17.483  -0.947  1.00  0.00     0.157 HD
ATOM     31  H51 UNL     1     101.214  17.946  -2.018  1.00  0.00     0.157 HD
ENDBRANCH  17  29
BRANCH  21  32
HETATM   32  N8  UNL     1      99.681  22.247  -2.482  1.00  0.00    -0.196 N 
ATOM     33  H8  UNL     1      98.758  22.130  -2.066  1.00  0.00     0.216 HD
BRANCH  32  34
HETATM   34  O5  UNL     1      99.853  21.991  -3.813  1.00  0.00    -0.274 OA
ATOM     35  H5  UNL     1     100.483  21.348  -4.114  1.00  0.00     0.246 HD
ENDBRANCH  32  34
ENDBRANCH  21  32
ENDBRANCH   7  14
BRANCH   1  36
HETATM   36  O1  UNL     1     103.236  26.835  -0.425  1.00  0.00    -0.356 OA
HETATM   37  C1  UNL     1     102.149  26.779  -1.229  1.00  0.00     0.205 C 
ENDBRANCH   1  36
BRANCH   9  38
HETATM   38  C10 UNL     1     105.400  24.393  -2.418  1.00  0.00     0.207 C 
HETATM   39  O6  UNL     1     104.847  25.347  -3.034  1.00  0.00    -0.646 OA
HETATM   40  O7  UNL     1     106.307  23.578  -3.043  1.00  0.00    -0.646 OA
ENDBRANCH   9  38
BRANCH  13  41
HETATM   41  C12 UNL     1     105.556  27.034   1.135  1.00  0.00     0.096 C 
BRANCH  41  42
HETATM   42  N10 UNL     1     106.637  27.590   0.485  1.00  0.00    -0.400 N 
HETATM   43  C13 UNL     1     107.890  27.852   1.027  1.00  0.00     0.148 C 
HETATM   44  C14 UNL     1     106.248  28.593  -0.517  1.00  0.00     0.148 C 
ENDBRANCH  41  42
ENDBRANCH  13  41
TORSDOF 11
ENDMDL
MODEL 4
REMARK VINA RESULT: -5.868824092      2.266      4.603
REMARK  11 active torsions:
REMARK  status: ('A' for Active; 'I' for Inactive)
REMARK    1  A    between atoms: O1_2  and  C2_3 
REMARK    2  A    between atoms: N2_9  and  N3_10 
REMARK    3  A    between atoms: C4_11  and  O3_12 
REMARK    4  A    between atoms: C5_14  and  N4_15 
REMARK    5  A    between atoms: N4_15  and  O4_17 
REMARK    6  A    between atoms: C6_19  and  N5_20 
REMARK    7  A    between atoms: N7_26  and  N8_28 
REMARK    8  A    between atoms: N8_28  and  O5_30 
REMARK    9  A    between atoms: C9_33  and  C10_34 
REMARK   10  A    between atoms: C11_40  and  C12_41 
REMARK   11  A    between atoms: C12_41  and  N10_42 
ROOT
HETATM    1  C2  UNL     1     105.402  24.400  -1.083  1.00  0.00     0.231 C 
HETATM    2  O2  UNL     1     106.122  23.463  -1.881  1.00  0.00    -0.278 OA
HETATM    3  C3  UNL     1     105.400  22.307  -1.987  1.00  0.00     0.238 C 
HETATM    4  N1  UNL     1     105.683  21.337  -2.801  1.00  0.00    -0.364 N 
ATOM      5  H11 UNL     1     105.145  20.474  -2.881  1.00  0.00     0.159 HD
ATOM      6  H12 UNL     1     106.468  21.322  -3.453  1.00  0.00     0.159 HD
HETATM    7  N2  UNL     1     104.290  22.327  -1.065  1.00  0.00    -0.220 N 
HETATM    8  C8  UNL     1     104.312  23.601  -0.414  1.00  0.00     0.220 C 
HETATM    9  C9  UNL     1     103.073  24.427  -0.584  1.00  0.00     0.317 C 
HETATM   10  N9  UNL     1     103.364  25.573  -1.376  1.00  0.00    -0.045 N 
ATOM     11  H91 UNL     1     103.246  26.447  -0.864  1.00  0.00     0.279 HD
ATOM     12  H92 UNL     1     102.663  25.744  -2.096  1.00  0.00     0.279 HD
HETATM   13  C11 UNL     1     104.706  25.413  -1.920  1.00  0.00     0.289 C 
ENDROOT
BRANCH   7  14
HETATM   14  N3  UNL     1     103.457  21.226  -0.929  1.00  0.00    -0.054 N 
HETATM   15  C4  UNL     1     103.840  20.273  -0.039  1.00  0.00     0.213 A 
HETATM   16  C5  UNL     1     103.071  19.144   0.146  1.00  0.00     0.151 A 
HETATM   17  C6  UNL     1     101.903  18.958  -0.565  1.00  0.00     0.148 A 
HETATM   18  N6  UNL     1     101.556  19.919  -1.434  1.00  0.00    -0.171 N 
HETATM   19  C7  UNL     1     102.319  21.038  -1.617  1.00  0.00     0.723 A 
ATOM     20  H6  UNL     1     100.698  19.811  -1.974  1.00  0.00     0.186 HD
HETATM   21  N7  UNL     1     101.965  21.941  -2.470  1.00  0.00    -0.111 N 
ATOM     22  H7  UNL     1     102.531  22.777  -2.621  1.00  0.00     0.207 HD
BRANCH  15  23
HETATM   23  O3  UNL     1     105.011  20.436   0.690  1.00  0.00    -0.343 OA
ATOM     24  H3  UNL     1     105.772  20.831   0.281  1.00  0.00     0.219 HD
ENDBRANCH  15  23
BRANCH  16  25
HETATM   25  N4  UNL     1     103.440  18.122   1.074  1.00  0.00    -0.261 N 
ATOM     26  H4  UNL     1     104.262  17.552   0.874  1.00  0.00     0.194 HD
BRANCH  25  27
HETATM   27  O4  UNL     1     102.791  17.901   2.123  1.00  0.00    -0.289 OA
ATOM     28  H4  UNL     1     101.858  17.730   2.118  1.00  0.00     0.244 HD
ENDBRANCH  25  27
ENDBRANCH  16  25
BRANCH  17  29
HETATM   29  N5  UNL     1     101.172  17.900  -0.399  1.00  0.00    -0.383 N 
ATOM     30  H52 UNL     1     101.020  17.498   0.525  1.00  0.00     0.157 HD
ATOM     31  H51 UNL     1     100.726  17.434  -1.189  1.00  0.00     0.157 HD
ENDBRANCH  17  29
BRANCH  21  32
HETATM   32  N8  UNL     1     100.782  21.731  -3.177  1.00  0.00    -0.196 N 
ATOM     33  H8  UNL     1     100.792  21.128  -4.000  1.00  0.00     0.216 HD
BRANCH  32  34
HETATM   34  O5  UNL     1      99.610  22.316  -2.789  1.00  0.00    -0.274 OA
ATOM     35  H5  UNL     1      99.470  22.593  -1.892  1.00  0.00     0.246 HD
ENDBRANCH  32  34
ENDBRANCH  21  32
ENDBRANCH   7  14
BRANCH   1  36
HETATM   36  O1  UNL     1     106.300  24.947  -0.195  1.00  0.00    -0.356 OA
HETATM   37  C1  UNL     1     107.613  24.794  -0.484  1.00  0.00     0.205 C 
ENDBRANCH   1  36
BRANCH   9  38
HETATM   38  C10 UNL     1     102.605  24.877   0.784  1.00  0.00     0.207 C 
HETATM   39  O6  UNL     1     101.962  24.074   1.517  1.00  0.00    -0.646 OA
HETATM   40  O7  UNL     1     102.888  26.150   1.205  1.00  0.00    -0.646 OA
ENDBRANCH   9  38
BRANCH  13  41
HETATM   41  C12 UNL     1     105.364  26.727  -2.147  1.00  0.00     0.096 C 
BRANCH  41  42
HETATM   42  N10 UNL     1     104.938  27.887  -1.536  1.00  0.00    -0.400 N 
HETATM   43  C13 UNL     1     104.323  28.973  -2.147  1.00  0.00     0.148 C 
HETATM   44  C14 UNL     1     105.806  28.298  -0.422  1.00  0.00     0.148 C 
ENDBRANCH  41  42
ENDBRANCH  13  41
TORSDOF 11
ENDMDL
MODEL 5
REMARK VINA RESULT: -5.844870590      3.330      7.883
REMARK  11 active torsions:
REMARK  status: ('A' for Active; 'I' for Inactive)
REMARK    1  A    between atoms: O1_2  and  C2_3 
REMARK    2  A    between atoms: N2_9  and  N3_10 
REMARK    3  A    between atoms: C4_11  and  O3_12 
REMARK    4  A    between atoms: C5_14  and  N4_15 
REMARK    5  A    between atoms: N4_15  and  O4_17 
REMARK    6  A    between atoms: C6_19  and  N5_20 
REMARK    7  A    between atoms: N7_26  and  N8_28 
REMARK    8  A    between atoms: N8_28  and  O5_30 
REMARK    9  A    between atoms: C9_33  and  C10_34 
REMARK   10  A    between atoms: C11_40  and  C12_41 
REMARK   11  A    between atoms: C12_41  and  N10_42 
ROOT
HETATM    1  C2  UNL     1     104.815  25.539  -1.064  1.00  0.00     0.231 C 
HETATM    2  O2  UNL     1     106.238  25.450  -1.027  1.00  0.00    -0.278 OA
HETATM    3  C3  UNL     1     106.766  26.697  -0.838  1.00  0.00     0.238 C 
HETATM    4  N1  UNL     1     108.013  26.933  -0.564  1.00  0.00    -0.364 N 
ATOM      5  H11 UNL     1     108.407  27.863  -0.422  1.00  0.00     0.159 HD
ATOM      6  H12 UNL     1     108.738  26.224  -0.456  1.00  0.00     0.159 HD
HETATM    7  N2  UNL     1     105.740  27.700  -0.990  1.00  0.00    -0.220 N 
HETATM    8  C8  UNL     1     104.510  27.007  -1.221  1.00  0.00     0.220 C 
HETATM    9  C9  UNL     1     103.426  27.280  -0.223  1.00  0.00     0.317 C 
HETATM   10  N9  UNL     1     103.169  26.109   0.543  1.00  0.00    -0.045 N 
ATOM     11  H91 UNL     1     102.228  25.742   0.403  1.00  0.00     0.279 HD
ATOM     12  H92 UNL     1     103.092  26.298   1.542  1.00  0.00     0.279 HD
HETATM   13  C11 UNL     1     104.207  25.135   0.231  1.00  0.00     0.289 C 
ENDROOT
BRANCH   7  14
HETATM   14  N3  UNL     1     106.049  29.051  -0.925  1.00  0.00    -0.054 N 
HETATM   15  C4  UNL     1     106.126  29.604   0.314  1.00  0.00     0.213 A 
HETATM   16  C5  UNL     1     106.418  30.944   0.462  1.00  0.00     0.151 A 
HETATM   17  C6  UNL     1     106.637  31.746  -0.639  1.00  0.00     0.148 A 
HETATM   18  N6  UNL     1     106.553  31.167  -1.845  1.00  0.00    -0.171 N 
HETATM   19  C7  UNL     1     106.264  29.840  -1.991  1.00  0.00     0.723 A 
ATOM     20  H6  UNL     1     106.710  31.734  -2.678  1.00  0.00     0.186 HD
HETATM   21  N7  UNL     1     106.178  29.311  -3.167  1.00  0.00    -0.111 N 
ATOM     22  H7  UNL     1     105.954  28.323  -3.289  1.00  0.00     0.207 HD
BRANCH  15  23
HETATM   23  O3  UNL     1     105.911  28.818   1.438  1.00  0.00    -0.343 OA
ATOM     24  H3  UNL     1     105.754  27.886   1.342  1.00  0.00     0.219 HD
ENDBRANCH  15  23
BRANCH  16  25
HETATM   25  N4  UNL     1     106.509  31.559   1.748  1.00  0.00    -0.261 N 
ATOM     26  H4  UNL     1     105.649  31.753   2.262  1.00  0.00     0.194 HD
BRANCH  25  27
HETATM   27  O4  UNL     1     107.606  31.870   2.268  1.00  0.00    -0.289 OA
ATOM     28  H4  UNL     1     107.696  32.058   3.194  1.00  0.00     0.244 HD
ENDBRANCH  25  27
ENDBRANCH  16  25
BRANCH  17  29
HETATM   29  N5  UNL     1     106.912  33.007  -0.511  1.00  0.00    -0.383 N 
ATOM     30  H52 UNL     1     107.793  33.396  -0.845  1.00  0.00     0.157 HD
ATOM     31  H51 UNL     1     106.255  33.652  -0.071  1.00  0.00     0.157 HD
ENDBRANCH  17  29
BRANCH  21  32
HETATM   32  N8  UNL     1     106.402  30.143  -4.264  1.00  0.00    -0.196 N 
ATOM     33  H8  UNL     1     107.158  29.923  -4.912  1.00  0.00     0.216 HD
BRANCH  32  34
HETATM   34  O5  UNL     1     105.629  31.247  -4.487  1.00  0.00    -0.274 OA
ATOM     35  H5  UNL     1     104.701  31.249  -4.284  1.00  0.00     0.246 HD
ENDBRANCH  32  34
ENDBRANCH  21  32
ENDBRANCH   7  14
BRANCH   1  36
HETATM   36  O1  UNL     1     104.392  24.777  -2.129  1.00  0.00    -0.356 OA
HETATM   37  C1  UNL     1     105.352  24.284  -2.946  1.00  0.00     0.205 C 
ENDBRANCH   1  36
BRANCH   9  38
HETATM   38  C10 UNL     1     102.168  27.664  -0.974  1.00  0.00     0.207 C 
HETATM   39  O6  UNL     1     101.297  28.381  -0.404  1.00  0.00    -0.646 OA
HETATM   40  O7  UNL     1     101.995  27.228  -2.261  1.00  0.00    -0.646 OA
ENDBRANCH   9  38
BRANCH  13  41
HETATM   41  C12 UNL     1     103.712  23.741   0.385  1.00  0.00     0.096 C 
BRANCH  41  42
HETATM   42  N10 UNL     1     102.370  23.430   0.440  1.00  0.00    -0.400 N 
HETATM   43  C13 UNL     1     101.692  22.850   1.506  1.00  0.00     0.148 C 
HETATM   44  C14 UNL     1     101.829  23.002  -0.858  1.00  0.00     0.148 C 
ENDBRANCH  41  42
ENDBRANCH  13  41
TORSDOF 11
ENDMDL
