MODEL 1
REMARK VINA RESULT: -7.423673313      0.000      0.000
REMARK  12 active torsions:
REMARK  status: ('A' for Active; 'I' for Inactive)
REMARK    1  A    between atoms: C2_7  and  C3_8 
REMARK    2  A    between atoms: C3_8  and  N4_9 
REMARK    3  A    between atoms: C5_11  and  C6_12 
REMARK    4  A    between atoms: C6_12  and  N5_13 
REMARK    5  A    between atoms: N5_13  and  C7_15 
REMARK    6  A    between atoms: C8_18  and  N7_19 
REMARK    7  A    between atoms: C10_26  and  N10_27 
REMARK    8  A    between atoms: C11_28  and  O1_29 
REMARK    9  A    between atoms: C12_31  and  C13_32 
REMARK   10  A    between atoms: C13_32  and  N11_33 
REMARK   11  A    between atoms: C13_32  and  O2_37 
REMARK   12  A    between atoms: C14_41  and  N13_42 
ROOT
HETATM    1  C7  UNL     1     104.474  26.532  -1.864  1.00  0.00     0.148 A 
HETATM    2  N6  UNL     1     105.221  27.590  -2.219  1.00  0.00    -0.175 N 
ATOM      3  H6  UNL     1     106.091  27.440  -2.731  1.00  0.00     0.186 HD
HETATM    4  C8  UNL     1     104.840  28.849  -1.910  1.00  0.00     0.678 A 
HETATM    5  N8  UNL     1     103.692  29.041  -1.236  1.00  0.00    -0.177 N 
ATOM      6  H8  UNL     1     103.400  29.989  -1.000  1.00  0.00     0.185 HD
HETATM    7  C9  UNL     1     102.923  27.998  -0.866  1.00  0.00     0.163 A 
HETATM    8  N9  UNL     1     101.727  28.217  -0.162  1.00  0.00    -0.080 NA
HETATM    9  C10 UNL     1     103.282  26.703  -1.166  1.00  0.00     0.145 A 
ENDROOT
BRANCH   1  10
HETATM   10  N5  UNL     1     104.813  25.329  -2.146  1.00  0.00    -0.368 N 
ATOM     11  H5  UNL     1     104.235  24.763  -2.768  1.00  0.00     0.161 HD
BRANCH  10  12
HETATM   12  C6  UNL     1     106.024  24.784  -1.573  1.00  0.00     0.181 C 
BRANCH  12  13
HETATM   13  C5  UNL     1     106.002  23.303  -1.469  1.00  0.00     0.062 A 
HETATM   14  C4  UNL     1     104.980  22.448  -1.799  1.00  0.00     0.140 A 
HETATM   15  N4  UNL     1     105.395  21.192  -1.535  1.00  0.00    -0.280 N 
HETATM   16  N15 UNL     1     106.623  21.300  -1.064  1.00  0.00    -0.240 N 
HETATM   17  N14 UNL     1     107.010  22.556  -1.014  1.00  0.00    -0.287 N 
ATOM     18  H15 UNL     1     107.200  20.510  -0.776  1.00  0.00     0.208 HD
ATOM     19  H14 UNL     1     107.914  22.897  -0.688  1.00  0.00     0.188 HD
BRANCH  15  20
HETATM   20  C3  UNL     1     104.627  19.974  -1.742  1.00  0.00     0.229 C 
BRANCH  20  21
HETATM   21  C2  UNL     1     103.384  19.961  -0.933  1.00  0.00     0.133 A 
HETATM   22  N3  UNL     1     103.343  20.259   0.376  1.00  0.00    -0.271 N 
HETATM   23  N2  UNL     1     102.117  20.168   0.838  1.00  0.00    -0.225 N 
ATOM     24  H3  UNL     1     104.155  20.522   0.937  1.00  0.00     0.190 HD
HETATM   25  N1  UNL     1     101.353  19.805  -0.180  1.00  0.00    -0.223 N 
ATOM     26  H2  UNL     1     101.814  20.342   1.796  1.00  0.00     0.210 HD
HETATM   27  C1  UNL     1      99.923  19.600  -0.061  1.00  0.00     0.202 C 
HETATM   28  N16 UNL     1     102.114  19.673  -1.272  1.00  0.00    -0.269 N 
ATOM     29  H16 UNL     1     101.789  19.403  -2.201  1.00  0.00     0.190 HD
ENDBRANCH  20  21
ENDBRANCH  15  20
ENDBRANCH  12  13
ENDBRANCH  10  12
ENDBRANCH   1  10
BRANCH   9  30
HETATM   30  N10 UNL     1     102.533  25.549  -0.821  1.00  0.00    -0.117 N 
HETATM   31  C11 UNL     1     101.475  25.016  -1.458  1.00  0.00     0.191 A 
HETATM   32  C12 UNL     1     101.022  23.891  -0.816  1.00  0.00     0.134 A 
HETATM   33  N12 UNL     1     101.826  23.734   0.242  1.00  0.00    -0.186 N 
HETATM   34  C14 UNL     1     102.737  24.723   0.250  1.00  0.00     0.685 A 
ATOM     35  H12 UNL     1     101.760  22.985   0.931  1.00  0.00     0.184 HD
BRANCH  31  36
HETATM   36  O1  UNL     1     100.903  25.522  -2.612  1.00  0.00    -0.344 OA
ATOM     37  H1  UNL     1     100.013  25.845  -2.684  1.00  0.00     0.219 HD
ENDBRANCH  31  36
BRANCH  32  38
HETATM   38  C13 UNL     1      99.885  23.007  -1.185  1.00  0.00     0.372 C 
BRANCH  38  39
HETATM   39  N11 UNL     1     100.163  22.432  -2.506  1.00  0.00    -0.047 N 
ATOM     40 3H11 UNL     1      99.407  22.591  -3.171  1.00  0.00     0.277 HD
ATOM     41 2H11 UNL     1     100.895  22.935  -3.008  1.00  0.00     0.277 HD
ATOM     42 1H11 UNL     1     100.379  21.442  -2.383  1.00  0.00     0.277 HD
ENDBRANCH  38  39
BRANCH  38  43
HETATM   43  O2  UNL     1      98.721  23.745  -1.319  1.00  0.00    -0.365 OA
ATOM     44  H2  UNL     1      98.017  23.198  -1.645  1.00  0.00     0.212 HD
ENDBRANCH  38  43
ENDBRANCH  32  38
BRANCH  34  45
HETATM   45  N13 UNL     1     103.642  24.840   1.146  1.00  0.00    -0.234 N 
ATOM     46 2H13 UNL     1     103.466  24.710   2.142  1.00  0.00     0.174 HD
ATOM     47 1H13 UNL     1     104.623  25.071   0.996  1.00  0.00     0.174 HD
ENDBRANCH  34  45
ENDBRANCH   9  30
BRANCH   4  48
HETATM   48  N7  UNL     1     105.571  29.869  -2.258  1.00  0.00    -0.234 N 
ATOM     49  H72 UNL     1     105.701  30.092  -3.245  1.00  0.00     0.174 HD
ATOM     50  H71 UNL     1     106.018  30.454  -1.553  1.00  0.00     0.174 HD
ENDBRANCH   4  48
TORSDOF 12
ENDMDL
MODEL 2
REMARK VINA RESULT: -7.238572358      2.003      3.870
REMARK  12 active torsions:
REMARK  status: ('A' for Active; 'I' for Inactive)
REMARK    1  A    between atoms: C2_7  and  C3_8 
REMARK    2  A    between atoms: C3_8  and  N4_9 
REMARK    3  A    between atoms: C5_11  and  C6_12 
REMARK    4  A    between atoms: C6_12  and  N5_13 
REMARK    5  A    between atoms: N5_13  and  C7_15 
REMARK    6  A    between atoms: C8_18  and  N7_19 
REMARK    7  A    between atoms: C10_26  and  N10_27 
REMARK    8  A    between atoms: C11_28  and  O1_29 
REMARK    9  A    between atoms: C12_31  and  C13_32 
REMARK   10  A    between atoms: C13_32  and  N11_33 
REMARK   11  A    between atoms: C13_32  and  O2_37 
REMARK   12  A    between atoms: C14_41  and  N13_42 
ROOT
HETATM    1  C7  UNL     1     103.282  26.720  -1.509  1.00  0.00     0.148 A 
HETATM    2  N6  UNL     1     103.298  28.027  -1.817  1.00  0.00    -0.175 N 
ATOM      3  H6  UNL     1     102.700  28.372  -2.567  1.00  0.00     0.186 HD
HETATM    4  C8  UNL     1     104.094  28.892  -1.150  1.00  0.00     0.678 A 
HETATM    5  N8  UNL     1     104.881  28.430  -0.162  1.00  0.00    -0.177 N 
ATOM      6  H8  UNL     1     105.483  29.079   0.345  1.00  0.00     0.185 HD
HETATM    7  C9  UNL     1     104.885  27.124   0.169  1.00  0.00     0.163 A 
HETATM    8  N9  UNL     1     105.714  26.660   1.204  1.00  0.00    -0.080 NA
HETATM    9  C10 UNL     1     104.086  26.217  -0.491  1.00  0.00     0.145 A 
ENDROOT
BRANCH   1  10
HETATM   10  N5  UNL     1     102.535  25.881  -2.126  1.00  0.00    -0.368 N 
ATOM     11  H5  UNL     1     102.940  25.221  -2.790  1.00  0.00     0.161 HD
BRANCH  10  12
HETATM   12  C6  UNL     1     101.111  25.880  -1.868  1.00  0.00     0.181 C 
BRANCH  12  13
HETATM   13  C5  UNL     1     100.547  24.514  -1.733  1.00  0.00     0.062 A 
HETATM   14  C4  UNL     1     101.084  23.331  -2.173  1.00  0.00     0.140 A 
HETATM   15  N4  UNL     1     100.227  22.343  -1.841  1.00  0.00    -0.280 N 
HETATM   16  N15 UNL     1      99.215  22.923  -1.225  1.00  0.00    -0.240 N 
HETATM   17  N14 UNL     1      99.383  24.226  -1.148  1.00  0.00    -0.287 N 
ATOM     18  H15 UNL     1      98.405  22.425  -0.855  1.00  0.00     0.208 HD
ATOM     19  H14 UNL     1      98.741  24.893  -0.720  1.00  0.00     0.188 HD
BRANCH  15  20
HETATM   20  C3  UNL     1     100.406  20.925  -2.114  1.00  0.00     0.229 C 
BRANCH  20  21
HETATM   21  C2  UNL     1     101.127  20.237  -1.017  1.00  0.00     0.133 A 
HETATM   22  N3  UNL     1     101.046  20.603   0.273  1.00  0.00    -0.271 N 
HETATM   23  N2  UNL     1     101.785  19.822   1.027  1.00  0.00    -0.225 N 
ATOM     24  H3  UNL     1     100.487  21.382   0.620  1.00  0.00     0.190 HD
HETATM   25  N1  UNL     1     102.353  18.939   0.220  1.00  0.00    -0.223 N 
ATOM     26  H2  UNL     1     101.899  19.883   2.038  1.00  0.00     0.210 HD
HETATM   27  C1  UNL     1     103.248  17.901   0.689  1.00  0.00     0.202 C 
HETATM   28  N16 UNL     1     101.960  19.180  -1.036  1.00  0.00    -0.269 N 
ATOM     29  H16 UNL     1     102.243  18.655  -1.864  1.00  0.00     0.190 HD
ENDBRANCH  20  21
ENDBRANCH  15  20
ENDBRANCH  12  13
ENDBRANCH  10  12
ENDBRANCH   1  10
BRANCH   9  30
HETATM   30  N10 UNL     1     104.023  24.829  -0.207  1.00  0.00    -0.117 N 
HETATM   31  C11 UNL     1     104.647  23.816  -0.836  1.00  0.00     0.191 A 
HETATM   32  C12 UNL     1     104.336  22.608  -0.264  1.00  0.00     0.134 A 
HETATM   33  N12 UNL     1     103.499  22.893   0.741  1.00  0.00    -0.186 N 
HETATM   34  C14 UNL     1     103.304  24.222   0.785  1.00  0.00     0.685 A 
ATOM     35  H12 UNL     1     103.078  22.211   1.372  1.00  0.00     0.184 HD
BRANCH  31  36
HETATM   36  O1  UNL     1     105.496  23.955  -1.920  1.00  0.00    -0.344 OA
ATOM     37  H1  UNL     1     106.411  23.697  -1.934  1.00  0.00     0.219 HD
ENDBRANCH  31  36
BRANCH  32  38
HETATM   38  C13 UNL     1     104.807  21.252  -0.647  1.00  0.00     0.372 C 
BRANCH  38  39
HETATM   39  N11 UNL     1     106.274  21.273  -0.691  1.00  0.00    -0.047 N 
ATOM     40 3H11 UNL     1     106.672  22.049  -0.162  1.00  0.00     0.277 HD
ATOM     41 2H11 UNL     1     106.695  20.513  -0.157  1.00  0.00     0.277 HD
ATOM     42 1H11 UNL     1     106.563  21.273  -1.670  1.00  0.00     0.277 HD
ENDBRANCH  38  39
BRANCH  38  43
HETATM   43  O2  UNL     1     104.384  20.937  -1.928  1.00  0.00    -0.365 OA
ATOM     44  H2  UNL     1     104.710  20.082  -2.184  1.00  0.00     0.212 HD
ENDBRANCH  38  43
ENDBRANCH  32  38
BRANCH  34  45
HETATM   45  N13 UNL     1     102.547  24.795   1.642  1.00  0.00    -0.234 N 
ATOM     46 2H13 UNL     1     102.791  25.665   2.114  1.00  0.00     0.174 HD
ATOM     47 1H13 UNL     1     101.633  24.474   1.961  1.00  0.00     0.174 HD
ENDBRANCH  34  45
ENDBRANCH   9  30
BRANCH   4  48
HETATM   48  N7  UNL     1     104.104  30.157  -1.456  1.00  0.00    -0.234 N 
ATOM     49  H72 UNL     1     104.896  30.555  -1.963  1.00  0.00     0.174 HD
ATOM     50  H71 UNL     1     103.326  30.762  -1.196  1.00  0.00     0.174 HD
ENDBRANCH   4  48
TORSDOF 12
ENDMDL
MODEL 3
REMARK VINA RESULT: -6.972045382      2.126      3.611
REMARK  12 active torsions:
REMARK  status: ('A' for Active; 'I' for Inactive)
REMARK    1  A    between atoms: C2_7  and  C3_8 
REMARK    2  A    between atoms: C3_8  and  N4_9 
REMARK    3  A    between atoms: C5_11  and  C6_12 
REMARK    4  A    between atoms: C6_12  and  N5_13 
REMARK    5  A    between atoms: N5_13  and  C7_15 
REMARK    6  A    between atoms: C8_18  and  N7_19 
REMARK    7  A    between atoms: C10_26  and  N10_27 
REMARK    8  A    between atoms: C11_28  and  O1_29 
REMARK    9  A    between atoms: C12_31  and  C13_32 
REMARK   10  A    between atoms: C13_32  and  N11_33 
REMARK   11  A    between atoms: C13_32  and  O2_37 
REMARK   12  A    between atoms: C14_41  and  N13_42 
ROOT
HETATM    1  C7  UNL     1     103.997  27.520  -1.484  1.00  0.00     0.148 A 
HETATM    2  N6  UNL     1     104.271  28.810  -1.732  1.00  0.00    -0.175 N 
ATOM      3  H6  UNL     1     103.837  29.271  -2.532  1.00  0.00     0.186 HD
HETATM    4  C8  UNL     1     105.113  29.510  -0.939  1.00  0.00     0.678 A 
HETATM    5  N8  UNL     1     105.683  28.898   0.114  1.00  0.00    -0.177 N 
ATOM      6  H8  UNL     1     106.319  29.421   0.716  1.00  0.00     0.185 HD
HETATM    7  C9  UNL     1     105.426  27.603   0.386  1.00  0.00     0.163 A 
HETATM    8  N9  UNL     1     106.030  26.980   1.491  1.00  0.00    -0.080 NA
HETATM    9  C10 UNL     1     104.572  26.863  -0.401  1.00  0.00     0.145 A 
ENDROOT
BRANCH   1  10
HETATM   10  N5  UNL     1     103.201  26.836  -2.220  1.00  0.00    -0.368 N 
ATOM     11  H5  UNL     1     103.562  26.286  -2.999  1.00  0.00     0.161 HD
BRANCH  10  12
HETATM   12  C6  UNL     1     101.783  26.853  -1.931  1.00  0.00     0.181 C 
BRANCH  12  13
HETATM   13  C5  UNL     1     101.168  25.503  -1.961  1.00  0.00     0.062 A 
HETATM   14  C4  UNL     1     101.578  24.403  -2.671  1.00  0.00     0.140 A 
HETATM   15  N4  UNL     1     100.721  23.397  -2.402  1.00  0.00    -0.280 N 
HETATM   16  N15 UNL     1      99.830  23.886  -1.560  1.00  0.00    -0.240 N 
HETATM   17  N14 UNL     1     100.077  25.148  -1.281  1.00  0.00    -0.287 N 
ATOM     18  H15 UNL     1      99.051  23.354  -1.175  1.00  0.00     0.208 HD
ATOM     19  H14 UNL     1      99.533  25.745  -0.657  1.00  0.00     0.188 HD
BRANCH  15  20
HETATM   20  C3  UNL     1     100.786  22.047  -2.941  1.00  0.00     0.229 C 
BRANCH  20  21
HETATM   21  C2  UNL     1     100.553  21.022  -1.896  1.00  0.00     0.133 A 
HETATM   22  N3  UNL     1      99.626  21.139  -0.930  1.00  0.00    -0.271 N 
HETATM   23  N2  UNL     1      99.637  20.088  -0.144  1.00  0.00    -0.225 N 
ATOM     24  H3  UNL     1      98.999  21.937  -0.823  1.00  0.00     0.190 HD
HETATM   25  N1  UNL     1     100.580  19.279  -0.601  1.00  0.00    -0.223 N 
ATOM     26  H2  UNL     1      99.035  19.926   0.664  1.00  0.00     0.210 HD
HETATM   27  C1  UNL     1     100.893  18.004   0.012  1.00  0.00     0.202 C 
HETATM   28  N16 UNL     1     101.151  19.837  -1.674  1.00  0.00    -0.269 N 
ATOM     29  H16 UNL     1     101.908  19.435  -2.228  1.00  0.00     0.190 HD
ENDBRANCH  20  21
ENDBRANCH  15  20
ENDBRANCH  12  13
ENDBRANCH  10  12
ENDBRANCH   1  10
BRANCH   9  30
HETATM   30  N10 UNL     1     104.242  25.501  -0.186  1.00  0.00    -0.117 N 
HETATM   31  C11 UNL     1     103.297  24.985   0.621  1.00  0.00     0.191 A 
HETATM   32  C12 UNL     1     103.279  23.614   0.555  1.00  0.00     0.134 A 
HETATM   33  N12 UNL     1     104.239  23.286  -0.318  1.00  0.00    -0.186 N 
HETATM   34  C14 UNL     1     104.824  24.409  -0.770  1.00  0.00     0.685 A 
ATOM     35  H12 UNL     1     104.488  22.336  -0.596  1.00  0.00     0.184 HD
BRANCH  31  36
HETATM   36  O1  UNL     1     102.445  25.724   1.423  1.00  0.00    -0.344 OA
ATOM     37  H1  UNL     1     102.073  26.567   1.193  1.00  0.00     0.219 HD
ENDBRANCH  31  36
BRANCH  32  38
HETATM   38  C13 UNL     1     102.398  22.662   1.279  1.00  0.00     0.372 C 
BRANCH  38  39
HETATM   39  N11 UNL     1     102.755  21.301   0.861  1.00  0.00    -0.047 N 
ATOM     40 3H11 UNL     1     103.108  20.733   1.631  1.00  0.00     0.277 HD
ATOM     41 2H11 UNL     1     101.939  20.733   0.634  1.00  0.00     0.277 HD
ATOM     42 1H11 UNL     1     103.415  21.369   0.087  1.00  0.00     0.277 HD
ENDBRANCH  38  39
BRANCH  38  43
HETATM   43  O2  UNL     1     101.076  22.848   0.909  1.00  0.00    -0.365 OA
ATOM     44  H2  UNL     1     100.611  22.021   0.914  1.00  0.00     0.212 HD
ENDBRANCH  38  43
ENDBRANCH  32  38
BRANCH  34  45
HETATM   45  N13 UNL     1     105.782  24.413  -1.616  1.00  0.00    -0.234 N 
ATOM     46 2H13 UNL     1     106.093  25.251  -2.109  1.00  0.00     0.174 HD
ATOM     47 1H13 UNL     1     106.343  23.614  -1.907  1.00  0.00     0.174 HD
ENDBRANCH  34  45
ENDBRANCH   9  30
BRANCH   4  48
HETATM   48  N7  UNL     1     105.375  30.760  -1.187  1.00  0.00    -0.234 N 
ATOM     49  H72 UNL     1     106.339  31.092  -1.183  1.00  0.00     0.174 HD
ATOM     50  H71 UNL     1     104.624  31.420  -1.389  1.00  0.00     0.174 HD
ENDBRANCH   4  48
TORSDOF 12
ENDMDL
MODEL 4
REMARK VINA RESULT: -6.691500092      2.842      8.087
REMARK  12 active torsions:
REMARK  status: ('A' for Active; 'I' for Inactive)
REMARK    1  A    between atoms: C2_7  and  C3_8 
REMARK    2  A    between atoms: C3_8  and  N4_9 
REMARK    3  A    between atoms: C5_11  and  C6_12 
REMARK    4  A    between atoms: C6_12  and  N5_13 
REMARK    5  A    between atoms: N5_13  and  C7_15 
REMARK    6  A    between atoms: C8_18  and  N7_19 
REMARK    7  A    between atoms: C10_26  and  N10_27 
REMARK    8  A    between atoms: C11_28  and  O1_29 
REMARK    9  A    between atoms: C12_31  and  C13_32 
REMARK   10  A    between atoms: C13_32  and  N11_33 
REMARK   11  A    between atoms: C13_32  and  O2_37 
REMARK   12  A    between atoms: C14_41  and  N13_42 
ROOT
HETATM    1  C7  UNL     1     104.772  26.105  -1.818  1.00  0.00     0.148 A 
HETATM    2  N6  UNL     1     105.984  26.489  -2.247  1.00  0.00    -0.175 N 
ATOM      3  H6  UNL     1     106.180  27.482  -2.374  1.00  0.00     0.186 HD
HETATM    4  C8  UNL     1     106.950  25.582  -2.515  1.00  0.00     0.678 A 
HETATM    5  N8  UNL     1     106.686  24.273  -2.347  1.00  0.00    -0.177 N 
ATOM      6  H8  UNL     1     107.411  23.585  -2.547  1.00  0.00     0.185 HD
HETATM    7  C9  UNL     1     105.478  23.860  -1.917  1.00  0.00     0.163 A 
HETATM    8  N9  UNL     1     105.220  22.489  -1.746  1.00  0.00    -0.080 NA
HETATM    9  C10 UNL     1     104.473  24.758  -1.635  1.00  0.00     0.145 A 
ENDROOT
BRANCH   1  10
HETATM   10  N5  UNL     1     103.841  26.945  -1.555  1.00  0.00    -0.368 N 
ATOM     11  H5  UNL     1     102.918  26.842  -1.978  1.00  0.00     0.161 HD
BRANCH  10  12
HETATM   12  C6  UNL     1     104.114  28.043  -0.652  1.00  0.00     0.181 C 
BRANCH  12  13
HETATM   13  C5  UNL     1     104.540  29.279  -1.355  1.00  0.00     0.062 A 
HETATM   14  C4  UNL     1     105.224  30.351  -0.839  1.00  0.00     0.140 A 
HETATM   15  N4  UNL     1     105.389  31.249  -1.832  1.00  0.00    -0.280 N 
HETATM   16  N15 UNL     1     104.820  30.725  -2.901  1.00  0.00    -0.240 N 
HETATM   17  N14 UNL     1     104.303  29.544  -2.641  1.00  0.00    -0.287 N 
ATOM     18  H15 UNL     1     104.787  31.179  -3.814  1.00  0.00     0.208 HD
ATOM     19  H14 UNL     1     103.812  28.941  -3.300  1.00  0.00     0.188 HD
BRANCH  15  20
HETATM   20  C3  UNL     1     106.067  32.532  -1.724  1.00  0.00     0.229 C 
BRANCH  20  21
HETATM   21  C2  UNL     1     105.155  33.665  -2.011  1.00  0.00     0.133 A 
HETATM   22  N3  UNL     1     105.467  34.685  -2.828  1.00  0.00    -0.271 N 
HETATM   23  N2  UNL     1     104.478  35.545  -2.900  1.00  0.00    -0.225 N 
ATOM     24  H3  UNL     1     106.354  34.779  -3.325  1.00  0.00     0.190 HD
HETATM   25  N1  UNL     1     103.512  35.082  -2.122  1.00  0.00    -0.223 N 
ATOM     26  H2  UNL     1     104.458  36.404  -3.449  1.00  0.00     0.210 HD
HETATM   27  C1  UNL     1     102.246  35.763  -1.943  1.00  0.00     0.202 C 
HETATM   28  N16 UNL     1     103.912  33.930  -1.570  1.00  0.00    -0.269 N 
ATOM     29  H16 UNL     1     103.368  33.354  -0.927  1.00  0.00     0.190 HD
ENDBRANCH  20  21
ENDBRANCH  15  20
ENDBRANCH  12  13
ENDBRANCH  10  12
ENDBRANCH   1  10
BRANCH   9  30
HETATM   30  N10 UNL     1     103.177  24.413  -1.174  1.00  0.00    -0.117 N 
HETATM   31  C11 UNL     1     102.060  24.204  -1.895  1.00  0.00     0.191 A 
HETATM   32  C12 UNL     1     100.998  23.884  -1.086  1.00  0.00     0.134 A 
HETATM   33  N12 UNL     1     101.482  23.897   0.162  1.00  0.00    -0.186 N 
HETATM   34  C14 UNL     1     102.789  24.213   0.122  1.00  0.00     0.685 A 
ATOM     35  H12 UNL     1     100.947  23.699   1.008  1.00  0.00     0.184 HD
BRANCH  31  36
HETATM   36  O1  UNL     1     101.972  24.297  -3.272  1.00  0.00    -0.344 OA
ATOM     37  H1  UNL     1     101.162  24.320  -3.768  1.00  0.00     0.219 HD
ENDBRANCH  31  36
BRANCH  32  38
HETATM   38  C13 UNL     1      99.596  23.579  -1.473  1.00  0.00     0.372 C 
BRANCH  38  39
HETATM   39  N11 UNL     1      98.928  22.964  -0.320  1.00  0.00    -0.047 N 
ATOM     40 3H11 UNL     1      98.344  22.170  -0.582  1.00  0.00     0.277 HD
ATOM     41 2H11 UNL     1      99.574  22.464   0.290  1.00  0.00     0.277 HD
ATOM     42 1H11 UNL     1      98.407  23.692   0.170  1.00  0.00     0.277 HD
ENDBRANCH  38  39
BRANCH  38  43
HETATM   43  O2  UNL     1      99.568  22.637  -2.487  1.00  0.00    -0.365 OA
ATOM     44  H2  UNL     1      98.787  22.101  -2.420  1.00  0.00     0.212 HD
ENDBRANCH  38  43
ENDBRANCH  32  38
BRANCH  34  45
HETATM   45  N13 UNL     1     103.523  24.306   1.164  1.00  0.00    -0.234 N 
ATOM     46 2H13 UNL     1     104.063  25.139   1.399  1.00  0.00     0.174 HD
ATOM     47 1H13 UNL     1     103.667  23.590   1.876  1.00  0.00     0.174 HD
ENDBRANCH  34  45
ENDBRANCH   9  30
BRANCH   4  48
HETATM   48  N7  UNL     1     108.122  25.962  -2.933  1.00  0.00    -0.234 N 
ATOM     49  H72 UNL     1     108.346  26.956  -2.994  1.00  0.00     0.174 HD
ATOM     50  H71 UNL     1     108.828  25.277  -3.201  1.00  0.00     0.174 HD
ENDBRANCH   4  48
TORSDOF 12
ENDMDL
MODEL 5
REMARK VINA RESULT: -6.650151620      1.527      1.938
REMARK  12 active torsions:
REMARK  status: ('A' for Active; 'I' for Inactive)
REMARK    1  A    between atoms: C2_7  and  C3_8 
REMARK    2  A    between atoms: C3_8  and  N4_9 
REMARK    3  A    between atoms: C5_11  and  C6_12 
REMARK    4  A    between atoms: C6_12  and  N5_13 
REMARK    5  A    between atoms: N5_13  and  C7_15 
REMARK    6  A    between atoms: C8_18  and  N7_19 
REMARK    7  A    between atoms: C10_26  and  N10_27 
REMARK    8  A    between atoms: C11_28  and  O1_29 
REMARK    9  A    between atoms: C12_31  and  C13_32 
REMARK   10  A    between atoms: C13_32  and  N11_33 
REMARK   11  A    between atoms: C13_32  and  O2_37 
REMARK   12  A    between atoms: C14_41  and  N13_42 
ROOT
HETATM    1  C7  UNL     1     104.678  26.572  -1.694  1.00  0.00     0.148 A 
HETATM    2  N6  UNL     1     105.488  27.606  -1.968  1.00  0.00    -0.175 N 
ATOM      3  H6  UNL     1     106.403  27.430  -2.383  1.00  0.00     0.186 HD
HETATM    4  C8  UNL     1     105.112  28.877  -1.703  1.00  0.00     0.678 A 
HETATM    5  N8  UNL     1     103.904  29.104  -1.155  1.00  0.00    -0.177 N 
ATOM      6  H8  UNL     1     103.615  30.060  -0.953  1.00  0.00     0.185 HD
HETATM    7  C9  UNL     1     103.070  28.084  -0.870  1.00  0.00     0.163 A 
HETATM    8  N9  UNL     1     101.812  28.339  -0.298  1.00  0.00    -0.080 NA
HETATM    9  C10 UNL     1     103.423  26.778  -1.128  1.00  0.00     0.145 A 
ENDROOT
BRANCH   1  10
HETATM   10  N5  UNL     1     105.010  25.358  -1.938  1.00  0.00    -0.368 N 
ATOM     11  H5  UNL     1     104.483  24.804  -2.612  1.00  0.00     0.161 HD
BRANCH  10  12
HETATM   12  C6  UNL     1     106.144  24.785  -1.245  1.00  0.00     0.181 C 
BRANCH  12  13
HETATM   13  C5  UNL     1     106.168  23.301  -1.301  1.00  0.00     0.062 A 
HETATM   14  C4  UNL     1     105.209  22.459  -1.805  1.00  0.00     0.140 A 
HETATM   15  N4  UNL     1     105.647  21.194  -1.641  1.00  0.00    -0.280 N 
HETATM   16  N15 UNL     1     106.827  21.284  -1.058  1.00  0.00    -0.240 N 
HETATM   17  N14 UNL     1     107.161  22.538  -0.843  1.00  0.00    -0.287 N 
ATOM     18  H15 UNL     1     107.407  20.484  -0.806  1.00  0.00     0.208 HD
ATOM     19  H14 UNL     1     108.023  22.867  -0.406  1.00  0.00     0.188 HD
BRANCH  15  20
HETATM   20  C3  UNL     1     104.943  19.985  -2.040  1.00  0.00     0.229 C 
BRANCH  20  21
HETATM   21  C2  UNL     1     103.852  19.643  -1.096  1.00  0.00     0.133 A 
HETATM   22  N3  UNL     1     104.055  19.293   0.184  1.00  0.00    -0.271 N 
HETATM   23  N2  UNL     1     102.915  19.045   0.787  1.00  0.00    -0.225 N 
ATOM     24  H3  UNL     1     104.971  19.227   0.629  1.00  0.00     0.190 HD
HETATM   25  N1  UNL     1     101.960  19.235  -0.110  1.00  0.00    -0.223 N 
ATOM     26  H2  UNL     1     102.791  18.761   1.759  1.00  0.00     0.210 HD
HETATM   27  C1  UNL     1     100.553  19.058   0.185  1.00  0.00     0.202 C 
HETATM   28  N16 UNL     1     102.518  19.602  -1.269  1.00  0.00    -0.269 N 
ATOM     29  H16 UNL     1     102.019  19.813  -2.134  1.00  0.00     0.190 HD
ENDBRANCH  20  21
ENDBRANCH  15  20
ENDBRANCH  12  13
ENDBRANCH  10  12
ENDBRANCH   1  10
BRANCH   9  30
HETATM   30  N10 UNL     1     102.609  25.647  -0.865  1.00  0.00    -0.117 N 
HETATM   31  C11 UNL     1     102.712  24.755   0.137  1.00  0.00     0.191 A 
HETATM   32  C12 UNL     1     101.732  23.798   0.054  1.00  0.00     0.134 A 
HETATM   33  N12 UNL     1     101.012  24.116  -1.028  1.00  0.00    -0.186 N 
HETATM   34  C14 UNL     1     101.528  25.223  -1.589  1.00  0.00     0.685 A 
ATOM     35  H12 UNL     1     100.201  23.601  -1.373  1.00  0.00     0.184 HD
BRANCH  31  36
HETATM   36  O1  UNL     1     103.673  24.783   1.131  1.00  0.00    -0.344 OA
ATOM     37  H1  UNL     1     103.617  25.290   1.932  1.00  0.00     0.219 HD
ENDBRANCH  31  36
BRANCH  32  38
HETATM   38  C13 UNL     1     101.487  22.641   0.954  1.00  0.00     0.372 C 
BRANCH  38  39
HETATM   39  N11 UNL     1     101.088  23.160   2.267  1.00  0.00    -0.047 N 
ATOM     40 3H11 UNL     1     101.530  22.661   3.038  1.00  0.00     0.277 HD
ATOM     41 2H11 UNL     1     101.477  24.083   2.461  1.00  0.00     0.277 HD
ATOM     42 1H11 UNL     1     100.069  23.144   2.319  1.00  0.00     0.277 HD
ENDBRANCH  38  39
BRANCH  38  43
HETATM   43  O2  UNL     1     102.657  21.929   1.156  1.00  0.00    -0.365 OA
ATOM     44  H2  UNL     1     102.740  21.236   0.512  1.00  0.00     0.212 HD
ENDBRANCH  38  43
ENDBRANCH  32  38
BRANCH  34  45
HETATM   45  N13 UNL     1     101.052  25.767  -2.644  1.00  0.00    -0.234 N 
ATOM     46 2H13 UNL     1     100.485  26.615  -2.632  1.00  0.00     0.174 HD
ATOM     47 1H13 UNL     1     101.166  25.442  -3.603  1.00  0.00     0.174 HD
ENDBRANCH  34  45
ENDBRANCH   9  30
BRANCH   4  48
HETATM   48  N7  UNL     1     105.904  29.874  -1.970  1.00  0.00    -0.234 N 
ATOM     49  H72 UNL     1     106.457  30.303  -1.227  1.00  0.00     0.174 HD
ATOM     50  H71 UNL     1     105.983  30.237  -2.920  1.00  0.00     0.174 HD
ENDBRANCH   4  48
TORSDOF 12
ENDMDL
