MODEL 1
REMARK VINA RESULT: -7.821956138      0.000      0.000
REMARK  16 active torsions:
REMARK  status: ('A' for Active; 'I' for Inactive)
REMARK    1  A    between atoms: C2_2  and  C3_3 
REMARK    2  A    between atoms: C3_3  and  N1_5 
REMARK    3  A    between atoms: C3_3  and  C28_43 
REMARK       I    between atoms: N1_5  and  C5_7 
REMARK    4  A    between atoms: C5_7  and  C6_9 
REMARK       I    between atoms: N2_12  and  C9_13 
REMARK    5  A    between atoms: C9_13  and  C10_15 
REMARK    6  A    between atoms: C10_15  and  N3_16 
REMARK    7  A    between atoms: C10_15  and  C16_25 
REMARK       I    between atoms: N3_16  and  C11_18 
REMARK    8  A    between atoms: C11_18  and  O4_20 
REMARK    9  A    between atoms: O4_20  and  C12_21 
REMARK       I    between atoms: N4_31  and  C22_32 
REMARK   10  A    between atoms: C22_32  and  C23_34 
REMARK   11  A    between atoms: C23_34  and  N5_35 
REMARK   12  A    between atoms: C23_34  and  C24_39 
REMARK   13  A    between atoms: C24_39  and  C26_41 
REMARK       I    between atoms: C28_43  and  N6_45 
REMARK   14  A    between atoms: N6_45  and  C29_47 
REMARK   15  A    between atoms: C29_47  and  C30_48 
REMARK   16  A    between atoms: C30_48  and  N7_49 
ROOT
HETATM    1  C6  UNL     1      18.445 -14.448  22.670  1.00  0.00     0.185 C 
HETATM    2  C7  UNL     1      18.311 -13.689  21.422  1.00  0.00     0.043 C 
HETATM    3  C8  UNL     1      17.418 -14.116  20.327  1.00  0.00     0.133 C 
HETATM    4  N2  UNL     1      18.079 -13.471  19.202  1.00  0.00    -0.349 N 
HETATM    5  C9  UNL     1      17.567 -13.149  17.923  1.00  0.00     0.243 C 
HETATM    6  O2  UNL     1      18.290 -12.526  17.065  1.00  0.00    -0.271 OA
HETATM    7  C19 UNL     1      19.480 -13.173  19.565  1.00  0.00     0.132 C 
HETATM    8  C20 UNL     1      19.634 -14.104  20.727  1.00  0.00     0.030 C 
HETATM    9  C21 UNL     1      20.556 -13.763  21.792  1.00  0.00     0.133 C 
HETATM   10  N4  UNL     1      19.840 -14.229  23.008  1.00  0.00    -0.336 N 
HETATM   11  C22 UNL     1      20.545 -14.376  24.235  1.00  0.00     0.251 C 
HETATM   12  O5  UNL     1      21.805 -14.123  24.171  1.00  0.00    -0.271 OA
ENDROOT
BRANCH   1  13
HETATM   13  C5  UNL     1      18.120 -15.877  22.563  1.00  0.00     0.242 C 
HETATM   14  N1  UNL     1      16.788 -16.357  22.641  1.00  0.00    -0.338 N 
ATOM     15  H1  UNL     1      16.047 -15.669  22.777  1.00  0.00     0.164 HD
HETATM   16  O1  UNL     1      19.041 -16.704  22.399  1.00  0.00    -0.271 OA
BRANCH  14  17
HETATM   17  C3  UNL     1      16.406 -17.728  22.543  1.00  0.00     0.128 C 
HETATM   18  C4  UNL     1      17.059 -18.392  21.360  1.00  0.00     0.054 C 
BRANCH  17  19
HETATM   19  C2  UNL     1      16.752 -18.490  23.787  1.00  0.00     0.003 C 
HETATM   20  C1  UNL     1      17.551 -19.525  23.727  1.00  0.00     0.010 C 
ENDBRANCH  17  19
BRANCH  17  21
HETATM   21  C28 UNL     1      14.924 -17.814  22.400  1.00  0.00     0.249 C 
HETATM   22  O6  UNL     1      14.224 -18.345  23.290  1.00  0.00    -0.270 OA
HETATM   23  N6  UNL     1      14.302 -17.293  21.247  1.00  0.00    -0.357 N 
ATOM     24  H6  UNL     1      14.874 -16.857  20.523  1.00  0.00     0.162 HD
BRANCH  23  25
HETATM   25  C29 UNL     1      12.893 -17.365  21.076  1.00  0.00     0.150 C 
BRANCH  25  26
HETATM   26  C30 UNL     1      12.379 -18.545  20.317  1.00  0.00     0.251 C 
BRANCH  26  27
HETATM   27  N7  UNL     1      12.130 -19.615  21.280  1.00  0.00    -0.077 N 
HETATM   28  C31 UNL     1      12.916 -20.781  20.940  1.00  0.00     0.267 C 
ATOM     29  H72 UNL     1      12.295 -19.310  22.240  1.00  0.00     0.276 HD
ATOM     30  H71 UNL     1      11.137 -19.833  21.361  1.00  0.00     0.276 HD
ENDBRANCH  26  27
ENDBRANCH  25  26
ENDBRANCH  23  25
ENDBRANCH  17  21
ENDBRANCH  14  17
ENDBRANCH   1  13
BRANCH  11  31
HETATM   31  C23 UNL     1      20.004 -14.775  25.531  1.00  0.00     0.278 C 
BRANCH  31  32
HETATM   32  N5  UNL     1      20.621 -14.145  26.678  1.00  0.00    -0.066 N 
ATOM     33  H53 UNL     1      21.062 -13.268  26.402  1.00  0.00     0.275 HD
ATOM     34  H52 UNL     1      19.904 -13.793  27.313  1.00  0.00     0.275 HD
ATOM     35  H51 UNL     1      21.286 -14.726  27.189  1.00  0.00     0.275 HD
ENDBRANCH  31  32
BRANCH  31  36
HETATM   36  C24 UNL     1      19.967 -16.244  25.819  1.00  0.00     0.021 C 
HETATM   37  C25 UNL     1      21.240 -16.549  26.621  1.00  0.00     0.012 C 
BRANCH  36  38
HETATM   38  C26 UNL     1      18.810 -16.729  26.627  1.00  0.00     0.002 C 
HETATM   39  C27 UNL     1      17.586 -15.913  26.153  1.00  0.00     0.005 C 
ENDBRANCH  36  38
ENDBRANCH  31  36
ENDBRANCH  11  31
BRANCH   5  40
HETATM   40  C10 UNL     1      16.207 -13.468  17.438  1.00  0.00     0.182 C 
BRANCH  40  41
HETATM   41  N3  UNL     1      15.272 -12.499  18.050  1.00  0.00    -0.323 N 
HETATM   42  C11 UNL     1      14.208 -12.974  18.873  1.00  0.00     0.362 C 
HETATM   43  O3  UNL     1      14.081 -14.203  19.058  1.00  0.00    -0.238 OA
ATOM     44  H3  UNL     1      15.388 -11.499  17.884  1.00  0.00     0.165 HD
BRANCH  42  45
HETATM   45  O4  UNL     1      13.329 -12.102  19.461  1.00  0.00    -0.294 OA
BRANCH  45  46
HETATM   46  C12 UNL     1      13.221 -11.987  20.860  1.00  0.00     0.061 C 
HETATM   47  C13 UNL     1      12.737 -10.580  21.149  1.00  0.00     0.046 C 
HETATM   48  C14 UNL     1      12.160 -12.924  21.414  1.00  0.00     0.046 C 
HETATM   49  C15 UNL     1      14.524 -12.206  21.581  1.00  0.00     0.046 C 
ENDBRANCH  45  46
ENDBRANCH  42  45
ENDBRANCH  40  41
BRANCH  40  50
HETATM   50  C16 UNL     1      16.115 -13.325  15.922  1.00  0.00     0.009 C 
HETATM   51  C17 UNL     1      15.203 -12.170  15.615  1.00  0.00     0.012 C 
HETATM   52  C18 UNL     1      15.511 -14.547  15.277  1.00  0.00     0.012 C 
ENDBRANCH  40  50
ENDBRANCH   5  40
TORSDOF 16
ENDMDL
MODEL 2
REMARK VINA RESULT: -7.651282007      1.617      3.463
REMARK  16 active torsions:
REMARK  status: ('A' for Active; 'I' for Inactive)
REMARK    1  A    between atoms: C2_2  and  C3_3 
REMARK    2  A    between atoms: C3_3  and  N1_5 
REMARK    3  A    between atoms: C3_3  and  C28_43 
REMARK       I    between atoms: N1_5  and  C5_7 
REMARK    4  A    between atoms: C5_7  and  C6_9 
REMARK       I    between atoms: N2_12  and  C9_13 
REMARK    5  A    between atoms: C9_13  and  C10_15 
REMARK    6  A    between atoms: C10_15  and  N3_16 
REMARK    7  A    between atoms: C10_15  and  C16_25 
REMARK       I    between atoms: N3_16  and  C11_18 
REMARK    8  A    between atoms: C11_18  and  O4_20 
REMARK    9  A    between atoms: O4_20  and  C12_21 
REMARK       I    between atoms: N4_31  and  C22_32 
REMARK   10  A    between atoms: C22_32  and  C23_34 
REMARK   11  A    between atoms: C23_34  and  N5_35 
REMARK   12  A    between atoms: C23_34  and  C24_39 
REMARK   13  A    between atoms: C24_39  and  C26_41 
REMARK       I    between atoms: C28_43  and  N6_45 
REMARK   14  A    between atoms: N6_45  and  C29_47 
REMARK   15  A    between atoms: C29_47  and  C30_48 
REMARK   16  A    between atoms: C30_48  and  N7_49 
ROOT
HETATM    1  C6  UNL     1      18.522 -14.200  22.474  1.00  0.00     0.185 C 
HETATM    2  C7  UNL     1      18.430 -13.472  21.205  1.00  0.00     0.043 C 
HETATM    3  C8  UNL     1      17.439 -13.814  20.165  1.00  0.00     0.133 C 
HETATM    4  N2  UNL     1      18.124 -13.298  18.990  1.00  0.00    -0.349 N 
HETATM    5  C9  UNL     1      17.599 -12.953  17.723  1.00  0.00     0.243 C 
HETATM    6  O2  UNL     1      18.354 -12.458  16.812  1.00  0.00    -0.271 OA
HETATM    7  C19 UNL     1      19.567 -13.172  19.283  1.00  0.00     0.132 C 
HETATM    8  C20 UNL     1      19.654 -14.077  20.472  1.00  0.00     0.030 C 
HETATM    9  C21 UNL     1      20.661 -13.824  21.483  1.00  0.00     0.133 C 
HETATM   10  N4  UNL     1      19.949 -14.154  22.745  1.00  0.00    -0.336 N 
HETATM   11  C22 UNL     1      20.686 -14.351  23.946  1.00  0.00     0.251 C 
HETATM   12  O5  UNL     1      21.964 -14.266  23.819  1.00  0.00    -0.271 OA
ENDROOT
BRANCH   1  13
HETATM   13  C5  UNL     1      18.013 -15.578  22.436  1.00  0.00     0.242 C 
HETATM   14  N1  UNL     1      16.625 -15.869  22.438  1.00  0.00    -0.338 N 
ATOM     15  H1  UNL     1      15.978 -15.081  22.469  1.00  0.00     0.164 HD
HETATM   16  O1  UNL     1      18.820 -16.529  22.402  1.00  0.00    -0.271 OA
BRANCH  14  17
HETATM   17  C3  UNL     1      16.065 -17.182  22.400  1.00  0.00     0.128 C 
HETATM   18  C4  UNL     1      16.726 -18.025  21.343  1.00  0.00     0.054 C 
BRANCH  17  19
HETATM   19  C2  UNL     1      16.186 -17.873  23.726  1.00  0.00     0.003 C 
HETATM   20  C1  UNL     1      16.885 -18.975  23.835  1.00  0.00     0.010 C 
ENDBRANCH  17  19
BRANCH  17  21
HETATM   21  C28 UNL     1      14.606 -17.084  22.112  1.00  0.00     0.249 C 
HETATM   22  O6  UNL     1      13.853 -18.069  22.270  1.00  0.00    -0.270 OA
HETATM   23  N6  UNL     1      14.066 -15.865  21.653  1.00  0.00    -0.357 N 
ATOM     24  H6  UNL     1      14.680 -15.060  21.528  1.00  0.00     0.162 HD
BRANCH  23  25
HETATM   25  C29 UNL     1      12.680 -15.739  21.362  1.00  0.00     0.150 C 
BRANCH  25  26
HETATM   26  C30 UNL     1      12.140 -14.347  21.311  1.00  0.00     0.251 C 
BRANCH  26  27
HETATM   27  N7  UNL     1      12.556 -13.667  22.535  1.00  0.00    -0.077 N 
HETATM   28  C31 UNL     1      11.954 -12.353  22.603  1.00  0.00     0.267 C 
ATOM     29  H72 UNL     1      12.356 -14.222  23.368  1.00  0.00     0.276 HD
ATOM     30  H71 UNL     1      13.571 -13.627  22.623  1.00  0.00     0.276 HD
ENDBRANCH  26  27
ENDBRANCH  25  26
ENDBRANCH  23  25
ENDBRANCH  17  21
ENDBRANCH  14  17
ENDBRANCH   1  13
BRANCH  11  31
HETATM   31  C23 UNL     1      20.159 -14.634  25.277  1.00  0.00     0.278 C 
BRANCH  31  32
HETATM   32  N5  UNL     1      20.744 -13.859  26.351  1.00  0.00    -0.066 N 
ATOM     33  H53 UNL     1      21.584 -13.383  26.022  1.00  0.00     0.275 HD
ATOM     34  H52 UNL     1      20.155 -13.055  26.565  1.00  0.00     0.275 HD
ATOM     35  H51 UNL     1      20.948 -14.380  27.203  1.00  0.00     0.275 HD
ENDBRANCH  31  32
BRANCH  31  36
HETATM   36  C24 UNL     1      20.185 -16.064  25.720  1.00  0.00     0.021 C 
HETATM   37  C25 UNL     1      21.426 -16.206  26.614  1.00  0.00     0.012 C 
BRANCH  36  38
HETATM   38  C26 UNL     1      19.013 -16.531  26.516  1.00  0.00     0.002 C 
HETATM   39  C27 UNL     1      17.790 -15.765  25.962  1.00  0.00     0.005 C 
ENDBRANCH  36  38
ENDBRANCH  31  36
ENDBRANCH  11  31
BRANCH   5  40
HETATM   40  C10 UNL     1      16.187 -13.109  17.308  1.00  0.00     0.182 C 
BRANCH  40  41
HETATM   41  N3  UNL     1      16.084 -12.681  15.896  1.00  0.00    -0.323 N 
HETATM   42  C11 UNL     1      15.075 -11.746  15.517  1.00  0.00     0.362 C 
HETATM   43  O3  UNL     1      14.291 -11.309  16.385  1.00  0.00    -0.238 OA
ATOM     44  H3  UNL     1      16.730 -13.053  15.199  1.00  0.00     0.165 HD
BRANCH  42  45
HETATM   45  O4  UNL     1      14.957 -11.324  14.218  1.00  0.00    -0.294 OA
BRANCH  45  46
HETATM   46  C12 UNL     1      14.478 -12.174  13.203  1.00  0.00     0.061 C 
HETATM   47  C13 UNL     1      13.698 -11.306  12.235  1.00  0.00     0.046 C 
HETATM   48  C14 UNL     1      15.620 -12.780  12.403  1.00  0.00     0.046 C 
HETATM   49  C15 UNL     1      13.574 -13.264  13.710  1.00  0.00     0.046 C 
ENDBRANCH  45  46
ENDBRANCH  42  45
ENDBRANCH  40  41
BRANCH  40  50
HETATM   50  C16 UNL     1      15.744 -14.565  17.397  1.00  0.00     0.009 C 
HETATM   51  C17 UNL     1      15.433 -15.047  16.007  1.00  0.00     0.012 C 
HETATM   52  C18 UNL     1      14.482 -14.720  18.209  1.00  0.00     0.012 C 
ENDBRANCH  40  50
ENDBRANCH   5  40
TORSDOF 16
ENDMDL
MODEL 3
REMARK VINA RESULT: -7.637426978      1.118      1.462
REMARK  16 active torsions:
REMARK  status: ('A' for Active; 'I' for Inactive)
REMARK    1  A    between atoms: C2_2  and  C3_3 
REMARK    2  A    between atoms: C3_3  and  N1_5 
REMARK    3  A    between atoms: C3_3  and  C28_43 
REMARK       I    between atoms: N1_5  and  C5_7 
REMARK    4  A    between atoms: C5_7  and  C6_9 
REMARK       I    between atoms: N2_12  and  C9_13 
REMARK    5  A    between atoms: C9_13  and  C10_15 
REMARK    6  A    between atoms: C10_15  and  N3_16 
REMARK    7  A    between atoms: C10_15  and  C16_25 
REMARK       I    between atoms: N3_16  and  C11_18 
REMARK    8  A    between atoms: C11_18  and  O4_20 
REMARK    9  A    between atoms: O4_20  and  C12_21 
REMARK       I    between atoms: N4_31  and  C22_32 
REMARK   10  A    between atoms: C22_32  and  C23_34 
REMARK   11  A    between atoms: C23_34  and  N5_35 
REMARK   12  A    between atoms: C23_34  and  C24_39 
REMARK   13  A    between atoms: C24_39  and  C26_41 
REMARK       I    between atoms: C28_43  and  N6_45 
REMARK   14  A    between atoms: N6_45  and  C29_47 
REMARK   15  A    between atoms: C29_47  and  C30_48 
REMARK   16  A    between atoms: C30_48  and  N7_49 
ROOT
HETATM    1  C6  UNL     1      18.500 -15.100  22.130  1.00  0.00     0.185 C 
HETATM    2  C7  UNL     1      18.263 -14.170  21.020  1.00  0.00     0.043 C 
HETATM    3  C8  UNL     1      17.284 -14.447  19.950  1.00  0.00     0.133 C 
HETATM    4  N2  UNL     1      17.849 -13.636  18.882  1.00  0.00    -0.349 N 
HETATM    5  C9  UNL     1      17.233 -13.138  17.710  1.00  0.00     0.243 C 
HETATM    6  O2  UNL     1      17.881 -12.387  16.896  1.00  0.00    -0.271 OA
HETATM    7  C19 UNL     1      19.274 -13.372  19.171  1.00  0.00     0.132 C 
HETATM    8  C20 UNL     1      19.525 -14.460  20.169  1.00  0.00     0.030 C 
HETATM    9  C21 UNL     1      20.530 -14.264  21.194  1.00  0.00     0.133 C 
HETATM   10  N4  UNL     1      19.918 -14.912  22.383  1.00  0.00    -0.336 N 
HETATM   11  C22 UNL     1      20.722 -15.225  23.514  1.00  0.00     0.251 C 
HETATM   12  O5  UNL     1      21.972 -14.947  23.386  1.00  0.00    -0.271 OA
ENDROOT
BRANCH   1  13
HETATM   13  C5  UNL     1      18.172 -16.503  21.842  1.00  0.00     0.242 C 
HETATM   14  N1  UNL     1      16.882 -17.041  22.081  1.00  0.00    -0.338 N 
ATOM     15  H1  UNL     1      16.175 -16.415  22.467  1.00  0.00     0.164 HD
HETATM   16  O1  UNL     1      19.051 -17.254  21.372  1.00  0.00    -0.271 OA
BRANCH  14  17
HETATM   17  C3  UNL     1      16.498 -18.392  21.822  1.00  0.00     0.128 C 
HETATM   18  C4  UNL     1      16.755 -18.764  20.387  1.00  0.00     0.054 C 
BRANCH  17  19
HETATM   19  C2  UNL     1      17.222 -19.354  22.717  1.00  0.00     0.003 C 
HETATM   20  C1  UNL     1      17.791 -20.421  22.216  1.00  0.00     0.010 C 
ENDBRANCH  17  19
BRANCH  17  21
HETATM   21  C28 UNL     1      15.047 -18.554  22.122  1.00  0.00     0.249 C 
HETATM   22  O6  UNL     1      14.574 -18.188  23.220  1.00  0.00    -0.270 OA
HETATM   23  N6  UNL     1      14.195 -19.128  21.156  1.00  0.00    -0.357 N 
ATOM     24  H6  UNL     1      14.581 -19.422  20.259  1.00  0.00     0.162 HD
BRANCH  23  25
HETATM   25  C29 UNL     1      12.807 -19.304  21.412  1.00  0.00     0.150 C 
BRANCH  25  26
HETATM   26  C30 UNL     1      11.872 -18.776  20.374  1.00  0.00     0.251 C 
BRANCH  26  27
HETATM   27  N7  UNL     1      12.616 -18.673  19.121  1.00  0.00    -0.077 N 
HETATM   28  C31 UNL     1      12.149 -19.671  18.183  1.00  0.00     0.267 C 
ATOM     29  H72 UNL     1      12.575 -17.732  18.728  1.00  0.00     0.276 HD
ATOM     30  H71 UNL     1      13.623 -18.730  19.269  1.00  0.00     0.276 HD
ENDBRANCH  26  27
ENDBRANCH  25  26
ENDBRANCH  23  25
ENDBRANCH  17  21
ENDBRANCH  14  17
ENDBRANCH   1  13
BRANCH  11  31
HETATM   31  C23 UNL     1      20.290 -15.816  24.777  1.00  0.00     0.278 C 
BRANCH  31  32
HETATM   32  N5  UNL     1      19.628 -17.099  24.664  1.00  0.00    -0.066 N 
ATOM     33  H53 UNL     1      18.701 -17.053  25.087  1.00  0.00     0.275 HD
ATOM     34  H52 UNL     1      19.373 -17.278  23.693  1.00  0.00     0.275 HD
ATOM     35  H51 UNL     1      20.147 -17.891  25.042  1.00  0.00     0.275 HD
ENDBRANCH  31  32
BRANCH  31  36
HETATM   36  C24 UNL     1      19.426 -14.966  25.656  1.00  0.00     0.021 C 
HETATM   37  C25 UNL     1      18.091 -15.714  25.786  1.00  0.00     0.012 C 
BRANCH  36  38
HETATM   38  C26 UNL     1      19.931 -14.719  27.038  1.00  0.00     0.002 C 
HETATM   39  C27 UNL     1      21.058 -13.671  26.900  1.00  0.00     0.005 C 
ENDBRANCH  36  38
ENDBRANCH  31  36
ENDBRANCH  11  31
BRANCH   5  40
HETATM   40  C10 UNL     1      15.838 -13.404  17.294  1.00  0.00     0.182 C 
BRANCH  40  41
HETATM   41  N3  UNL     1      14.967 -12.440  18.001  1.00  0.00    -0.323 N 
HETATM   42  C11 UNL     1      13.971 -12.924  18.901  1.00  0.00     0.362 C 
HETATM   43  O3  UNL     1      13.847 -14.155  19.071  1.00  0.00    -0.238 OA
ATOM     44  H3  UNL     1      15.079 -11.438  17.847  1.00  0.00     0.165 HD
BRANCH  42  45
HETATM   45  O4  UNL     1      13.152 -12.057  19.578  1.00  0.00    -0.294 OA
BRANCH  45  46
HETATM   46  C12 UNL     1      13.217 -11.915  20.977  1.00  0.00     0.061 C 
HETATM   47  C13 UNL     1      12.903 -10.464  21.285  1.00  0.00     0.046 C 
HETATM   48  C14 UNL     1      12.142 -12.737  21.668  1.00  0.00     0.046 C 
HETATM   49  C15 UNL     1      14.566 -12.250  21.552  1.00  0.00     0.046 C 
ENDBRANCH  45  46
ENDBRANCH  42  45
ENDBRANCH  40  41
BRANCH  40  50
HETATM   50  C16 UNL     1      15.661 -13.193  15.794  1.00  0.00     0.009 C 
HETATM   51  C17 UNL     1      14.765 -12.002  15.591  1.00  0.00     0.012 C 
HETATM   52  C18 UNL     1      14.984 -14.370  15.137  1.00  0.00     0.012 C 
ENDBRANCH  40  50
ENDBRANCH   5  40
TORSDOF 16
ENDMDL
MODEL 4
REMARK VINA RESULT: -7.626512690      1.853      3.402
REMARK  16 active torsions:
REMARK  status: ('A' for Active; 'I' for Inactive)
REMARK    1  A    between atoms: C2_2  and  C3_3 
REMARK    2  A    between atoms: C3_3  and  N1_5 
REMARK    3  A    between atoms: C3_3  and  C28_43 
REMARK       I    between atoms: N1_5  and  C5_7 
REMARK    4  A    between atoms: C5_7  and  C6_9 
REMARK       I    between atoms: N2_12  and  C9_13 
REMARK    5  A    between atoms: C9_13  and  C10_15 
REMARK    6  A    between atoms: C10_15  and  N3_16 
REMARK    7  A    between atoms: C10_15  and  C16_25 
REMARK       I    between atoms: N3_16  and  C11_18 
REMARK    8  A    between atoms: C11_18  and  O4_20 
REMARK    9  A    between atoms: O4_20  and  C12_21 
REMARK       I    between atoms: N4_31  and  C22_32 
REMARK   10  A    between atoms: C22_32  and  C23_34 
REMARK   11  A    between atoms: C23_34  and  N5_35 
REMARK   12  A    between atoms: C23_34  and  C24_39 
REMARK   13  A    between atoms: C24_39  and  C26_41 
REMARK       I    between atoms: C28_43  and  N6_45 
REMARK   14  A    between atoms: N6_45  and  C29_47 
REMARK   15  A    between atoms: C29_47  and  C30_48 
REMARK   16  A    between atoms: C30_48  and  N7_49 
ROOT
HETATM    1  C6  UNL     1      18.690 -14.943  22.170  1.00  0.00     0.185 C 
HETATM    2  C7  UNL     1      18.354 -13.987  21.111  1.00  0.00     0.043 C 
HETATM    3  C8  UNL     1      17.410 -14.309  20.022  1.00  0.00     0.133 C 
HETATM    4  N2  UNL     1      17.884 -13.386  19.002  1.00  0.00    -0.349 N 
HETATM    5  C9  UNL     1      17.218 -12.895  17.855  1.00  0.00     0.243 C 
HETATM    6  O2  UNL     1      17.781 -12.036  17.086  1.00  0.00    -0.271 OA
HETATM    7  C19 UNL     1      19.272 -12.986  19.313  1.00  0.00     0.132 C 
HETATM    8  C20 UNL     1      19.640 -14.092  20.252  1.00  0.00     0.030 C 
HETATM    9  C21 UNL     1      20.618 -13.844  21.292  1.00  0.00     0.133 C 
HETATM   10  N4  UNL     1      20.079 -14.618  22.441  1.00  0.00    -0.336 N 
HETATM   11  C22 UNL     1      20.912 -14.903  23.559  1.00  0.00     0.251 C 
HETATM   12  O5  UNL     1      22.125 -14.485  23.453  1.00  0.00    -0.271 OA
ENDROOT
BRANCH   1  13
HETATM   13  C5  UNL     1      18.515 -16.357  21.806  1.00  0.00     0.242 C 
HETATM   14  N1  UNL     1      17.421 -17.127  22.274  1.00  0.00    -0.338 N 
ATOM     15  H1  UNL     1      16.746 -16.665  22.884  1.00  0.00     0.164 HD
HETATM   16  O1  UNL     1      19.353 -16.905  21.061  1.00  0.00    -0.271 OA
BRANCH  14  17
HETATM   17  C3  UNL     1      17.193 -18.500  21.957  1.00  0.00     0.128 C 
HETATM   18  C4  UNL     1      16.087 -19.076  22.800  1.00  0.00     0.054 C 
BRANCH  17  19
HETATM   19  C2  UNL     1      16.853 -18.684  20.508  1.00  0.00     0.003 C 
HETATM   20  C1  UNL     1      15.824 -18.065  19.988  1.00  0.00     0.010 C 
ENDBRANCH  17  19
BRANCH  17  21
HETATM   21  C28 UNL     1      18.446 -19.272  22.193  1.00  0.00     0.249 C 
HETATM   22  O6  UNL     1      18.873 -19.463  23.353  1.00  0.00    -0.270 OA
HETATM   23  N6  UNL     1      19.162 -19.793  21.097  1.00  0.00    -0.357 N 
ATOM     24  H6  UNL     1      18.812 -19.640  20.151  1.00  0.00     0.162 HD
BRANCH  23  25
HETATM   25  C29 UNL     1      20.365 -20.527  21.286  1.00  0.00     0.150 C 
BRANCH  25  26
HETATM   26  C30 UNL     1      21.637 -19.798  20.999  1.00  0.00     0.251 C 
BRANCH  26  27
HETATM   27  N7  UNL     1      21.729 -18.685  21.942  1.00  0.00    -0.077 N 
HETATM   28  C31 UNL     1      22.539 -19.065  23.079  1.00  0.00     0.267 C 
ATOM     29  H72 UNL     1      22.073 -17.834  21.496  1.00  0.00     0.276 HD
ATOM     30  H71 UNL     1      20.810 -18.346  22.223  1.00  0.00     0.276 HD
ENDBRANCH  26  27
ENDBRANCH  25  26
ENDBRANCH  23  25
ENDBRANCH  17  21
ENDBRANCH  14  17
ENDBRANCH   1  13
BRANCH  11  31
HETATM   31  C23 UNL     1      20.547 -15.604  24.785  1.00  0.00     0.278 C 
BRANCH  31  32
HETATM   32  N5  UNL     1      20.070 -16.958  24.604  1.00  0.00    -0.066 N 
ATOM     33  H53 UNL     1      19.292 -16.970  23.944  1.00  0.00     0.275 HD
ATOM     34  H52 UNL     1      20.755 -17.505  24.084  1.00  0.00     0.275 HD
ATOM     35  H51 UNL     1      19.809 -17.446  25.461  1.00  0.00     0.275 HD
ENDBRANCH  31  32
BRANCH  31  36
HETATM   36  C24 UNL     1      19.562 -14.920  25.682  1.00  0.00     0.021 C 
HETATM   37  C25 UNL     1      18.310 -15.808  25.687  1.00  0.00     0.012 C 
BRANCH  36  38
HETATM   38  C26 UNL     1      19.979 -14.736  27.103  1.00  0.00     0.002 C 
HETATM   39  C27 UNL     1      21.103 -13.675  27.084  1.00  0.00     0.005 C 
ENDBRANCH  36  38
ENDBRANCH  31  36
ENDBRANCH  11  31
BRANCH   5  40
HETATM   40  C10 UNL     1      15.860 -13.287  17.418  1.00  0.00     0.182 C 
BRANCH  40  41
HETATM   41  N3  UNL     1      14.893 -12.408  18.111  1.00  0.00    -0.323 N 
HETATM   42  C11 UNL     1      13.947 -12.979  19.014  1.00  0.00     0.362 C 
HETATM   43  O3  UNL     1      13.948 -14.214  19.199  1.00  0.00    -0.238 OA
ATOM     44  H3  UNL     1      14.903 -11.402  17.944  1.00  0.00     0.165 HD
BRANCH  42  45
HETATM   45  O4  UNL     1      13.043 -12.192  19.678  1.00  0.00    -0.294 OA
BRANCH  45  46
HETATM   46  C12 UNL     1      13.106 -12.002  21.071  1.00  0.00     0.061 C 
HETATM   47  C13 UNL     1      12.719 -10.561  21.337  1.00  0.00     0.046 C 
HETATM   48  C14 UNL     1      12.077 -12.857  21.794  1.00  0.00     0.046 C 
HETATM   49  C15 UNL     1      14.473 -12.249  21.649  1.00  0.00     0.046 C 
ENDBRANCH  45  46
ENDBRANCH  42  45
ENDBRANCH  40  41
BRANCH  40  50
HETATM   50  C16 UNL     1      15.687 -13.092  15.915  1.00  0.00     0.009 C 
HETATM   51  C17 UNL     1      14.730 -11.953  15.697  1.00  0.00     0.012 C 
HETATM   52  C18 UNL     1      15.082 -14.307  15.256  1.00  0.00     0.012 C 
ENDBRANCH  40  50
ENDBRANCH   5  40
TORSDOF 16
ENDMDL
MODEL 5
REMARK VINA RESULT: -7.434253029      1.354      2.837
REMARK  16 active torsions:
REMARK  status: ('A' for Active; 'I' for Inactive)
REMARK    1  A    between atoms: C2_2  and  C3_3 
REMARK    2  A    between atoms: C3_3  and  N1_5 
REMARK    3  A    between atoms: C3_3  and  C28_43 
REMARK       I    between atoms: N1_5  and  C5_7 
REMARK    4  A    between atoms: C5_7  and  C6_9 
REMARK       I    between atoms: N2_12  and  C9_13 
REMARK    5  A    between atoms: C9_13  and  C10_15 
REMARK    6  A    between atoms: C10_15  and  N3_16 
REMARK    7  A    between atoms: C10_15  and  C16_25 
REMARK       I    between atoms: N3_16  and  C11_18 
REMARK    8  A    between atoms: C11_18  and  O4_20 
REMARK    9  A    between atoms: O4_20  and  C12_21 
REMARK       I    between atoms: N4_31  and  C22_32 
REMARK   10  A    between atoms: C22_32  and  C23_34 
REMARK   11  A    between atoms: C23_34  and  N5_35 
REMARK   12  A    between atoms: C23_34  and  C24_39 
REMARK   13  A    between atoms: C24_39  and  C26_41 
REMARK       I    between atoms: C28_43  and  N6_45 
REMARK   14  A    between atoms: N6_45  and  C29_47 
REMARK   15  A    between atoms: C29_47  and  C30_48 
REMARK   16  A    between atoms: C30_48  and  N7_49 
ROOT
HETATM    1  C6  UNL     1      18.438 -14.416  22.588  1.00  0.00     0.185 C 
HETATM    2  C7  UNL     1      18.370 -13.663  21.332  1.00  0.00     0.043 C 
HETATM    3  C8  UNL     1      17.474 -14.049  20.224  1.00  0.00     0.133 C 
HETATM    4  N2  UNL     1      18.190 -13.453  19.106  1.00  0.00    -0.349 N 
HETATM    5  C9  UNL     1      17.720 -13.114  17.816  1.00  0.00     0.243 C 
HETATM    6  O2  UNL     1      18.491 -12.542  16.966  1.00  0.00    -0.271 OA
HETATM    7  C19 UNL     1      19.599 -13.231  19.492  1.00  0.00     0.132 C 
HETATM    8  C20 UNL     1      19.679 -14.158  20.665  1.00  0.00     0.030 C 
HETATM    9  C21 UNL     1      20.600 -13.860  21.743  1.00  0.00     0.133 C 
HETATM   10  N4  UNL     1      19.838 -14.273  22.950  1.00  0.00    -0.336 N 
HETATM   11  C22 UNL     1      20.512 -14.448  24.191  1.00  0.00     0.251 C 
HETATM   12  O5  UNL     1      21.785 -14.267  24.147  1.00  0.00    -0.271 OA
ENDROOT
BRANCH   1  13
HETATM   13  C5  UNL     1      18.035 -15.826  22.487  1.00  0.00     0.242 C 
HETATM   14  N1  UNL     1      16.674 -16.224  22.492  1.00  0.00    -0.338 N 
ATOM     15  H1  UNL     1      15.969 -15.491  22.571  1.00  0.00     0.164 HD
HETATM   16  O1  UNL     1      18.913 -16.709  22.396  1.00  0.00    -0.271 OA
BRANCH  14  17
HETATM   17  C3  UNL     1      16.217 -17.573  22.396  1.00  0.00     0.128 C 
HETATM   18  C4  UNL     1      14.714 -17.633  22.328  1.00  0.00     0.054 C 
BRANCH  17  19
HETATM   19  C2  UNL     1      16.792 -18.268  21.197  1.00  0.00     0.003 C 
HETATM   20  C1  UNL     1      16.056 -18.467  20.134  1.00  0.00     0.010 C 
ENDBRANCH  17  19
BRANCH  17  21
HETATM   21  C28 UNL     1      16.688 -18.335  23.587  1.00  0.00     0.249 C 
HETATM   22  O6  UNL     1      16.058 -18.291  24.666  1.00  0.00    -0.270 OA
HETATM   23  N6  UNL     1      17.858 -19.116  23.498  1.00  0.00    -0.357 N 
ATOM     24  H6  UNL     1      18.369 -19.154  22.616  1.00  0.00     0.162 HD
BRANCH  23  25
HETATM   25  C29 UNL     1      18.339 -19.850  24.617  1.00  0.00     0.150 C 
BRANCH  25  26
HETATM   26  C30 UNL     1      19.821 -19.873  24.804  1.00  0.00     0.251 C 
BRANCH  26  27
HETATM   27  N7  UNL     1      20.420 -19.168  23.673  1.00  0.00    -0.077 N 
HETATM   28  C31 UNL     1      21.843 -19.012  23.883  1.00  0.00     0.267 C 
ATOM     29  H72 UNL     1      20.213 -19.625  22.785  1.00  0.00     0.276 HD
ATOM     30  H71 UNL     1      19.960 -18.275  23.494  1.00  0.00     0.276 HD
ENDBRANCH  26  27
ENDBRANCH  25  26
ENDBRANCH  23  25
ENDBRANCH  17  21
ENDBRANCH  14  17
ENDBRANCH   1  13
BRANCH  11  31
HETATM   31  C23 UNL     1      19.926 -14.804  25.479  1.00  0.00     0.278 C 
BRANCH  31  32
HETATM   32  N5  UNL     1      20.538 -14.175  26.630  1.00  0.00    -0.066 N 
ATOM     33  H53 UNL     1      20.616 -13.169  26.480  1.00  0.00     0.275 HD
ATOM     34  H52 UNL     1      19.894 -14.188  27.421  1.00  0.00     0.275 HD
ATOM     35  H51 UNL     1      21.442 -14.559  26.907  1.00  0.00     0.275 HD
ENDBRANCH  31  32
BRANCH  31  36
HETATM   36  C24 UNL     1      19.829 -16.265  25.793  1.00  0.00     0.021 C 
HETATM   37  C25 UNL     1      21.068 -16.599  26.636  1.00  0.00     0.012 C 
BRANCH  36  38
HETATM   38  C26 UNL     1      18.634 -16.694  26.575  1.00  0.00     0.002 C 
HETATM   39  C27 UNL     1      17.478 -15.769  26.132  1.00  0.00     0.005 C 
ENDBRANCH  36  38
ENDBRANCH  31  36
ENDBRANCH  11  31
BRANCH   5  40
HETATM   40  C10 UNL     1      16.352 -13.361  17.309  1.00  0.00     0.182 C 
BRANCH  40  41
HETATM   41  N3  UNL     1      15.454 -12.367  17.934  1.00  0.00    -0.323 N 
HETATM   42  C11 UNL     1      14.340 -12.814  18.706  1.00  0.00     0.362 C 
HETATM   43  O3  UNL     1      14.139 -14.040  18.835  1.00  0.00    -0.238 OA
ATOM     44  H3  UNL     1      15.630 -11.369  17.815  1.00  0.00     0.165 HD
BRANCH  42  45
HETATM   45  O4  UNL     1      13.493 -11.919  19.306  1.00  0.00    -0.294 OA
BRANCH  45  46
HETATM   46  C12 UNL     1      13.359 -11.847  20.705  1.00  0.00     0.061 C 
HETATM   47  C13 UNL     1      12.868 -10.449  21.028  1.00  0.00     0.046 C 
HETATM   48  C14 UNL     1      12.287 -12.799  21.209  1.00  0.00     0.046 C 
HETATM   49  C15 UNL     1      14.647 -12.089  21.444  1.00  0.00     0.046 C 
ENDBRANCH  45  46
ENDBRANCH  42  45
ENDBRANCH  40  41
BRANCH  40  50
HETATM   50  C16 UNL     1      16.284 -13.177  15.796  1.00  0.00     0.009 C 
HETATM   51  C17 UNL     1      15.407 -11.990  15.507  1.00  0.00     0.012 C 
HETATM   52  C18 UNL     1      15.655 -14.366  15.112  1.00  0.00     0.012 C 
ENDBRANCH  40  50
ENDBRANCH   5  40
TORSDOF 16
ENDMDL
