MODEL 1
REMARK VINA RESULT: -7.985103930      0.000      0.000
REMARK  13 active torsions:
REMARK  status: ('A' for Active; 'I' for Inactive)
REMARK    1  A    between atoms: C2_2  and  C3_3 
REMARK    2  A    between atoms: C3_3  and  C4_5 
REMARK    3  A    between atoms: C6_7  and  C7_8 
REMARK    4  A    between atoms: C7_8  and  C8_9 
REMARK    5  A    between atoms: C8_9  and  C9_10 
REMARK    6  A    between atoms: C9_10  and  C10_11 
REMARK    7  A    between atoms: C10_11  and  C11_12 
REMARK    8  A    between atoms: C11_12  and  N1_13 
REMARK    9  A    between atoms: C14_19  and  C15_20 
REMARK   10  A    between atoms: C15_20  and  C16_21 
REMARK   11  A    between atoms: C23_33  and  C24_34 
REMARK   12  A    between atoms: C24_34  and  C25_35 
REMARK   13  A    between atoms: C29_42  and  C30_43 
ROOT
HETATM    1  N1  UNL     1      18.484 -15.580  21.928  1.00  0.00    -0.341 N 
HETATM    2  C12 UNL     1      18.546 -16.615  20.948  1.00  0.00     0.228 C 
HETATM    3  C13 UNL     1      18.555 -17.999  21.459  1.00  0.00     0.236 C 
HETATM    4  O2  UNL     1      19.721 -18.562  21.435  1.00  0.00    -0.272 OA
HETATM    5  N2  UNL     1      17.496 -18.767  21.954  1.00  0.00    -0.346 N 
ATOM      6  H2  UNL     1      17.298 -19.622  21.435  1.00  0.00     0.163 HD
HETATM    7  C14 UNL     1      16.647 -18.525  23.092  1.00  0.00     0.177 C 
HETATM    8  C19 UNL     1      15.209 -18.672  22.894  1.00  0.00     0.242 C 
HETATM    9  O3  UNL     1      14.541 -18.912  23.978  1.00  0.00    -0.271 OA
HETATM   10  N3  UNL     1      14.456 -18.590  21.720  1.00  0.00    -0.346 N 
HETATM   11  C20 UNL     1      13.616 -19.710  21.350  1.00  0.00     0.153 C 
HETATM   12  C21 UNL     1      14.421 -17.428  20.810  1.00  0.00     0.228 C 
HETATM   13  C22 UNL     1      13.364 -16.479  21.266  1.00  0.00     0.236 C 
HETATM   14  O4  UNL     1      12.186 -16.983  21.243  1.00  0.00    -0.272 OA
HETATM   15  N4  UNL     1      13.562 -15.150  21.696  1.00  0.00    -0.346 N 
ATOM     16  H4  UNL     1      13.283 -14.947  22.656  1.00  0.00     0.163 HD
HETATM   17  C23 UNL     1      14.103 -14.050  20.961  1.00  0.00     0.177 C 
HETATM   18  C28 UNL     1      14.992 -14.464  19.849  1.00  0.00     0.241 C 
HETATM   19  O5  UNL     1      14.343 -15.017  18.877  1.00  0.00    -0.271 OA
HETATM   20  N5  UNL     1      16.365 -14.347  19.709  1.00  0.00    -0.337 N 
ATOM     21  H5  UNL     1      16.732 -14.783  18.863  1.00  0.00     0.163 HD
HETATM   22  C29 UNL     1      17.360 -13.737  20.518  1.00  0.00     0.278 C 
HETATM   23  C31 UNL     1      17.644 -14.411  21.816  1.00  0.00     0.253 C 
HETATM   24  O8  UNL     1      17.162 -13.991  22.901  1.00  0.00    -0.270 OA
ENDROOT
BRANCH   1  25
HETATM   25  C11 UNL     1      19.356 -15.745  23.109  1.00  0.00     0.126 C 
BRANCH  25  26
HETATM   26  C10 UNL     1      20.400 -14.624  23.073  1.00  0.00     0.020 C 
BRANCH  26  27
HETATM   27  C9  UNL     1      20.490 -13.952  24.428  1.00  0.00     0.002 C 
BRANCH  27  28
HETATM   28  C8  UNL     1      19.911 -14.783  25.522  1.00  0.00     0.004 C 
BRANCH  28  29
HETATM   29  C7  UNL     1      20.958 -15.207  26.540  1.00  0.00     0.028 C 
BRANCH  29  30
HETATM   30  C6  UNL     1      21.066 -16.674  26.581  1.00  0.00    -0.016 C 
HETATM   31  C4  UNL     1      21.770 -17.476  25.821  1.00  0.00    -0.016 C 
HETATM   32  C5  UNL     1      21.703 -18.968  26.080  1.00  0.00     0.052 C 
BRANCH  31  33
HETATM   33  C3  UNL     1      22.636 -17.092  24.724  1.00  0.00     0.176 C 
HETATM   34  O1  UNL     1      22.423 -17.380  23.532  1.00  0.00    -0.288 OA
BRANCH  33  35
HETATM   35  C2  UNL     1      23.860 -16.308  25.014  1.00  0.00     0.045 C 
HETATM   36  C1  UNL     1      24.059 -15.146  24.427  1.00  0.00     0.015 C 
ENDBRANCH  33  35
ENDBRANCH  31  33
ENDBRANCH  29  30
ENDBRANCH  28  29
ENDBRANCH  27  28
ENDBRANCH  26  27
ENDBRANCH  25  26
ENDBRANCH   1  25
BRANCH  22  37
HETATM   37  C30 UNL     1      17.216 -12.276  20.710  1.00  0.00     0.206 C 
HETATM   38  O6  UNL     1      16.291 -11.659  20.171  1.00  0.00    -0.646 OA
HETATM   39  O7  UNL     1      18.131 -11.616  21.497  1.00  0.00    -0.646 OA
ENDBRANCH  22  37
BRANCH   7  40
HETATM   40  C15 UNL     1      17.160 -19.204  24.329  1.00  0.00     0.038 C 
BRANCH  40  41
HETATM   41  C16 UNL     1      17.902 -18.389  25.302  1.00  0.00    -0.020 C 
HETATM   42  C17 UNL     1      17.088 -17.086  25.474  1.00  0.00     0.009 C 
HETATM   43  C18 UNL     1      18.093 -18.904  26.677  1.00  0.00     0.009 C 
ENDBRANCH  40  41
ENDBRANCH   7  40
BRANCH  17  44
HETATM   44  C24 UNL     1      13.048 -13.159  20.378  1.00  0.00     0.038 C 
BRANCH  44  45
HETATM   45  C25 UNL     1      12.536 -12.023  21.155  1.00  0.00    -0.020 C 
HETATM   46  C26 UNL     1      13.527 -11.431  22.102  1.00  0.00     0.009 C 
HETATM   47  C27 UNL     1      11.398 -12.585  22.041  1.00  0.00     0.009 C 
ENDBRANCH  44  45
ENDBRANCH  17  44
TORSDOF 13
ENDMDL
MODEL 2
REMARK VINA RESULT: -7.818682219      1.033      1.614
REMARK  13 active torsions:
REMARK  status: ('A' for Active; 'I' for Inactive)
REMARK    1  A    between atoms: C2_2  and  C3_3 
REMARK    2  A    between atoms: C3_3  and  C4_5 
REMARK    3  A    between atoms: C6_7  and  C7_8 
REMARK    4  A    between atoms: C7_8  and  C8_9 
REMARK    5  A    between atoms: C8_9  and  C9_10 
REMARK    6  A    between atoms: C9_10  and  C10_11 
REMARK    7  A    between atoms: C10_11  and  C11_12 
REMARK    8  A    between atoms: C11_12  and  N1_13 
REMARK    9  A    between atoms: C14_19  and  C15_20 
REMARK   10  A    between atoms: C15_20  and  C16_21 
REMARK   11  A    between atoms: C23_33  and  C24_34 
REMARK   12  A    between atoms: C24_34  and  C25_35 
REMARK   13  A    between atoms: C29_42  and  C30_43 
ROOT
HETATM    1  N1  UNL     1      18.629 -15.412  21.803  1.00  0.00    -0.341 N 
HETATM    2  C12 UNL     1      18.691 -16.463  20.840  1.00  0.00     0.228 C 
HETATM    3  C13 UNL     1      18.744 -17.837  21.374  1.00  0.00     0.236 C 
HETATM    4  O2  UNL     1      19.920 -18.375  21.331  1.00  0.00    -0.272 OA
HETATM    5  N2  UNL     1      17.715 -18.620  21.908  1.00  0.00    -0.346 N 
ATOM      6  H2  UNL     1      17.522 -19.488  21.409  1.00  0.00     0.163 HD
HETATM    7  C14 UNL     1      16.887 -18.376  23.062  1.00  0.00     0.177 C 
HETATM    8  C19 UNL     1      15.448 -18.558  22.903  1.00  0.00     0.242 C 
HETATM    9  O3  UNL     1      14.813 -18.794  24.007  1.00  0.00    -0.271 OA
HETATM   10  N3  UNL     1      14.666 -18.514  21.746  1.00  0.00    -0.346 N 
HETATM   11  C20 UNL     1      13.843 -19.658  21.416  1.00  0.00     0.153 C 
HETATM   12  C21 UNL     1      14.583 -17.369  20.817  1.00  0.00     0.228 C 
HETATM   13  C22 UNL     1      13.516 -16.436  21.283  1.00  0.00     0.236 C 
HETATM   14  O4  UNL     1      12.350 -16.966  21.297  1.00  0.00    -0.272 OA
HETATM   15  N4  UNL     1      13.695 -15.095  21.684  1.00  0.00    -0.346 N 
ATOM     16  H4  UNL     1      13.434 -14.881  22.647  1.00  0.00     0.163 HD
HETATM   17  C23 UNL     1      14.194 -13.997  20.917  1.00  0.00     0.177 C 
HETATM   18  C28 UNL     1      15.064 -14.411  19.791  1.00  0.00     0.241 C 
HETATM   19  O5  UNL     1      14.404 -14.996  18.845  1.00  0.00    -0.271 OA
HETATM   20  N5  UNL     1      16.430 -14.267  19.615  1.00  0.00    -0.337 N 
ATOM     21  H5  UNL     1      16.786 -14.710  18.768  1.00  0.00     0.163 HD
HETATM   22  C29 UNL     1      17.430 -13.621  20.389  1.00  0.00     0.278 C 
HETATM   23  C31 UNL     1      17.761 -14.265  21.691  1.00  0.00     0.253 C 
HETATM   24  O8  UNL     1      17.296 -13.836  22.780  1.00  0.00    -0.270 OA
ENDROOT
BRANCH   1  25
HETATM   25  C11 UNL     1      19.533 -15.537  22.964  1.00  0.00     0.126 C 
BRANCH  25  26
HETATM   26  C10 UNL     1      20.664 -14.519  22.782  1.00  0.00     0.020 C 
BRANCH  26  27
HETATM   27  C9  UNL     1      21.601 -14.563  23.972  1.00  0.00     0.002 C 
BRANCH  27  28
HETATM   28  C8  UNL     1      21.211 -13.607  25.048  1.00  0.00     0.004 C 
BRANCH  28  29
HETATM   29  C7  UNL     1      21.200 -14.260  26.422  1.00  0.00     0.028 C 
BRANCH  29  30
HETATM   30  C6  UNL     1      19.918 -14.943  26.653  1.00  0.00    -0.016 C 
HETATM   31  C4  UNL     1      19.629 -16.217  26.561  1.00  0.00    -0.016 C 
HETATM   32  C5  UNL     1      18.211 -16.664  26.858  1.00  0.00     0.052 C 
BRANCH  31  33
HETATM   33  C3  UNL     1      20.535 -17.288  26.197  1.00  0.00     0.176 C 
HETATM   34  O1  UNL     1      20.658 -17.737  25.043  1.00  0.00    -0.288 OA
BRANCH  33  35
HETATM   35  C2  UNL     1      21.379 -17.905  27.247  1.00  0.00     0.045 C 
HETATM   36  C1  UNL     1      22.657 -17.601  27.337  1.00  0.00     0.015 C 
ENDBRANCH  33  35
ENDBRANCH  31  33
ENDBRANCH  29  30
ENDBRANCH  28  29
ENDBRANCH  27  28
ENDBRANCH  26  27
ENDBRANCH  25  26
ENDBRANCH   1  25
BRANCH  22  37
HETATM   37  C30 UNL     1      17.259 -12.160  20.559  1.00  0.00     0.206 C 
HETATM   38  O6  UNL     1      16.325 -11.568  20.007  1.00  0.00    -0.646 OA
HETATM   39  O7  UNL     1      18.158 -11.471  21.340  1.00  0.00    -0.646 OA
ENDBRANCH  22  37
BRANCH   7  40
HETATM   40  C15 UNL     1      17.445 -19.022  24.298  1.00  0.00     0.038 C 
BRANCH  40  41
HETATM   41  C16 UNL     1      18.083 -20.340  24.156  1.00  0.00    -0.020 C 
HETATM   42  C17 UNL     1      18.827 -20.597  25.486  1.00  0.00     0.009 C 
HETATM   43  C18 UNL     1      17.232 -21.534  23.957  1.00  0.00     0.009 C 
ENDBRANCH  40  41
ENDBRANCH   7  40
BRANCH  17  44
HETATM   44  C24 UNL     1      13.104 -13.140  20.345  1.00  0.00     0.038 C 
BRANCH  44  45
HETATM   45  C25 UNL     1      12.586 -12.003  21.115  1.00  0.00    -0.020 C 
HETATM   46  C26 UNL     1      13.582 -11.376  22.032  1.00  0.00     0.009 C 
HETATM   47  C27 UNL     1      11.477 -12.574  22.032  1.00  0.00     0.009 C 
ENDBRANCH  44  45
ENDBRANCH  17  44
TORSDOF 13
ENDMDL
MODEL 3
REMARK VINA RESULT: -7.808214903      0.443      1.372
REMARK  13 active torsions:
REMARK  status: ('A' for Active; 'I' for Inactive)
REMARK    1  A    between atoms: C2_2  and  C3_3 
REMARK    2  A    between atoms: C3_3  and  C4_5 
REMARK    3  A    between atoms: C6_7  and  C7_8 
REMARK    4  A    between atoms: C7_8  and  C8_9 
REMARK    5  A    between atoms: C8_9  and  C9_10 
REMARK    6  A    between atoms: C9_10  and  C10_11 
REMARK    7  A    between atoms: C10_11  and  C11_12 
REMARK    8  A    between atoms: C11_12  and  N1_13 
REMARK    9  A    between atoms: C14_19  and  C15_20 
REMARK   10  A    between atoms: C15_20  and  C16_21 
REMARK   11  A    between atoms: C23_33  and  C24_34 
REMARK   12  A    between atoms: C24_34  and  C25_35 
REMARK   13  A    between atoms: C29_42  and  C30_43 
ROOT
HETATM    1  N1  UNL     1      18.501 -15.644  22.033  1.00  0.00    -0.341 N 
HETATM    2  C12 UNL     1      18.581 -16.679  21.054  1.00  0.00     0.228 C 
HETATM    3  C13 UNL     1      18.577 -18.063  21.565  1.00  0.00     0.236 C 
HETATM    4  O2  UNL     1      19.742 -18.628  21.562  1.00  0.00    -0.272 OA
HETATM    5  N2  UNL     1      17.508 -18.829  22.039  1.00  0.00    -0.346 N 
ATOM      6  H2  UNL     1      17.318 -19.684  21.516  1.00  0.00     0.163 HD
HETATM    7  C14 UNL     1      16.637 -18.586  23.161  1.00  0.00     0.177 C 
HETATM    8  C19 UNL     1      15.203 -18.731  22.936  1.00  0.00     0.242 C 
HETATM    9  O3  UNL     1      14.515 -18.970  24.007  1.00  0.00    -0.271 OA
HETATM   10  N3  UNL     1      14.473 -18.647  21.748  1.00  0.00    -0.346 N 
HETATM   11  C20 UNL     1      13.638 -19.765  21.362  1.00  0.00     0.153 C 
HETATM   12  C21 UNL     1      14.457 -17.484  20.838  1.00  0.00     0.228 C 
HETATM   13  C22 UNL     1      13.393 -16.534  21.274  1.00  0.00     0.236 C 
HETATM   14  O4  UNL     1      12.216 -17.036  21.228  1.00  0.00    -0.272 OA
HETATM   15  N4  UNL     1      13.586 -15.205  21.708  1.00  0.00    -0.346 N 
ATOM     16  H4  UNL     1      13.289 -15.002  22.662  1.00  0.00     0.163 HD
HETATM   17  C23 UNL     1      14.143 -14.106  20.983  1.00  0.00     0.177 C 
HETATM   18  C28 UNL     1      15.051 -14.522  19.888  1.00  0.00     0.241 C 
HETATM   19  O5  UNL     1      14.420 -15.073  18.904  1.00  0.00    -0.271 OA
HETATM   20  N5  UNL     1      16.427 -14.407  19.774  1.00  0.00    -0.337 N 
ATOM     21  H5  UNL     1      16.809 -14.844  18.935  1.00  0.00     0.163 HD
HETATM   22  C29 UNL     1      17.407 -13.799  20.602  1.00  0.00     0.278 C 
HETATM   23  C31 UNL     1      17.666 -14.474  21.905  1.00  0.00     0.253 C 
HETATM   24  O8  UNL     1      17.164 -14.053  22.981  1.00  0.00    -0.270 OA
ENDROOT
BRANCH   1  25
HETATM   25  C11 UNL     1      19.351 -15.811  23.230  1.00  0.00     0.126 C 
BRANCH  25  26
HETATM   26  C10 UNL     1      20.361 -14.659  23.245  1.00  0.00     0.020 C 
BRANCH  26  27
HETATM   27  C9  UNL     1      20.474 -14.083  24.641  1.00  0.00     0.002 C 
BRANCH  27  28
HETATM   28  C8  UNL     1      21.889 -13.892  25.072  1.00  0.00     0.004 C 
BRANCH  28  29
HETATM   29  C7  UNL     1      22.880 -14.349  24.013  1.00  0.00     0.028 C 
BRANCH  29  30
HETATM   30  C6  UNL     1      23.863 -15.274  24.599  1.00  0.00    -0.016 C 
HETATM   31  C4  UNL     1      23.773 -16.566  24.793  1.00  0.00    -0.016 C 
HETATM   32  C5  UNL     1      24.947 -17.291  25.422  1.00  0.00     0.052 C 
BRANCH  31  33
HETATM   33  C3  UNL     1      22.646 -17.416  24.466  1.00  0.00     0.176 C 
HETATM   34  O1  UNL     1      22.327 -17.740  23.307  1.00  0.00    -0.288 OA
BRANCH  33  35
HETATM   35  C2  UNL     1      21.804 -17.947  25.563  1.00  0.00     0.045 C 
HETATM   36  C1  UNL     1      21.405 -17.156  26.538  1.00  0.00     0.015 C 
ENDBRANCH  33  35
ENDBRANCH  31  33
ENDBRANCH  29  30
ENDBRANCH  28  29
ENDBRANCH  27  28
ENDBRANCH  26  27
ENDBRANCH  25  26
ENDBRANCH   1  25
BRANCH  22  37
HETATM   37  C30 UNL     1      17.263 -12.338  20.791  1.00  0.00     0.206 C 
HETATM   38  O6  UNL     1      17.950 -11.741  21.626  1.00  0.00    -0.646 OA
HETATM   39  O7  UNL     1      16.349 -11.654  20.022  1.00  0.00    -0.646 OA
ENDBRANCH  22  37
BRANCH   7  40
HETATM   40  C15 UNL     1      17.126 -19.267  24.407  1.00  0.00     0.038 C 
BRANCH  40  41
HETATM   41  C16 UNL     1      17.933 -18.476  25.349  1.00  0.00    -0.020 C 
HETATM   42  C17 UNL     1      17.145 -17.169  25.592  1.00  0.00     0.009 C 
HETATM   43  C18 UNL     1      18.199 -19.018  26.701  1.00  0.00     0.009 C 
ENDBRANCH  40  41
ENDBRANCH   7  40
BRANCH  17  44
HETATM   44  C24 UNL     1      13.100 -13.213  20.381  1.00  0.00     0.038 C 
BRANCH  44  45
HETATM   45  C25 UNL     1      12.623 -12.039  21.122  1.00  0.00    -0.020 C 
HETATM   46  C26 UNL     1      13.626 -11.457  22.062  1.00  0.00     0.009 C 
HETATM   47  C27 UNL     1      11.457 -12.535  22.011  1.00  0.00     0.009 C 
ENDBRANCH  44  45
ENDBRANCH  17  44
TORSDOF 13
ENDMDL
MODEL 4
REMARK VINA RESULT: -7.638443908      1.223      1.989
REMARK  13 active torsions:
REMARK  status: ('A' for Active; 'I' for Inactive)
REMARK    1  A    between atoms: C2_2  and  C3_3 
REMARK    2  A    between atoms: C3_3  and  C4_5 
REMARK    3  A    between atoms: C6_7  and  C7_8 
REMARK    4  A    between atoms: C7_8  and  C8_9 
REMARK    5  A    between atoms: C8_9  and  C9_10 
REMARK    6  A    between atoms: C9_10  and  C10_11 
REMARK    7  A    between atoms: C10_11  and  C11_12 
REMARK    8  A    between atoms: C11_12  and  N1_13 
REMARK    9  A    between atoms: C14_19  and  C15_20 
REMARK   10  A    between atoms: C15_20  and  C16_21 
REMARK   11  A    between atoms: C23_33  and  C24_34 
REMARK   12  A    between atoms: C24_34  and  C25_35 
REMARK   13  A    between atoms: C29_42  and  C30_43 
ROOT
HETATM    1  N1  UNL     1      18.339 -15.849  21.770  1.00  0.00    -0.341 N 
HETATM    2  C12 UNL     1      18.260 -16.794  20.703  1.00  0.00     0.228 C 
HETATM    3  C13 UNL     1      18.144 -18.212  21.094  1.00  0.00     0.236 C 
HETATM    4  O2  UNL     1      19.244 -18.883  20.970  1.00  0.00    -0.272 OA
HETATM    5  N2  UNL     1      17.030 -18.912  21.569  1.00  0.00    -0.346 N 
ATOM      6  H2  UNL     1      16.726 -19.694  20.988  1.00  0.00     0.163 HD
HETATM    7  C14 UNL     1      16.251 -18.689  22.760  1.00  0.00     0.177 C 
HETATM    8  C19 UNL     1      14.800 -18.674  22.615  1.00  0.00     0.242 C 
HETATM    9  O3  UNL     1      14.150 -18.942  23.703  1.00  0.00    -0.271 OA
HETATM   10  N3  UNL     1      14.018 -18.414  21.487  1.00  0.00    -0.346 N 
HETATM   11  C20 UNL     1      13.054 -19.407  21.060  1.00  0.00     0.153 C 
HETATM   12  C21 UNL     1      14.070 -17.177  20.681  1.00  0.00     0.228 C 
HETATM   13  C22 UNL     1      13.134 -16.172  21.263  1.00  0.00     0.236 C 
HETATM   14  O4  UNL     1      11.910 -16.553  21.249  1.00  0.00    -0.272 OA
HETATM   15  N4  UNL     1      13.483 -14.912  21.795  1.00  0.00    -0.346 N 
ATOM     16  H4  UNL     1      13.260 -14.769  22.780  1.00  0.00     0.163 HD
HETATM   17  C23 UNL     1      14.108 -13.811  21.132  1.00  0.00     0.177 C 
HETATM   18  C28 UNL     1      14.909 -14.211  19.950  1.00  0.00     0.241 C 
HETATM   19  O5  UNL     1      14.172 -14.608  18.965  1.00  0.00    -0.271 OA
HETATM   20  N5  UNL     1      16.281 -14.219  19.760  1.00  0.00    -0.337 N 
ATOM     21  H5  UNL     1      16.570 -14.613  18.864  1.00  0.00     0.163 HD
HETATM   22  C29 UNL     1      17.361 -13.786  20.572  1.00  0.00     0.278 C 
HETATM   23  C31 UNL     1      17.621 -14.597  21.794  1.00  0.00     0.253 C 
HETATM   24  O8  UNL     1      17.223 -14.230  22.932  1.00  0.00    -0.270 OA
ENDROOT
BRANCH   1  25
HETATM   25  C11 UNL     1      19.232 -16.204  22.892  1.00  0.00     0.126 C 
BRANCH  25  26
HETATM   26  C10 UNL     1      20.618 -15.631  22.580  1.00  0.00     0.020 C 
BRANCH  26  27
HETATM   27  C9  UNL     1      20.876 -14.402  23.427  1.00  0.00     0.002 C 
BRANCH  27  28
HETATM   28  C8  UNL     1      22.326 -14.181  23.694  1.00  0.00     0.004 C 
BRANCH  28  29
HETATM   29  C7  UNL     1      22.645 -14.190  25.181  1.00  0.00     0.028 C 
BRANCH  29  30
HETATM   30  C6  UNL     1      22.499 -15.549  25.727  1.00  0.00    -0.016 C 
HETATM   31  C4  UNL     1      21.530 -16.051  26.452  1.00  0.00    -0.016 C 
HETATM   32  C5  UNL     1      21.625 -17.500  26.889  1.00  0.00     0.052 C 
BRANCH  31  33
HETATM   33  C3  UNL     1      20.336 -15.363  26.901  1.00  0.00     0.176 C 
HETATM   34  O1  UNL     1      20.335 -14.233  27.421  1.00  0.00    -0.288 OA
BRANCH  33  35
HETATM   35  C2  UNL     1      19.021 -16.027  26.744  1.00  0.00     0.045 C 
HETATM   36  C1  UNL     1      18.089 -15.485  25.988  1.00  0.00     0.015 C 
ENDBRANCH  33  35
ENDBRANCH  31  33
ENDBRANCH  29  30
ENDBRANCH  28  29
ENDBRANCH  27  28
ENDBRANCH  26  27
ENDBRANCH  25  26
ENDBRANCH   1  25
BRANCH  22  37
HETATM   37  C30 UNL     1      17.376 -12.341  20.893  1.00  0.00     0.206 C 
HETATM   38  O6  UNL     1      18.252 -11.868  21.625  1.00  0.00    -0.646 OA
HETATM   39  O7  UNL     1      16.397 -11.531  20.364  1.00  0.00    -0.646 OA
ENDBRANCH  22  37
BRANCH   7  40
HETATM   40  C15 UNL     1      16.736 -19.523  23.911  1.00  0.00     0.038 C 
BRANCH  40  41
HETATM   41  C16 UNL     1      17.717 -18.924  24.827  1.00  0.00    -0.020 C 
HETATM   42  C17 UNL     1      17.230 -19.265  26.255  1.00  0.00     0.009 C 
HETATM   43  C18 UNL     1      19.122 -19.388  24.782  1.00  0.00     0.009 C 
ENDBRANCH  40  41
ENDBRANCH   7  40
BRANCH  17  44
HETATM   44  C24 UNL     1      13.129 -12.771  20.674  1.00  0.00     0.038 C 
BRANCH  44  45
HETATM   45  C25 UNL     1      12.888 -11.580  21.497  1.00  0.00    -0.020 C 
HETATM   46  C26 UNL     1      11.592 -11.596  22.238  1.00  0.00     0.009 C 
HETATM   47  C27 UNL     1      12.790 -10.389  20.513  1.00  0.00     0.009 C 
ENDBRANCH  44  45
ENDBRANCH  17  44
TORSDOF 13
ENDMDL
MODEL 5
REMARK VINA RESULT: -7.382726337      2.847      8.003
REMARK  13 active torsions:
REMARK  status: ('A' for Active; 'I' for Inactive)
REMARK    1  A    between atoms: C2_2  and  C3_3 
REMARK    2  A    between atoms: C3_3  and  C4_5 
REMARK    3  A    between atoms: C6_7  and  C7_8 
REMARK    4  A    between atoms: C7_8  and  C8_9 
REMARK    5  A    between atoms: C8_9  and  C9_10 
REMARK    6  A    between atoms: C9_10  and  C10_11 
REMARK    7  A    between atoms: C10_11  and  C11_12 
REMARK    8  A    between atoms: C11_12  and  N1_13 
REMARK    9  A    between atoms: C14_19  and  C15_20 
REMARK   10  A    between atoms: C15_20  and  C16_21 
REMARK   11  A    between atoms: C23_33  and  C24_34 
REMARK   12  A    between atoms: C24_34  and  C25_35 
REMARK   13  A    between atoms: C29_42  and  C30_43 
ROOT
HETATM    1  N1  UNL     1      18.895 -14.362  22.224  1.00  0.00    -0.341 N 
HETATM    2  C12 UNL     1      17.615 -14.060  22.780  1.00  0.00     0.228 C 
HETATM    3  C13 UNL     1      16.446 -14.579  22.045  1.00  0.00     0.236 C 
HETATM    4  O2  UNL     1      15.823 -13.684  21.347  1.00  0.00    -0.272 OA
HETATM    5  N2  UNL     1      15.931 -15.879  22.004  1.00  0.00    -0.346 N 
ATOM      6  H2  UNL     1      14.976 -15.981  22.349  1.00  0.00     0.163 HD
HETATM    7  C14 UNL     1      16.554 -17.094  21.545  1.00  0.00     0.177 C 
HETATM    8  C19 UNL     1      16.454 -18.264  22.410  1.00  0.00     0.242 C 
HETATM    9  O3  UNL     1      16.589 -19.397  21.795  1.00  0.00    -0.271 OA
HETATM   10  N3  UNL     1      16.237 -18.340  23.788  1.00  0.00    -0.346 N 
HETATM   11  C20 UNL     1      15.118 -19.117  24.277  1.00  0.00     0.153 C 
HETATM   12  C21 UNL     1      17.080 -17.701  24.819  1.00  0.00     0.228 C 
HETATM   13  C22 UNL     1      18.191 -18.627  25.187  1.00  0.00     0.236 C 
HETATM   14  O4  UNL     1      17.783 -19.730  25.695  1.00  0.00    -0.272 OA
HETATM   15  N4  UNL     1      19.571 -18.385  25.021  1.00  0.00    -0.346 N 
ATOM     16  H4  UNL     1      20.066 -19.034  24.410  1.00  0.00     0.163 HD
HETATM   17  C23 UNL     1      20.366 -17.347  25.599  1.00  0.00     0.177 C 
HETATM   18  C28 UNL     1      19.584 -16.147  25.979  1.00  0.00     0.241 C 
HETATM   19  O5  UNL     1      18.815 -16.360  26.996  1.00  0.00    -0.271 OA
HETATM   20  N5  UNL     1      19.561 -14.879  25.421  1.00  0.00    -0.337 N 
ATOM     21  H5  UNL     1      18.871 -14.256  25.842  1.00  0.00     0.163 HD
HETATM   22  C29 UNL     1      20.313 -14.281  24.376  1.00  0.00     0.278 C 
HETATM   23  C31 UNL     1      20.033 -14.787  23.003  1.00  0.00     0.253 C 
HETATM   24  O8  UNL     1      20.785 -15.626  22.439  1.00  0.00    -0.270 OA
ENDROOT
BRANCH   1  25
HETATM   25  C11 UNL     1      19.025 -14.204  20.761  1.00  0.00     0.126 C 
BRANCH  25  26
HETATM   26  C10 UNL     1      19.854 -12.941  20.504  1.00  0.00     0.020 C 
BRANCH  26  27
HETATM   27  C9  UNL     1      20.334 -12.917  19.068  1.00  0.00     0.002 C 
BRANCH  27  28
HETATM   28  C8  UNL     1      19.628 -13.909  18.208  1.00  0.00     0.004 C 
BRANCH  28  29
HETATM   29  C7  UNL     1      18.761 -13.242  17.151  1.00  0.00     0.028 C 
BRANCH  29  30
HETATM   30  C6  UNL     1      17.350 -13.251  17.569  1.00  0.00    -0.016 C 
HETATM   31  C4  UNL     1      16.343 -12.554  17.103  1.00  0.00    -0.016 C 
HETATM   32  C5  UNL     1      14.972 -12.757  17.719  1.00  0.00     0.052 C 
BRANCH  31  33
HETATM   33  C3  UNL     1      16.385 -11.577  16.034  1.00  0.00     0.176 C 
HETATM   34  O1  UNL     1      16.990 -10.492  16.102  1.00  0.00    -0.288 OA
BRANCH  33  35
HETATM   35  C2  UNL     1      15.671 -11.866  14.768  1.00  0.00     0.045 C 
HETATM   36  C1  UNL     1      15.984 -12.928  14.055  1.00  0.00     0.015 C 
ENDBRANCH  33  35
ENDBRANCH  31  33
ENDBRANCH  29  30
ENDBRANCH  28  29
ENDBRANCH  27  28
ENDBRANCH  26  27
ENDBRANCH  25  26
ENDBRANCH   1  25
BRANCH  22  37
HETATM   37  C30 UNL     1      21.772 -14.193  24.611  1.00  0.00     0.206 C 
HETATM   38  O6  UNL     1      22.211 -13.795  25.696  1.00  0.00    -0.646 OA
HETATM   39  O7  UNL     1      22.632 -14.560  23.602  1.00  0.00    -0.646 OA
ENDBRANCH  22  37
BRANCH   7  40
HETATM   40  C15 UNL     1      16.235 -17.376  20.105  1.00  0.00     0.038 C 
BRANCH  40  41
HETATM   41  C16 UNL     1      14.844 -17.202  19.662  1.00  0.00    -0.020 C 
HETATM   42  C17 UNL     1      14.912 -16.371  18.360  1.00  0.00     0.009 C 
HETATM   43  C18 UNL     1      14.044 -18.397  19.311  1.00  0.00     0.009 C 
ENDBRANCH  40  41
ENDBRANCH   7  40
BRANCH  17  44
HETATM   44  C24 UNL     1      21.116 -17.794  26.818  1.00  0.00     0.038 C 
BRANCH  44  45
HETATM   45  C25 UNL     1      22.447 -17.243  27.103  1.00  0.00    -0.020 C 
HETATM   46  C26 UNL     1      23.410 -17.342  25.967  1.00  0.00     0.009 C 
HETATM   47  C27 UNL     1      23.043 -18.118  28.231  1.00  0.00     0.009 C 
ENDBRANCH  44  45
ENDBRANCH  17  44
TORSDOF 13
ENDMDL
