MODEL 1
REMARK VINA RESULT: -8.532929251      0.000      0.000
REMARK  16 active torsions:
REMARK  status: ('A' for Active; 'I' for Inactive)
REMARK    1  A    between atoms: C2_2  and  C4_4 
REMARK    2  A    between atoms: C4_4  and  C5_5 
REMARK    3  A    between atoms: C5_5  and  O1_6 
REMARK    4  A    between atoms: C5_5  and  C6_8 
REMARK    5  A    between atoms: C6_8  and  N1_9 
REMARK    6  A    between atoms: C6_8  and  C28_41 
REMARK       I    between atoms: N1_9  and  C7_11 
REMARK    7  A    between atoms: C7_11  and  C8_13 
REMARK    8  A    between atoms: C8_13  and  C9_14 
REMARK    9  A    between atoms: C9_14  and  N2_15 
REMARK   10  A    between atoms: C9_14  and  C10_19 
REMARK   11  A    between atoms: C10_19  and  C11_20 
REMARK   12  A    between atoms: C12_21  and  C13_22 
REMARK       I    between atoms: C13_22  and  N3_24 
REMARK   13  A    between atoms: C17_28  and  C18_29 
REMARK   14  A    between atoms: C18_29  and  C20_31 
REMARK       I    between atoms: C20_31  and  N4_33 
REMARK       I    between atoms: C28_41  and  N5_43 
REMARK   15  A    between atoms: N5_43  and  C29_45 
REMARK   16  A    between atoms: C29_45  and  C30_46 
ROOT
HETATM    1  C9  UNL     1      20.039 -16.210  21.009  1.00  0.00     0.195 C 
ENDROOT
BRANCH   1   2
HETATM    2  C8  UNL     1      20.084 -15.400  22.245  1.00  0.00     0.136 C 
BRANCH   2   3
HETATM    3  C7  UNL     1      20.817 -16.052  23.383  1.00  0.00     0.224 C 
HETATM    4  N1  UNL     1      21.952 -15.404  23.871  1.00  0.00    -0.324 N 
ATOM      5  H1  UNL     1      22.159 -14.495  23.459  1.00  0.00     0.169 HD
HETATM    6  O2  UNL     1      20.409 -17.127  23.823  1.00  0.00    -0.273 OA
BRANCH   4   7
HETATM    7  C6  UNL     1      22.849 -15.849  24.862  1.00  0.00     0.109 C 
BRANCH   7   8
HETATM    8  C5  UNL     1      22.148 -16.191  26.179  1.00  0.00     0.174 C 
BRANCH   8   9
HETATM    9  C4  UNL     1      22.218 -14.946  27.049  1.00  0.00     0.042 C 
BRANCH   9  10
HETATM   10  C2  UNL     1      20.865 -14.250  27.087  1.00  0.00    -0.020 C 
HETATM   11  C1  UNL     1      20.952 -13.134  26.056  1.00  0.00     0.009 C 
HETATM   12  C3  UNL     1      19.783 -15.221  26.773  1.00  0.00     0.009 C 
ENDBRANCH   9  10
ENDBRANCH   8   9
BRANCH   8  13
HETATM   13  O1  UNL     1      23.082 -17.082  26.805  1.00  0.00    -0.389 OA
ATOM     14  H1  UNL     1      23.902 -16.879  26.371  1.00  0.00     0.210 HD
ENDBRANCH   8  13
ENDBRANCH   7   8
BRANCH   7  15
HETATM   15  C28 UNL     1      23.900 -16.781  24.534  1.00  0.00     0.267 C 
HETATM   16  O5  UNL     1      25.121 -16.479  24.781  1.00  0.00    -0.266 OA
HETATM   17  N5  UNL     1      23.663 -18.048  23.935  1.00  0.00    -0.337 N 
ATOM     18  H5  UNL     1      22.692 -18.241  23.690  1.00  0.00     0.164 HD
BRANCH  17  19
HETATM   19  C29 UNL     1      24.591 -19.090  23.626  1.00  0.00     0.121 A 
HETATM   20  C31 UNL     1      23.936 -20.500  23.779  1.00  0.00     0.045 A 
HETATM   21  C32 UNL     1      25.160 -20.106  24.495  1.00  0.00     0.045 A 
BRANCH  19  22
HETATM   22  C30 UNL     1      25.065 -18.995  22.177  1.00  0.00     0.202 C 
HETATM   23  O6  UNL     1      24.251 -18.683  21.294  1.00  0.00    -0.646 OA
HETATM   24  O7  UNL     1      26.377 -19.249  21.839  1.00  0.00    -0.646 OA
ENDBRANCH  19  22
ENDBRANCH  17  19
ENDBRANCH   7  15
ENDBRANCH   4   7
ENDBRANCH   2   3
ENDBRANCH   1   2
BRANCH   1  25
HETATM   25  N2  UNL     1      19.504 -17.524  21.127  1.00  0.00    -0.074 N 
ATOM     26  H23 UNL     1      19.753 -17.914  22.036  1.00  0.00     0.274 HD
ATOM     27  H22 UNL     1      18.489 -17.474  21.215  1.00  0.00     0.274 HD
ATOM     28  H21 UNL     1      19.752 -18.186  20.391  1.00  0.00     0.274 HD
ENDBRANCH   1  25
BRANCH   1  29
HETATM   29  C10 UNL     1      19.661 -15.541  19.720  1.00  0.00     0.060 C 
BRANCH  29  30
HETATM   30  C11 UNL     1      19.890 -14.088  19.835  1.00  0.00    -0.019 C 
HETATM   31  C12 UNL     1      19.677 -13.113  19.027  1.00  0.00     0.070 C 
BRANCH  31  32
HETATM   32  C13 UNL     1      19.117 -13.135  17.700  1.00  0.00     0.243 C 
HETATM   33  O3  UNL     1      19.888 -13.382  16.716  1.00  0.00    -0.268 OA
HETATM   34  N3  UNL     1      17.747 -12.912  17.446  1.00  0.00    -0.348 N 
HETATM   35  C14 UNL     1      17.118 -13.035  16.168  1.00  0.00     0.126 C 
HETATM   36  C27 UNL     1      16.787 -12.637  18.551  1.00  0.00     0.131 C 
HETATM   37  C15 UNL     1      15.851 -13.859  16.331  1.00  0.00     0.020 C 
HETATM   38  C16 UNL     1      15.838 -14.714  17.557  1.00  0.00     0.009 C 
HETATM   39  C17 UNL     1      16.315 -14.075  18.820  1.00  0.00     0.016 C 
BRANCH  39  40
HETATM   40  C18 UNL     1      15.830 -14.459  20.121  1.00  0.00     0.079 C 
HETATM   41  C19 UNL     1      16.290 -15.937  20.338  1.00  0.00     0.020 C 
BRANCH  40  42
HETATM   42  C20 UNL     1      14.396 -14.465  20.416  1.00  0.00     0.224 C 
HETATM   43  O4  UNL     1      13.800 -15.585  20.432  1.00  0.00    -0.273 OA
HETATM   44  N4  UNL     1      13.649 -13.316  20.672  1.00  0.00    -0.352 N 
HETATM   45  C21 UNL     1      14.083 -11.948  20.704  1.00  0.00     0.126 C 
HETATM   46  C26 UNL     1      12.197 -13.474  20.972  1.00  0.00     0.126 C 
HETATM   47  C22 UNL     1      13.699 -11.215  21.945  1.00  0.00     0.024 C 
HETATM   48  C23 UNL     1      12.670 -11.814  22.817  1.00  0.00    -0.015 C 
HETATM   49  C24 UNL     1      11.515 -10.877  23.148  1.00  0.00     0.010 C 
HETATM   50  C25 UNL     1      12.123 -13.141  22.454  1.00  0.00     0.024 C 
ENDBRANCH  40  42
ENDBRANCH  39  40
ENDBRANCH  31  32
ENDBRANCH  29  30
ENDBRANCH   1  29
TORSDOF 16
ENDMDL
MODEL 2
REMARK VINA RESULT: -8.513806227      3.117      9.266
REMARK  16 active torsions:
REMARK  status: ('A' for Active; 'I' for Inactive)
REMARK    1  A    between atoms: C2_2  and  C4_4 
REMARK    2  A    between atoms: C4_4  and  C5_5 
REMARK    3  A    between atoms: C5_5  and  O1_6 
REMARK    4  A    between atoms: C5_5  and  C6_8 
REMARK    5  A    between atoms: C6_8  and  N1_9 
REMARK    6  A    between atoms: C6_8  and  C28_41 
REMARK       I    between atoms: N1_9  and  C7_11 
REMARK    7  A    between atoms: C7_11  and  C8_13 
REMARK    8  A    between atoms: C8_13  and  C9_14 
REMARK    9  A    between atoms: C9_14  and  N2_15 
REMARK   10  A    between atoms: C9_14  and  C10_19 
REMARK   11  A    between atoms: C10_19  and  C11_20 
REMARK   12  A    between atoms: C12_21  and  C13_22 
REMARK       I    between atoms: C13_22  and  N3_24 
REMARK   13  A    between atoms: C17_28  and  C18_29 
REMARK   14  A    between atoms: C18_29  and  C20_31 
REMARK       I    between atoms: C20_31  and  N4_33 
REMARK       I    between atoms: C28_41  and  N5_43 
REMARK   15  A    between atoms: N5_43  and  C29_45 
REMARK   16  A    between atoms: C29_45  and  C30_46 
ROOT
HETATM    1  C9  UNL     1      13.054 -15.356  21.284  1.00  0.00     0.195 C 
ENDROOT
BRANCH   1   2
HETATM    2  C8  UNL     1      14.441 -15.058  21.699  1.00  0.00     0.136 C 
BRANCH   2   3
HETATM    3  C7  UNL     1      14.985 -13.770  21.150  1.00  0.00     0.224 C 
HETATM    4  N1  UNL     1      16.045 -13.854  20.246  1.00  0.00    -0.324 N 
ATOM      5  H1  UNL     1      16.326 -14.796  19.974  1.00  0.00     0.169 HD
HETATM    6  O2  UNL     1      14.498 -12.703  21.524  1.00  0.00    -0.273 OA
BRANCH   4   7
HETATM    7  C6  UNL     1      16.776 -12.801  19.662  1.00  0.00     0.109 C 
BRANCH   7   8
HETATM    8  C5  UNL     1      18.019 -12.427  20.472  1.00  0.00     0.174 C 
BRANCH   8   9
HETATM    9  C4  UNL     1      18.385 -13.648  21.301  1.00  0.00     0.042 C 
BRANCH   9  10
HETATM   10  C2  UNL     1      19.812 -14.083  21.001  1.00  0.00    -0.020 C 
HETATM   11  C1  UNL     1      19.685 -15.315  20.117  1.00  0.00     0.009 C 
HETATM   12  C3  UNL     1      20.551 -12.983  20.328  1.00  0.00     0.009 C 
ENDBRANCH   9  10
ENDBRANCH   8   9
BRANCH   8  13
HETATM   13  O1  UNL     1      17.492 -11.514  21.446  1.00  0.00    -0.389 OA
ATOM     14  H1  UNL     1      18.251 -11.297  21.975  1.00  0.00     0.210 HD
ENDBRANCH   8  13
ENDBRANCH   7   8
BRANCH   7  15
HETATM   15  C28 UNL     1      17.011 -12.773  18.239  1.00  0.00     0.267 C 
HETATM   16  O5  UNL     1      18.207 -12.873  17.788  1.00  0.00    -0.266 OA
HETATM   17  N5  UNL     1      15.973 -12.634  17.277  1.00  0.00    -0.337 N 
ATOM     18  H5  UNL     1      15.038 -12.493  17.661  1.00  0.00     0.164 HD
BRANCH  17  19
HETATM   19  C29 UNL     1      16.053 -12.664  15.851  1.00  0.00     0.121 A 
HETATM   20  C31 UNL     1      14.978 -13.620  15.241  1.00  0.00     0.045 A 
HETATM   21  C32 UNL     1      16.419 -13.760  14.970  1.00  0.00     0.045 A 
BRANCH  19  22
HETATM   22  C30 UNL     1      15.783 -11.284  15.254  1.00  0.00     0.202 C 
HETATM   23  O6  UNL     1      14.783 -10.650  15.625  1.00  0.00    -0.646 OA
HETATM   24  O7  UNL     1      16.631 -10.736  14.316  1.00  0.00    -0.646 OA
ENDBRANCH  19  22
ENDBRANCH  17  19
ENDBRANCH   7  15
ENDBRANCH   4   7
ENDBRANCH   2   3
ENDBRANCH   1   2
BRANCH   1  25
HETATM   25  N2  UNL     1      12.513 -14.552  20.241  1.00  0.00    -0.074 N 
ATOM     26  H23 UNL     1      11.735 -14.001  20.603  1.00  0.00     0.274 HD
ATOM     27  H22 UNL     1      13.173 -13.810  20.004  1.00  0.00     0.274 HD
ATOM     28  H21 UNL     1      12.223 -15.037  19.393  1.00  0.00     0.274 HD
ENDBRANCH   1  25
BRANCH   1  29
HETATM   29  C10 UNL     1      12.617 -16.789  21.199  1.00  0.00     0.060 C 
BRANCH  29  30
HETATM   30  C11 UNL     1      13.698 -17.597  20.601  1.00  0.00    -0.019 C 
HETATM   31  C12 UNL     1      14.350 -18.618  21.027  1.00  0.00     0.070 C 
BRANCH  31  32
HETATM   32  C13 UNL     1      14.219 -19.328  22.273  1.00  0.00     0.243 C 
HETATM   33  O3  UNL     1      13.433 -20.330  22.324  1.00  0.00    -0.268 OA
HETATM   34  N3  UNL     1      14.938 -18.974  23.434  1.00  0.00    -0.348 N 
HETATM   35  C14 UNL     1      14.936 -19.712  24.659  1.00  0.00     0.126 C 
HETATM   36  C27 UNL     1      15.889 -17.829  23.438  1.00  0.00     0.131 C 
HETATM   37  C15 UNL     1      16.373 -19.885  25.122  1.00  0.00     0.020 C 
HETATM   38  C16 UNL     1      17.384 -19.730  24.031  1.00  0.00     0.009 C 
HETATM   39  C17 UNL     1      17.180 -18.587  23.091  1.00  0.00     0.016 C 
BRANCH  39  40
HETATM   40  C18 UNL     1      18.269 -17.919  22.425  1.00  0.00     0.079 C 
HETATM   41  C19 UNL     1      18.592 -18.773  21.155  1.00  0.00     0.020 C 
BRANCH  40  42
HETATM   42  C20 UNL     1      19.560 -17.740  23.094  1.00  0.00     0.224 C 
HETATM   43  O4  UNL     1      20.535 -18.450  22.698  1.00  0.00    -0.273 OA
HETATM   44  N4  UNL     1      19.778 -16.843  24.138  1.00  0.00    -0.352 N 
HETATM   45  C21 UNL     1      18.848 -15.945  24.762  1.00  0.00     0.126 C 
HETATM   46  C26 UNL     1      21.149 -16.755  24.715  1.00  0.00     0.126 C 
HETATM   47  C22 UNL     1      19.320 -14.532  24.836  1.00  0.00     0.024 C 
HETATM   48  C23 UNL     1      20.751 -14.263  24.598  1.00  0.00    -0.015 C 
HETATM   49  C24 UNL     1      21.422 -13.453  25.700  1.00  0.00     0.010 C 
HETATM   50  C25 UNL     1      21.631 -15.396  24.231  1.00  0.00     0.024 C 
ENDBRANCH  40  42
ENDBRANCH  39  40
ENDBRANCH  31  32
ENDBRANCH  29  30
ENDBRANCH   1  29
TORSDOF 16
ENDMDL
MODEL 3
REMARK VINA RESULT: -8.502970602      2.568     10.515
REMARK  16 active torsions:
REMARK  status: ('A' for Active; 'I' for Inactive)
REMARK    1  A    between atoms: C2_2  and  C4_4 
REMARK    2  A    between atoms: C4_4  and  C5_5 
REMARK    3  A    between atoms: C5_5  and  O1_6 
REMARK    4  A    between atoms: C5_5  and  C6_8 
REMARK    5  A    between atoms: C6_8  and  N1_9 
REMARK    6  A    between atoms: C6_8  and  C28_41 
REMARK       I    between atoms: N1_9  and  C7_11 
REMARK    7  A    between atoms: C7_11  and  C8_13 
REMARK    8  A    between atoms: C8_13  and  C9_14 
REMARK    9  A    between atoms: C9_14  and  N2_15 
REMARK   10  A    between atoms: C9_14  and  C10_19 
REMARK   11  A    between atoms: C10_19  and  C11_20 
REMARK   12  A    between atoms: C12_21  and  C13_22 
REMARK       I    between atoms: C13_22  and  N3_24 
REMARK   13  A    between atoms: C17_28  and  C18_29 
REMARK   14  A    between atoms: C18_29  and  C20_31 
REMARK       I    between atoms: C20_31  and  N4_33 
REMARK       I    between atoms: C28_41  and  N5_43 
REMARK   15  A    between atoms: N5_43  and  C29_45 
REMARK   16  A    between atoms: C29_45  and  C30_46 
ROOT
HETATM    1  C9  UNL     1      20.206 -14.271  20.535  1.00  0.00     0.195 C 
ENDROOT
BRANCH   1   2
HETATM    2  C8  UNL     1      19.144 -14.885  19.710  1.00  0.00     0.136 C 
BRANCH   2   3
HETATM    3  C7  UNL     1      18.026 -13.948  19.349  1.00  0.00     0.224 C 
HETATM    4  N1  UNL     1      16.836 -14.059  20.071  1.00  0.00    -0.324 N 
ATOM      5  H1  UNL     1      16.842 -14.727  20.841  1.00  0.00     0.169 HD
HETATM    6  O2  UNL     1      18.189 -13.144  18.432  1.00  0.00    -0.273 OA
BRANCH   4   7
HETATM    7  C6  UNL     1      15.629 -13.363  19.869  1.00  0.00     0.109 C 
BRANCH   7   8
HETATM    8  C5  UNL     1      14.828 -13.904  18.682  1.00  0.00     0.174 C 
BRANCH   8   9
HETATM    9  C4  UNL     1      14.578 -12.729  17.750  1.00  0.00     0.042 C 
BRANCH   9  10
HETATM   10  C2  UNL     1      15.012 -13.076  16.333  1.00  0.00    -0.020 C 
HETATM   11  C1  UNL     1      15.998 -11.988  15.932  1.00  0.00     0.009 C 
HETATM   12  C3  UNL     1      15.627 -14.429  16.304  1.00  0.00     0.009 C 
ENDBRANCH   9  10
ENDBRANCH   8   9
BRANCH   8  13
HETATM   13  O1  UNL     1      13.538 -14.145  19.262  1.00  0.00    -0.389 OA
ATOM     14  H1  UNL     1      13.374 -15.058  19.058  1.00  0.00     0.210 HD
ENDBRANCH   8  13
ENDBRANCH   7   8
BRANCH   7  15
HETATM   15  C28 UNL     1      14.791 -13.009  20.988  1.00  0.00     0.267 C 
HETATM   16  O5  UNL     1      14.945 -13.604  22.114  1.00  0.00    -0.266 OA
HETATM   17  N5  UNL     1      13.773 -12.019  20.922  1.00  0.00    -0.337 N 
ATOM     18  H5  UNL     1      13.626 -11.604  20.002  1.00  0.00     0.164 HD
BRANCH  17  19
HETATM   19  C29 UNL     1      12.928 -11.520  21.961  1.00  0.00     0.121 A 
HETATM   20  C31 UNL     1      12.222 -10.194  21.534  1.00  0.00     0.045 A 
HETATM   21  C32 UNL     1      13.049 -10.305  22.746  1.00  0.00     0.045 A 
BRANCH  19  22
HETATM   22  C30 UNL     1      11.812 -12.512  22.286  1.00  0.00     0.202 C 
HETATM   23  O6  UNL     1      11.546 -13.411  21.473  1.00  0.00    -0.646 OA
HETATM   24  O7  UNL     1      11.100 -12.422  23.463  1.00  0.00    -0.646 OA
ENDBRANCH  19  22
ENDBRANCH  17  19
ENDBRANCH   7  15
ENDBRANCH   4   7
ENDBRANCH   2   3
ENDBRANCH   1   2
BRANCH   1  25
HETATM   25  N2  UNL     1      20.468 -12.890  20.312  1.00  0.00    -0.074 N 
ATOM     26  H23 UNL     1      21.443 -12.767  20.038  1.00  0.00     0.274 HD
ATOM     27  H22 UNL     1      19.994 -12.584  19.462  1.00  0.00     0.274 HD
ATOM     28  H21 UNL     1      20.245 -12.253  21.077  1.00  0.00     0.274 HD
ENDBRANCH   1  25
BRANCH   1  29
HETATM   29  C10 UNL     1      20.313 -14.658  21.981  1.00  0.00     0.060 C 
BRANCH  29  30
HETATM   30  C11 UNL     1      19.315 -13.905  22.765  1.00  0.00    -0.019 C 
HETATM   31  C12 UNL     1      18.239 -14.265  23.367  1.00  0.00     0.070 C 
BRANCH  31  32
HETATM   32  C13 UNL     1      17.649 -15.574  23.475  1.00  0.00     0.243 C 
HETATM   33  O3  UNL     1      17.138 -16.100  22.433  1.00  0.00    -0.268 OA
HETATM   34  N3  UNL     1      17.630 -16.306  24.680  1.00  0.00    -0.348 N 
HETATM   35  C14 UNL     1      17.163 -17.652  24.817  1.00  0.00     0.126 C 
HETATM   36  C27 UNL     1      18.227 -15.761  25.930  1.00  0.00     0.131 C 
HETATM   37  C15 UNL     1      18.194 -18.442  25.606  1.00  0.00     0.020 C 
HETATM   38  C16 UNL     1      19.561 -17.837  25.594  1.00  0.00     0.009 C 
HETATM   39  C17 UNL     1      19.637 -16.359  25.802  1.00  0.00     0.016 C 
BRANCH  39  40
HETATM   40  C18 UNL     1      20.769 -15.714  26.417  1.00  0.00     0.079 C 
HETATM   41  C19 UNL     1      20.184 -14.586  27.329  1.00  0.00     0.020 C 
BRANCH  40  42
HETATM   42  C20 UNL     1      21.787 -15.048  25.603  1.00  0.00     0.224 C 
HETATM   43  O4  UNL     1      21.949 -13.800  25.763  1.00  0.00    -0.273 OA
HETATM   44  N4  UNL     1      22.582 -15.701  24.662  1.00  0.00    -0.352 N 
HETATM   45  C21 UNL     1      22.586 -17.089  24.295  1.00  0.00     0.126 C 
HETATM   46  C26 UNL     1      23.590 -14.898  23.914  1.00  0.00     0.126 C 
HETATM   47  C22 UNL     1      23.933 -17.727  24.338  1.00  0.00     0.024 C 
HETATM   48  C23 UNL     1      25.117 -16.850  24.406  1.00  0.00    -0.015 C 
HETATM   49  C24 UNL     1      26.162 -17.133  23.332  1.00  0.00     0.010 C 
HETATM   50  C25 UNL     1      24.907 -15.386  24.496  1.00  0.00     0.024 C 
ENDBRANCH  40  42
ENDBRANCH  39  40
ENDBRANCH  31  32
ENDBRANCH  29  30
ENDBRANCH   1  29
TORSDOF 16
ENDMDL
MODEL 4
REMARK VINA RESULT: -8.478990862      3.671      9.639
REMARK  16 active torsions:
REMARK  status: ('A' for Active; 'I' for Inactive)
REMARK    1  A    between atoms: C2_2  and  C4_4 
REMARK    2  A    between atoms: C4_4  and  C5_5 
REMARK    3  A    between atoms: C5_5  and  O1_6 
REMARK    4  A    between atoms: C5_5  and  C6_8 
REMARK    5  A    between atoms: C6_8  and  N1_9 
REMARK    6  A    between atoms: C6_8  and  C28_41 
REMARK       I    between atoms: N1_9  and  C7_11 
REMARK    7  A    between atoms: C7_11  and  C8_13 
REMARK    8  A    between atoms: C8_13  and  C9_14 
REMARK    9  A    between atoms: C9_14  and  N2_15 
REMARK   10  A    between atoms: C9_14  and  C10_19 
REMARK   11  A    between atoms: C10_19  and  C11_20 
REMARK   12  A    between atoms: C12_21  and  C13_22 
REMARK       I    between atoms: C13_22  and  N3_24 
REMARK   13  A    between atoms: C17_28  and  C18_29 
REMARK   14  A    between atoms: C18_29  and  C20_31 
REMARK       I    between atoms: C20_31  and  N4_33 
REMARK       I    between atoms: C28_41  and  N5_43 
REMARK   15  A    between atoms: N5_43  and  C29_45 
REMARK   16  A    between atoms: C29_45  and  C30_46 
ROOT
HETATM    1  C9  UNL     1      13.902 -14.215  21.180  1.00  0.00     0.195 C 
ENDROOT
BRANCH   1   2
HETATM    2  C8  UNL     1      13.626 -13.317  20.038  1.00  0.00     0.136 C 
BRANCH   2   3
HETATM    3  C7  UNL     1      14.841 -12.620  19.495  1.00  0.00     0.224 C 
HETATM    4  N1  UNL     1      15.327 -13.047  18.259  1.00  0.00    -0.324 N 
ATOM      5  H1  UNL     1      14.774 -13.760  17.783  1.00  0.00     0.169 HD
HETATM    6  O2  UNL     1      15.368 -11.726  20.157  1.00  0.00    -0.273 OA
BRANCH   4   7
HETATM    7  C6  UNL     1      16.487 -12.617  17.585  1.00  0.00     0.109 C 
BRANCH   7   8
HETATM    8  C5  UNL     1      17.672 -13.565  17.787  1.00  0.00     0.174 C 
BRANCH   8   9
HETATM    9  C4  UNL     1      18.340 -13.159  19.090  1.00  0.00     0.042 C 
BRANCH   9  10
HETATM   10  C2  UNL     1      19.732 -13.766  19.183  1.00  0.00    -0.020 C 
HETATM   11  C1  UNL     1      20.508 -12.861  20.129  1.00  0.00     0.009 C 
HETATM   12  C3  UNL     1      19.648 -15.163  19.685  1.00  0.00     0.009 C 
ENDBRANCH   9  10
ENDBRANCH   8   9
BRANCH   8  13
HETATM   13  O1  UNL     1      18.600 -13.118  16.788  1.00  0.00    -0.389 OA
ATOM     14  H1  UNL     1      18.037 -12.750  16.117  1.00  0.00     0.210 HD
ENDBRANCH   8  13
ENDBRANCH   7   8
BRANCH   7  15
HETATM   15  C28 UNL     1      16.405 -12.111  16.236  1.00  0.00     0.267 C 
HETATM   16  O5  UNL     1      16.671 -10.879  16.000  1.00  0.00    -0.266 OA
HETATM   17  N5  UNL     1      16.033 -12.911  15.121  1.00  0.00    -0.337 N 
ATOM     18  H5  UNL     1      15.765 -13.870  15.342  1.00  0.00     0.164 HD
BRANCH  17  19
HETATM   19  C29 UNL     1      15.983 -12.563  13.736  1.00  0.00     0.121 A 
HETATM   20  C31 UNL     1      16.399 -13.766  12.831  1.00  0.00     0.045 A 
HETATM   21  C32 UNL     1      17.064 -12.454  12.772  1.00  0.00     0.045 A 
BRANCH  19  22
HETATM   22  C30 UNL     1      14.564 -12.184  13.315  1.00  0.00     0.202 C 
HETATM   23  O6  UNL     1      13.624 -12.401  14.095  1.00  0.00    -0.646 OA
HETATM   24  O7  UNL     1      14.316 -11.607  12.088  1.00  0.00    -0.646 OA
ENDBRANCH  19  22
ENDBRANCH  17  19
ENDBRANCH   7  15
ENDBRANCH   4   7
ENDBRANCH   2   3
ENDBRANCH   1   2
BRANCH   1  25
HETATM   25  N2  UNL     1      12.953 -14.207  22.241  1.00  0.00    -0.074 N 
ATOM     26  H23 UNL     1      13.215 -13.501  22.929  1.00  0.00     0.274 HD
ATOM     27  H22 UNL     1      12.068 -13.825  21.907  1.00  0.00     0.274 HD
ATOM     28  H21 UNL     1      12.785 -15.097  22.711  1.00  0.00     0.274 HD
ENDBRANCH   1  25
BRANCH   1  29
HETATM   29  C10 UNL     1      14.459 -15.582  20.907  1.00  0.00     0.060 C 
BRANCH  29  30
HETATM   30  C11 UNL     1      13.659 -16.590  21.629  1.00  0.00    -0.019 C 
HETATM   31  C12 UNL     1      13.485 -17.849  21.444  1.00  0.00     0.070 C 
BRANCH  31  32
HETATM   32  C13 UNL     1      14.046 -18.707  20.432  1.00  0.00     0.243 C 
HETATM   33  O3  UNL     1      13.665 -18.559  19.226  1.00  0.00    -0.268 OA
HETATM   34  N3  UNL     1      15.014 -19.693  20.718  1.00  0.00    -0.348 N 
HETATM   35  C14 UNL     1      15.688 -20.492  19.741  1.00  0.00     0.126 C 
HETATM   36  C27 UNL     1      15.519 -19.907  22.102  1.00  0.00     0.131 C 
HETATM   37  C15 UNL     1      17.176 -20.474  20.046  1.00  0.00     0.020 C 
HETATM   38  C16 UNL     1      17.609 -19.315  20.885  1.00  0.00     0.009 C 
HETATM   39  C17 UNL     1      16.744 -18.980  22.056  1.00  0.00     0.016 C 
BRANCH  39  40
HETATM   40  C18 UNL     1      17.257 -18.377  23.260  1.00  0.00     0.079 C 
HETATM   41  C19 UNL     1      16.024 -18.154  24.194  1.00  0.00     0.020 C 
BRANCH  40  42
HETATM   42  C20 UNL     1      17.937 -17.081  23.219  1.00  0.00     0.224 C 
HETATM   43  O4  UNL     1      17.534 -16.228  22.371  1.00  0.00    -0.273 OA
HETATM   44  N4  UNL     1      19.001 -16.734  24.051  1.00  0.00    -0.352 N 
HETATM   45  C21 UNL     1      19.637 -17.516  25.073  1.00  0.00     0.126 C 
HETATM   46  C26 UNL     1      19.589 -15.371  23.909  1.00  0.00     0.126 C 
HETATM   47  C22 UNL     1      19.742 -16.826  26.391  1.00  0.00     0.024 C 
HETATM   48  C23 UNL     1      19.518 -15.368  26.434  1.00  0.00    -0.015 C 
HETATM   49  C24 UNL     1      20.641 -14.587  27.106  1.00  0.00     0.010 C 
HETATM   50  C25 UNL     1      19.134 -14.676  25.183  1.00  0.00     0.024 C 
ENDBRANCH  40  42
ENDBRANCH  39  40
ENDBRANCH  31  32
ENDBRANCH  29  30
ENDBRANCH   1  29
TORSDOF 16
ENDMDL
MODEL 5
REMARK VINA RESULT: -8.477429244      4.203     11.686
REMARK  16 active torsions:
REMARK  status: ('A' for Active; 'I' for Inactive)
REMARK    1  A    between atoms: C2_2  and  C4_4 
REMARK    2  A    between atoms: C4_4  and  C5_5 
REMARK    3  A    between atoms: C5_5  and  O1_6 
REMARK    4  A    between atoms: C5_5  and  C6_8 
REMARK    5  A    between atoms: C6_8  and  N1_9 
REMARK    6  A    between atoms: C6_8  and  C28_41 
REMARK       I    between atoms: N1_9  and  C7_11 
REMARK    7  A    between atoms: C7_11  and  C8_13 
REMARK    8  A    between atoms: C8_13  and  C9_14 
REMARK    9  A    between atoms: C9_14  and  N2_15 
REMARK   10  A    between atoms: C9_14  and  C10_19 
REMARK   11  A    between atoms: C10_19  and  C11_20 
REMARK   12  A    between atoms: C12_21  and  C13_22 
REMARK       I    between atoms: C13_22  and  N3_24 
REMARK   13  A    between atoms: C17_28  and  C18_29 
REMARK   14  A    between atoms: C18_29  and  C20_31 
REMARK       I    between atoms: C20_31  and  N4_33 
REMARK       I    between atoms: C28_41  and  N5_43 
REMARK   15  A    between atoms: N5_43  and  C29_45 
REMARK   16  A    between atoms: C29_45  and  C30_46 
ROOT
HETATM    1  C9  UNL     1      16.063 -13.047  16.732  1.00  0.00     0.195 C 
ENDROOT
BRANCH   1   2
HETATM    2  C8  UNL     1      14.844 -12.347  16.274  1.00  0.00     0.136 C 
BRANCH   2   3
HETATM    3  C7  UNL     1      14.815 -12.063  14.799  1.00  0.00     0.224 C 
HETATM    4  N1  UNL     1      14.160 -12.985  13.981  1.00  0.00    -0.324 N 
ATOM      5  H1  UNL     1      13.689 -13.752  14.460  1.00  0.00     0.169 HD
HETATM    6  O2  UNL     1      15.377 -11.056  14.369  1.00  0.00    -0.273 OA
BRANCH   4   7
HETATM    7  C6  UNL     1      14.068 -12.989  12.575  1.00  0.00     0.109 C 
BRANCH   7   8
HETATM    8  C5  UNL     1      13.257 -11.809  12.035  1.00  0.00     0.174 C 
BRANCH   8   9
HETATM    9  C4  UNL     1      12.284 -12.377  11.015  1.00  0.00     0.042 C 
BRANCH   9  10
HETATM   10  C2  UNL     1      10.970 -11.609  11.052  1.00  0.00    -0.020 C 
HETATM   11  C1  UNL     1      10.504 -11.531   9.605  1.00  0.00     0.009 C 
HETATM   12  C3  UNL     1       9.990 -12.315  11.920  1.00  0.00     0.009 C 
ENDBRANCH   9  10
ENDBRANCH   8   9
BRANCH   8  13
HETATM   13  O1  UNL     1      14.218 -11.118  11.224  1.00  0.00    -0.389 OA
ATOM     14  H1  UNL     1      14.548 -11.798  10.649  1.00  0.00     0.210 HD
ENDBRANCH   8  13
ENDBRANCH   7   8
BRANCH   7  15
HETATM   15  C28 UNL     1      15.226 -13.284  11.766  1.00  0.00     0.267 C 
HETATM   16  O5  UNL     1      15.150 -14.169  10.841  1.00  0.00    -0.266 OA
HETATM   17  N5  UNL     1      16.483 -12.641  11.935  1.00  0.00    -0.337 N 
ATOM     18  H5  UNL     1      16.538 -11.988  12.717  1.00  0.00     0.164 HD
BRANCH  17  19
HETATM   19  C29 UNL     1      17.679 -12.780  11.167  1.00  0.00     0.121 A 
HETATM   20  C31 UNL     1      18.321 -11.390  10.856  1.00  0.00     0.045 A 
HETATM   21  C32 UNL     1      17.956 -12.355   9.806  1.00  0.00     0.045 A 
BRANCH  19  22
HETATM   22  C30 UNL     1      18.736 -13.576  11.931  1.00  0.00     0.202 C 
HETATM   23  O6  UNL     1      18.614 -13.720  13.157  1.00  0.00    -0.646 OA
HETATM   24  O7  UNL     1      19.816 -14.132  11.281  1.00  0.00    -0.646 OA
ENDBRANCH  19  22
ENDBRANCH  17  19
ENDBRANCH   7  15
ENDBRANCH   4   7
ENDBRANCH   2   3
ENDBRANCH   1   2
BRANCH   1  25
HETATM   25  N2  UNL     1      17.085 -13.249  15.762  1.00  0.00    -0.074 N 
ATOM     26  H23 UNL     1      17.746 -13.948  16.102  1.00  0.00     0.274 HD
ATOM     27  H22 UNL     1      16.698 -13.735  14.953  1.00  0.00     0.274 HD
ATOM     28  H21 UNL     1      17.593 -12.421  15.453  1.00  0.00     0.274 HD
ENDBRANCH   1  25
BRANCH   1  29
HETATM   29  C10 UNL     1      16.609 -12.732  18.095  1.00  0.00     0.060 C 
BRANCH  29  30
HETATM   30  C11 UNL     1      15.517 -12.793  19.086  1.00  0.00    -0.019 C 
HETATM   31  C12 UNL     1      14.939 -13.776  19.674  1.00  0.00     0.070 C 
BRANCH  31  32
HETATM   32  C13 UNL     1      15.191 -15.189  19.551  1.00  0.00     0.243 C 
HETATM   33  O3  UNL     1      14.809 -15.787  18.493  1.00  0.00    -0.268 OA
HETATM   34  N3  UNL     1      15.860 -15.935  20.544  1.00  0.00    -0.348 N 
HETATM   35  C14 UNL     1      16.239 -17.310  20.424  1.00  0.00     0.126 C 
HETATM   36  C27 UNL     1      16.352 -15.297  21.795  1.00  0.00     0.131 C 
HETATM   37  C15 UNL     1      17.687 -17.451  20.861  1.00  0.00     0.020 C 
HETATM   38  C16 UNL     1      18.464 -16.174  20.810  1.00  0.00     0.009 C 
HETATM   39  C17 UNL     1      17.782 -14.958  21.345  1.00  0.00     0.016 C 
BRANCH  39  40
HETATM   40  C18 UNL     1      18.499 -13.858  21.938  1.00  0.00     0.079 C 
HETATM   41  C19 UNL     1      18.589 -12.752  20.836  1.00  0.00     0.020 C 
BRANCH  40  42
HETATM   42  C20 UNL     1      19.874 -14.027  22.412  1.00  0.00     0.224 C 
HETATM   43  O4  UNL     1      20.811 -13.591  21.676  1.00  0.00    -0.273 OA
HETATM   44  N4  UNL     1      20.212 -14.640  23.618  1.00  0.00    -0.352 N 
HETATM   45  C21 UNL     1      19.347 -15.213  24.609  1.00  0.00     0.126 C 
HETATM   46  C26 UNL     1      21.655 -14.730  23.980  1.00  0.00     0.126 C 
HETATM   47  C22 UNL     1      19.594 -14.717  25.994  1.00  0.00     0.024 C 
HETATM   48  C23 UNL     1      20.853 -13.995  26.261  1.00  0.00    -0.015 C 
HETATM   49  C24 UNL     1      21.652 -14.554  27.432  1.00  0.00     0.010 C 
HETATM   50  C25 UNL     1      21.774 -13.741  25.129  1.00  0.00     0.024 C 
ENDBRANCH  40  42
ENDBRANCH  39  40
ENDBRANCH  31  32
ENDBRANCH  29  30
ENDBRANCH   1  29
TORSDOF 16
ENDMDL
