MODEL 1
REMARK VINA RESULT: -8.791132243      0.000      0.000
REMARK  13 active torsions:
REMARK  status: ('A' for Active; 'I' for Inactive)
REMARK    1  A    between atoms: C2_2  and  N1_3 
REMARK    2  A    between atoms: C2_2  and  C28_41 
REMARK       I    between atoms: N1_3  and  C3_5 
REMARK    3  A    between atoms: C3_5  and  C4_7 
REMARK    4  A    between atoms: C4_7  and  N2_8 
REMARK    5  A    between atoms: C4_7  and  C22_35 
REMARK    6  A    between atoms: N2_8  and  C5_10 
REMARK    7  A    between atoms: C5_10  and  C6_11 
REMARK    8  A    between atoms: C5_10  and  C19_32 
REMARK       I    between atoms: C6_11  and  N3_13 
REMARK       I    between atoms: N3_13  and  C7_15 
REMARK    9  A    between atoms: C7_15  and  C8_17 
REMARK   10  A    between atoms: C8_17  and  N4_18 
REMARK   11  A    between atoms: C8_17  and  C16_29 
REMARK       I    between atoms: N4_18  and  C9_20 
REMARK   12  A    between atoms: C9_20  and  C10_22 
REMARK   13  A    between atoms: C10_22  and  C11_23 
REMARK       I    between atoms: C28_41  and  N5_43 
ROOT
HETATM    1  C5  UNL     1      15.469 -13.444  13.494  1.00  0.00     0.174 C 
ENDROOT
BRANCH   1   2
HETATM    2  N2  UNL     1      15.721 -13.281  12.157  1.00  0.00    -0.396 N 
ATOM      3  H2  UNL     1      16.456 -13.845  11.731  1.00  0.00     0.154 HD
BRANCH   2   4
HETATM    4  C4  UNL     1      15.004 -12.361  11.330  1.00  0.00     0.174 C 
BRANCH   4   5
HETATM    5  C3  UNL     1      13.823 -12.897  10.698  1.00  0.00     0.241 C 
HETATM    6  N1  UNL     1      13.023 -12.340   9.691  1.00  0.00    -0.346 N 
ATOM      7  H1  UNL     1      13.277 -11.431   9.302  1.00  0.00     0.163 HD
HETATM    8  O1  UNL     1      13.433 -14.051  11.122  1.00  0.00    -0.271 OA
BRANCH   6   9
HETATM    9  C2  UNL     1      11.833 -13.022   9.181  1.00  0.00     0.172 C 
HETATM   10  C1  UNL     1      12.235 -13.669   7.833  1.00  0.00     0.042 C 
BRANCH   9  11
HETATM   11  C28 UNL     1      10.769 -12.073   8.857  1.00  0.00     0.242 C 
HETATM   12  O6  UNL     1      10.836 -11.341   7.807  1.00  0.00    -0.271 OA
HETATM   13  N5  UNL     1       9.632 -11.913   9.660  1.00  0.00    -0.346 N 
HETATM   14  C29 UNL     1       8.535 -11.011   9.295  1.00  0.00     0.152 C 
HETATM   15  C32 UNL     1       9.490 -12.612  10.916  1.00  0.00     0.152 C 
HETATM   16  C30 UNL     1       7.451 -11.205  10.337  1.00  0.00     0.187 C 
HETATM   17  O7  UNL     1       7.879 -10.958  11.618  1.00  0.00    -0.388 OA
HETATM   18  C31 UNL     1       9.090 -11.542  11.936  1.00  0.00     0.187 C 
ENDBRANCH   9  11
ENDBRANCH   6   9
ENDBRANCH   4   5
BRANCH   4  19
HETATM   19  C22 UNL     1      16.025 -11.901  10.258  1.00  0.00     0.017 C 
HETATM   20  C23 UNL     1      16.331 -13.071   9.352  1.00  0.00     0.007 C 
HETATM   21  C24 UNL     1      17.802 -13.216   9.155  1.00  0.00     0.000 C 
HETATM   22  C25 UNL     1      18.455 -13.453  10.509  1.00  0.00     0.000 C 
HETATM   23  C26 UNL     1      18.248 -12.253  11.388  1.00  0.00     0.000 C 
HETATM   24  C27 UNL     1      17.254 -11.277  10.761  1.00  0.00     0.007 C 
ENDBRANCH   4  19
ENDBRANCH   2   4
ENDBRANCH   1   2
BRANCH   1  25
HETATM   25  C6  UNL     1      16.162 -12.570  14.467  1.00  0.00     0.247 C 
HETATM   26  O2  UNL     1      16.421 -11.395  14.182  1.00  0.00    -0.271 OA
HETATM   27  N3  UNL     1      16.541 -13.063  15.762  1.00  0.00    -0.291 N 
HETATM   28  C7  UNL     1      17.117 -12.251  16.763  1.00  0.00     0.271 C 
ATOM     29  H3  UNL     1      16.385 -14.050  15.969  1.00  0.00     0.172 HD
HETATM   30  O3  UNL     1      17.280 -11.030  16.470  1.00  0.00    -0.266 OA
BRANCH  28  31
HETATM   31  C8  UNL     1      17.497 -12.791  18.051  1.00  0.00     0.084 C 
BRANCH  31  32
HETATM   32  N4  UNL     1      16.414 -13.239  18.898  1.00  0.00    -0.326 N 
HETATM   33  C9  UNL     1      15.962 -12.573  20.047  1.00  0.00     0.222 C 
HETATM   34  O4  UNL     1      16.504 -11.511  20.392  1.00  0.00    -0.273 OA
ATOM     35  H4  UNL     1      15.942 -14.105  18.640  1.00  0.00     0.168 HD
BRANCH  33  36
HETATM   36  C10 UNL     1      14.859 -13.128  20.836  1.00  0.00     0.108 C 
BRANCH  36  37
HETATM   37  C11 UNL     1      14.040 -12.167  21.613  1.00  0.00    -0.002 C 
HETATM   38  C12 UNL     1      13.039 -13.011  22.420  1.00  0.00     0.031 C 
HETATM   39  C13 UNL     1      11.622 -12.687  22.032  1.00  0.00     0.168 C 
HETATM   40  O5  UNL     1      11.370 -11.370  22.346  1.00  0.00    -0.391 OA
HETATM   41  C14 UNL     1      12.143 -10.542  21.571  1.00  0.00     0.168 C 
HETATM   42  C15 UNL     1      13.201 -11.262  20.755  1.00  0.00     0.031 C 
ENDBRANCH  36  37
ENDBRANCH  33  36
ENDBRANCH  31  32
BRANCH  31  43
HETATM   43  C16 UNL     1      18.663 -13.700  17.984  1.00  0.00     0.033 C 
HETATM   44  C17 UNL     1      18.978 -14.525  19.176  1.00  0.00     0.016 C 
HETATM   45  C18 UNL     1      19.911 -12.990  17.433  1.00  0.00     0.016 C 
ENDBRANCH  31  43
ENDBRANCH  28  31
ENDBRANCH   1  25
BRANCH   1  46
HETATM   46  C19 UNL     1      15.962 -14.876  13.868  1.00  0.00     0.009 C 
HETATM   47  C20 UNL     1      14.808 -15.731  14.333  1.00  0.00     0.012 C 
HETATM   48  C21 UNL     1      16.763 -15.490  12.766  1.00  0.00     0.012 C 
ENDBRANCH   1  46
TORSDOF 13
ENDMDL
MODEL 2
REMARK VINA RESULT: -8.788368316      6.382     12.657
REMARK  13 active torsions:
REMARK  status: ('A' for Active; 'I' for Inactive)
REMARK    1  A    between atoms: C2_2  and  N1_3 
REMARK    2  A    between atoms: C2_2  and  C28_41 
REMARK       I    between atoms: N1_3  and  C3_5 
REMARK    3  A    between atoms: C3_5  and  C4_7 
REMARK    4  A    between atoms: C4_7  and  N2_8 
REMARK    5  A    between atoms: C4_7  and  C22_35 
REMARK    6  A    between atoms: N2_8  and  C5_10 
REMARK    7  A    between atoms: C5_10  and  C6_11 
REMARK    8  A    between atoms: C5_10  and  C19_32 
REMARK       I    between atoms: C6_11  and  N3_13 
REMARK       I    between atoms: N3_13  and  C7_15 
REMARK    9  A    between atoms: C7_15  and  C8_17 
REMARK   10  A    between atoms: C8_17  and  N4_18 
REMARK   11  A    between atoms: C8_17  and  C16_29 
REMARK       I    between atoms: N4_18  and  C9_20 
REMARK   12  A    between atoms: C9_20  and  C10_22 
REMARK   13  A    between atoms: C10_22  and  C11_23 
REMARK       I    between atoms: C28_41  and  N5_43 
ROOT
HETATM    1  C5  UNL     1      18.341 -16.708  21.691  1.00  0.00     0.174 C 
ENDROOT
BRANCH   1   2
HETATM    2  N2  UNL     1      18.626 -15.427  22.087  1.00  0.00    -0.396 N 
ATOM      3  H2  UNL     1      17.877 -14.869  22.497  1.00  0.00     0.154 HD
BRANCH   2   4
HETATM    4  C4  UNL     1      19.920 -14.834  21.951  1.00  0.00     0.174 C 
BRANCH   4   5
HETATM    5  C3  UNL     1      20.691 -14.762  23.169  1.00  0.00     0.241 C 
HETATM    6  N1  UNL     1      21.967 -15.272  23.444  1.00  0.00    -0.346 N 
ATOM      7  H1  UNL     1      22.476 -15.761  22.706  1.00  0.00     0.163 HD
HETATM    8  O1  UNL     1      20.129 -14.152  24.156  1.00  0.00    -0.271 OA
BRANCH   6   9
HETATM    9  C2  UNL     1      22.592 -15.126  24.760  1.00  0.00     0.172 C 
HETATM   10  C1  UNL     1      23.842 -14.235  24.561  1.00  0.00     0.042 C 
BRANCH   9  11
HETATM   11  C28 UNL     1      23.099 -16.404  25.257  1.00  0.00     0.242 C 
HETATM   12  O6  UNL     1      24.180 -16.912  24.789  1.00  0.00    -0.271 OA
HETATM   13  N5  UNL     1      22.447 -17.136  26.257  1.00  0.00    -0.346 N 
HETATM   14  C29 UNL     1      22.996 -18.382  26.802  1.00  0.00     0.152 C 
HETATM   15  C32 UNL     1      21.174 -16.714  26.793  1.00  0.00     0.152 C 
HETATM   16  C30 UNL     1      22.077 -18.801  27.933  1.00  0.00     0.187 C 
HETATM   17  O7  UNL     1      20.774 -18.974  27.538  1.00  0.00    -0.388 OA
HETATM   18  C31 UNL     1      20.279 -17.956  26.746  1.00  0.00     0.187 C 
ENDBRANCH   9  11
ENDBRANCH   6   9
ENDBRANCH   4   5
BRANCH   4  19
HETATM   19  C22 UNL     1      19.656 -13.409  21.399  1.00  0.00     0.017 C 
HETATM   20  C23 UNL     1      18.166 -13.225  21.237  1.00  0.00     0.007 C 
HETATM   21  C24 UNL     1      17.848 -12.647  19.899  1.00  0.00     0.000 C 
HETATM   22  C25 UNL     1      18.351 -13.598  18.824  1.00  0.00     0.000 C 
HETATM   23  C26 UNL     1      19.846 -13.711  18.906  1.00  0.00     0.000 C 
HETATM   24  C27 UNL     1      20.379 -13.047  20.175  1.00  0.00     0.007 C 
ENDBRANCH   4  19
ENDBRANCH   2   4
ENDBRANCH   1   2
BRANCH   1  25
HETATM   25  C6  UNL     1      17.077 -16.972  20.970  1.00  0.00     0.247 C 
HETATM   26  O2  UNL     1      16.526 -18.076  21.051  1.00  0.00    -0.271 OA
HETATM   27  N3  UNL     1      16.460 -15.953  20.166  1.00  0.00    -0.291 N 
HETATM   28  C7  UNL     1      15.209 -16.116  19.534  1.00  0.00     0.271 C 
ATOM     29  H3  UNL     1      16.950 -15.066  20.048  1.00  0.00     0.172 HD
HETATM   30  O3  UNL     1      14.627 -17.225  19.718  1.00  0.00    -0.266 OA
BRANCH  28  31
HETATM   31  C8  UNL     1      14.628 -15.067  18.722  1.00  0.00     0.084 C 
BRANCH  31  32
HETATM   32  N4  UNL     1      14.459 -13.784  19.365  1.00  0.00    -0.326 N 
HETATM   33  C9  UNL     1      13.290 -13.352  20.009  1.00  0.00     0.222 C 
HETATM   34  O4  UNL     1      12.304 -14.106  20.057  1.00  0.00    -0.273 OA
ATOM     35  H4  UNL     1      15.252 -13.142  19.349  1.00  0.00     0.168 HD
BRANCH  33  36
HETATM   36  C10 UNL     1      13.232 -12.021  20.619  1.00  0.00     0.108 C 
BRANCH  36  37
HETATM   37  C11 UNL     1      12.117 -11.765  21.564  1.00  0.00    -0.002 C 
HETATM   38  C12 UNL     1      12.200 -10.273  21.929  1.00  0.00     0.031 C 
HETATM   39  C13 UNL     1      12.440 -10.090  23.402  1.00  0.00     0.168 C 
HETATM   40  O5  UNL     1      11.365 -10.606  24.091  1.00  0.00    -0.391 OA
HETATM   41  C14 UNL     1      11.295 -11.964  23.913  1.00  0.00     0.168 C 
HETATM   42  C15 UNL     1      12.250 -12.504  22.864  1.00  0.00     0.031 C 
ENDBRANCH  36  37
ENDBRANCH  33  36
ENDBRANCH  31  32
BRANCH  31  43
HETATM   43  C16 UNL     1      15.177 -15.018  17.348  1.00  0.00     0.033 C 
HETATM   44  C17 UNL     1      15.245 -13.703  16.668  1.00  0.00     0.016 C 
HETATM   45  C18 UNL     1      14.559 -16.100  16.446  1.00  0.00     0.016 C 
ENDBRANCH  31  43
ENDBRANCH  28  31
ENDBRANCH   1  25
BRANCH   1  46
HETATM   46  C19 UNL     1      18.207 -17.555  22.994  1.00  0.00     0.009 C 
HETATM   47  C20 UNL     1      19.494 -18.286  23.289  1.00  0.00     0.012 C 
HETATM   48  C21 UNL     1      17.703 -16.734  24.137  1.00  0.00     0.012 C 
ENDBRANCH   1  46
TORSDOF 13
ENDMDL
MODEL 3
REMARK VINA RESULT: -8.584702177      7.375     13.311
REMARK  13 active torsions:
REMARK  status: ('A' for Active; 'I' for Inactive)
REMARK    1  A    between atoms: C2_2  and  N1_3 
REMARK    2  A    between atoms: C2_2  and  C28_41 
REMARK       I    between atoms: N1_3  and  C3_5 
REMARK    3  A    between atoms: C3_5  and  C4_7 
REMARK    4  A    between atoms: C4_7  and  N2_8 
REMARK    5  A    between atoms: C4_7  and  C22_35 
REMARK    6  A    between atoms: N2_8  and  C5_10 
REMARK    7  A    between atoms: C5_10  and  C6_11 
REMARK    8  A    between atoms: C5_10  and  C19_32 
REMARK       I    between atoms: C6_11  and  N3_13 
REMARK       I    between atoms: N3_13  and  C7_15 
REMARK    9  A    between atoms: C7_15  and  C8_17 
REMARK   10  A    between atoms: C8_17  and  N4_18 
REMARK   11  A    between atoms: C8_17  and  C16_29 
REMARK       I    between atoms: N4_18  and  C9_20 
REMARK   12  A    between atoms: C9_20  and  C10_22 
REMARK   13  A    between atoms: C10_22  and  C11_23 
REMARK       I    between atoms: C28_41  and  N5_43 
ROOT
HETATM    1  C5  UNL     1      17.643 -17.279  23.778  1.00  0.00     0.174 C 
ENDROOT
BRANCH   1   2
HETATM    2  N2  UNL     1      18.457 -16.252  23.377  1.00  0.00    -0.396 N 
ATOM      3  H2  UNL     1      18.211 -15.302  23.655  1.00  0.00     0.154 HD
BRANCH   2   4
HETATM    4  C4  UNL     1      19.633 -16.445  22.587  1.00  0.00     0.174 C 
BRANCH   4   5
HETATM    5  C3  UNL     1      20.757 -17.012  23.291  1.00  0.00     0.241 C 
HETATM    6  N1  UNL     1      21.320 -16.636  24.518  1.00  0.00    -0.346 N 
ATOM      7  H1  UNL     1      20.902 -15.864  25.039  1.00  0.00     0.163 HD
HETATM    8  O1  UNL     1      21.344 -18.003  22.709  1.00  0.00    -0.271 OA
BRANCH   6   9
HETATM    9  C2  UNL     1      22.490 -17.317  25.075  1.00  0.00     0.172 C 
HETATM   10  C1  UNL     1      22.490 -17.027  26.596  1.00  0.00     0.042 C 
BRANCH   9  11
HETATM   11  C28 UNL     1      23.735 -16.742  24.568  1.00  0.00     0.242 C 
HETATM   12  O6  UNL     1      23.964 -15.483  24.654  1.00  0.00    -0.271 OA
HETATM   13  N5  UNL     1      24.736 -17.520  23.971  1.00  0.00    -0.346 N 
HETATM   14  C29 UNL     1      26.012 -16.950  23.527  1.00  0.00     0.152 C 
HETATM   15  C32 UNL     1      24.552 -18.933  23.732  1.00  0.00     0.152 C 
HETATM   16  C30 UNL     1      26.863 -18.113  23.055  1.00  0.00     0.187 C 
HETATM   17  O7  UNL     1      26.278 -18.840  22.048  1.00  0.00    -0.388 OA
HETATM   18  C31 UNL     1      24.951 -19.155  22.271  1.00  0.00     0.187 C 
ENDBRANCH   9  11
ENDBRANCH   6   9
ENDBRANCH   4   5
BRANCH   4  19
HETATM   19  C22 UNL     1      19.993 -15.037  22.047  1.00  0.00     0.017 C 
HETATM   20  C23 UNL     1      19.067 -14.027  22.682  1.00  0.00     0.007 C 
HETATM   21  C24 UNL     1      18.502 -13.108  21.652  1.00  0.00     0.000 C 
HETATM   22  C25 UNL     1      17.719 -13.931  20.640  1.00  0.00     0.000 C 
HETATM   23  C26 UNL     1      18.647 -14.871  19.925  1.00  0.00     0.000 C 
HETATM   24  C27 UNL     1      20.024 -14.894  20.587  1.00  0.00     0.007 C 
ENDBRANCH   4  19
ENDBRANCH   2   4
ENDBRANCH   1   2
BRANCH   1  25
HETATM   25  C6  UNL     1      16.278 -17.375  23.216  1.00  0.00     0.247 C 
HETATM   26  O2  UNL     1      15.440 -18.127  23.725  1.00  0.00    -0.271 OA
HETATM   27  N3  UNL     1      15.895 -16.592  22.073  1.00  0.00    -0.291 N 
HETATM   28  C7  UNL     1      14.583 -16.571  21.553  1.00  0.00     0.271 C 
ATOM     29  H3  UNL     1      16.606 -16.023  21.615  1.00  0.00     0.172 HD
HETATM   30  O3  UNL     1      13.727 -17.280  22.159  1.00  0.00    -0.266 OA
BRANCH  28  31
HETATM   31  C8  UNL     1      14.241 -15.778  20.391  1.00  0.00     0.084 C 
BRANCH  31  32
HETATM   32  N4  UNL     1      14.103 -14.356  20.609  1.00  0.00    -0.326 N 
HETATM   33  C9  UNL     1      12.889 -13.652  20.588  1.00  0.00     0.222 C 
HETATM   34  O4  UNL     1      11.830 -14.264  20.375  1.00  0.00    -0.273 OA
ATOM     35  H4  UNL     1      14.953 -13.823  20.792  1.00  0.00     0.168 HD
BRANCH  33  36
HETATM   36  C10 UNL     1      12.872 -12.204  20.813  1.00  0.00     0.108 C 
BRANCH  36  37
HETATM   37  C11 UNL     1      11.889 -11.691  21.798  1.00  0.00    -0.002 C 
HETATM   38  C12 UNL     1      12.279 -10.227  22.069  1.00  0.00     0.031 C 
HETATM   39  C13 UNL     1      12.643 -10.024  23.514  1.00  0.00     0.168 C 
HETATM   40  O5  UNL     1      11.535 -10.287  24.289  1.00  0.00    -0.391 OA
HETATM   41  C14 UNL     1      11.196 -11.613  24.196  1.00  0.00     0.168 C 
HETATM   42  C15 UNL     1      11.961 -12.378  23.132  1.00  0.00     0.031 C 
ENDBRANCH  36  37
ENDBRANCH  33  36
ENDBRANCH  31  32
BRANCH  31  43
HETATM   43  C16 UNL     1      15.000 -16.160  19.178  1.00  0.00     0.033 C 
HETATM   44  C17 UNL     1      14.987 -15.230  18.023  1.00  0.00     0.016 C 
HETATM   45  C18 UNL     1      14.706 -17.608  18.752  1.00  0.00     0.016 C 
ENDBRANCH  31  43
ENDBRANCH  28  31
ENDBRANCH   1  25
BRANCH   1  46
HETATM   46  C19 UNL     1      17.400 -17.083  25.306  1.00  0.00     0.009 C 
HETATM   47  C20 UNL     1      18.094 -18.164  26.098  1.00  0.00     0.012 C 
HETATM   48  C21 UNL     1      17.744 -15.696  25.746  1.00  0.00     0.012 C 
ENDBRANCH   1  46
TORSDOF 13
ENDMDL
MODEL 4
REMARK VINA RESULT: -8.482441291      6.379     12.705
REMARK  13 active torsions:
REMARK  status: ('A' for Active; 'I' for Inactive)
REMARK    1  A    between atoms: C2_2  and  N1_3 
REMARK    2  A    between atoms: C2_2  and  C28_41 
REMARK       I    between atoms: N1_3  and  C3_5 
REMARK    3  A    between atoms: C3_5  and  C4_7 
REMARK    4  A    between atoms: C4_7  and  N2_8 
REMARK    5  A    between atoms: C4_7  and  C22_35 
REMARK    6  A    between atoms: N2_8  and  C5_10 
REMARK    7  A    between atoms: C5_10  and  C6_11 
REMARK    8  A    between atoms: C5_10  and  C19_32 
REMARK       I    between atoms: C6_11  and  N3_13 
REMARK       I    between atoms: N3_13  and  C7_15 
REMARK    9  A    between atoms: C7_15  and  C8_17 
REMARK   10  A    between atoms: C8_17  and  N4_18 
REMARK   11  A    between atoms: C8_17  and  C16_29 
REMARK       I    between atoms: N4_18  and  C9_20 
REMARK   12  A    between atoms: C9_20  and  C10_22 
REMARK   13  A    between atoms: C10_22  and  C11_23 
REMARK       I    between atoms: C28_41  and  N5_43 
ROOT
HETATM    1  C5  UNL     1      19.161 -14.076  21.781  1.00  0.00     0.174 C 
ENDROOT
BRANCH   1   2
HETATM    2  N2  UNL     1      18.883 -15.387  22.072  1.00  0.00    -0.396 N 
ATOM      3  H2  UNL     1      18.993 -16.081  21.333  1.00  0.00     0.154 HD
BRANCH   2   4
HETATM    4  C4  UNL     1      18.446 -15.828  23.360  1.00  0.00     0.174 C 
BRANCH   4   5
HETATM    5  C3  UNL     1      19.456 -15.809  24.390  1.00  0.00     0.241 C 
HETATM    6  N1  UNL     1      20.218 -14.735  24.869  1.00  0.00    -0.346 N 
ATOM      7  H1  UNL     1      20.064 -13.805  24.478  1.00  0.00     0.163 HD
HETATM    8  O1  UNL     1      19.711 -16.944  24.948  1.00  0.00    -0.271 OA
BRANCH   6   9
HETATM    9  C2  UNL     1      21.229 -14.907  25.914  1.00  0.00     0.172 C 
HETATM   10  C1  UNL     1      21.042 -13.736  26.909  1.00  0.00     0.042 C 
BRANCH   9  11
HETATM   11  C28 UNL     1      22.581 -14.754  25.380  1.00  0.00     0.242 C 
HETATM   12  O6  UNL     1      23.085 -13.592  25.183  1.00  0.00    -0.271 OA
HETATM   13  N5  UNL     1      23.393 -15.850  25.061  1.00  0.00    -0.346 N 
HETATM   14  C29 UNL     1      24.774 -15.693  24.592  1.00  0.00     0.152 C 
HETATM   15  C32 UNL     1      22.901 -17.206  25.150  1.00  0.00     0.152 C 
HETATM   16  C30 UNL     1      25.352 -17.090  24.474  1.00  0.00     0.187 C 
HETATM   17  O7  UNL     1      24.638 -17.902  23.627  1.00  0.00    -0.388 OA
HETATM   18  C31 UNL     1      23.271 -17.862  23.817  1.00  0.00     0.187 C 
ENDBRANCH   9  11
ENDBRANCH   6   9
ENDBRANCH   4   5
BRANCH   4  19
HETATM   19  C22 UNL     1      17.933 -17.274  23.139  1.00  0.00     0.017 C 
HETATM   20  C23 UNL     1      18.468 -17.778  21.820  1.00  0.00     0.007 C 
HETATM   21  C24 UNL     1      17.382 -18.408  21.015  1.00  0.00     0.000 C 
HETATM   22  C25 UNL     1      16.305 -17.367  20.748  1.00  0.00     0.000 C 
HETATM   23  C26 UNL     1      15.690 -16.930  22.046  1.00  0.00     0.000 C 
HETATM   24  C27 UNL     1      16.481 -17.466  23.238  1.00  0.00     0.007 C 
ENDBRANCH   4  19
ENDBRANCH   2   4
ENDBRANCH   1   2
BRANCH   1  25
HETATM   25  C6  UNL     1      18.078 -13.211  21.264  1.00  0.00     0.247 C 
HETATM   26  O2  UNL     1      18.060 -12.003  21.526  1.00  0.00    -0.271 OA
HETATM   27  N3  UNL     1      17.031 -13.752  20.441  1.00  0.00    -0.291 N 
HETATM   28  C7  UNL     1      16.028 -12.959  19.843  1.00  0.00     0.271 C 
ATOM     29  H3  UNL     1      17.012 -14.759  20.281  1.00  0.00     0.172 HD
HETATM   30  O3  UNL     1      16.096 -11.713  20.055  1.00  0.00    -0.266 OA
BRANCH  28  31
HETATM   31  C8  UNL     1      14.983 -13.546  19.032  1.00  0.00     0.084 C 
BRANCH  31  32
HETATM   32  N4  UNL     1      13.632 -13.383  19.518  1.00  0.00    -0.326 N 
HETATM   33  C9  UNL     1      13.214 -13.629  20.835  1.00  0.00     0.222 C 
HETATM   34  O4  UNL     1      14.042 -14.011  21.678  1.00  0.00    -0.273 OA
ATOM     35  H4  UNL     1      12.927 -13.065  18.853  1.00  0.00     0.168 HD
BRANCH  33  36
HETATM   36  C10 UNL     1      11.811 -13.438  21.213  1.00  0.00     0.108 C 
BRANCH  36  37
HETATM   37  C11 UNL     1      11.478 -12.192  21.945  1.00  0.00    -0.002 C 
HETATM   38  C12 UNL     1      12.417 -11.107  21.393  1.00  0.00     0.031 C 
HETATM   39  C13 UNL     1      13.310 -10.564  22.475  1.00  0.00     0.168 C 
HETATM   40  O5  UNL     1      12.526  -9.957  23.430  1.00  0.00    -0.391 OA
HETATM   41  C14 UNL     1      11.739 -10.889  24.059  1.00  0.00     0.168 C 
HETATM   42  C15 UNL     1      11.769 -12.264  23.417  1.00  0.00     0.031 C 
ENDBRANCH  36  37
ENDBRANCH  33  36
ENDBRANCH  31  32
BRANCH  31  43
HETATM   43  C16 UNL     1      15.164 -13.309  17.582  1.00  0.00     0.033 C 
HETATM   44  C17 UNL     1      14.486 -12.138  16.973  1.00  0.00     0.016 C 
HETATM   45  C18 UNL     1      14.944 -14.590  16.760  1.00  0.00     0.016 C 
ENDBRANCH  31  43
ENDBRANCH  28  31
ENDBRANCH   1  25
BRANCH   1  46
HETATM   46  C19 UNL     1      20.207 -14.091  20.623  1.00  0.00     0.009 C 
HETATM   47  C20 UNL     1      19.786 -15.053  19.540  1.00  0.00     0.012 C 
HETATM   48  C21 UNL     1      20.500 -12.712  20.127  1.00  0.00     0.012 C 
ENDBRANCH   1  46
TORSDOF 13
ENDMDL
MODEL 5
REMARK VINA RESULT: -8.433494854      4.912     13.163
REMARK  13 active torsions:
REMARK  status: ('A' for Active; 'I' for Inactive)
REMARK    1  A    between atoms: C2_2  and  N1_3 
REMARK    2  A    between atoms: C2_2  and  C28_41 
REMARK       I    between atoms: N1_3  and  C3_5 
REMARK    3  A    between atoms: C3_5  and  C4_7 
REMARK    4  A    between atoms: C4_7  and  N2_8 
REMARK    5  A    between atoms: C4_7  and  C22_35 
REMARK    6  A    between atoms: N2_8  and  C5_10 
REMARK    7  A    between atoms: C5_10  and  C6_11 
REMARK    8  A    between atoms: C5_10  and  C19_32 
REMARK       I    between atoms: C6_11  and  N3_13 
REMARK       I    between atoms: N3_13  and  C7_15 
REMARK    9  A    between atoms: C7_15  and  C8_17 
REMARK   10  A    between atoms: C8_17  and  N4_18 
REMARK   11  A    between atoms: C8_17  and  C16_29 
REMARK       I    between atoms: N4_18  and  C9_20 
REMARK   12  A    between atoms: C9_20  and  C10_22 
REMARK   13  A    between atoms: C10_22  and  C11_23 
REMARK       I    between atoms: C28_41  and  N5_43 
ROOT
HETATM    1  C5  UNL     1      19.111 -14.021  21.707  1.00  0.00     0.174 C 
ENDROOT
BRANCH   1   2
HETATM    2  N2  UNL     1      18.779 -15.321  21.989  1.00  0.00    -0.396 N 
ATOM      3  H2  UNL     1      18.859 -16.014  21.245  1.00  0.00     0.154 HD
BRANCH   2   4
HETATM    4  C4  UNL     1      18.328 -15.753  23.275  1.00  0.00     0.174 C 
BRANCH   4   5
HETATM    5  C3  UNL     1      19.335 -15.760  24.308  1.00  0.00     0.241 C 
HETATM    6  N1  UNL     1      20.110 -14.702  24.801  1.00  0.00    -0.346 N 
ATOM      7  H1  UNL     1      19.971 -13.765  24.420  1.00  0.00     0.163 HD
HETATM    8  O1  UNL     1      19.572 -16.904  24.855  1.00  0.00    -0.271 OA
BRANCH   6   9
HETATM    9  C2  UNL     1      21.115 -14.900  25.847  1.00  0.00     0.172 C 
HETATM   10  C1  UNL     1      20.929 -13.749  26.866  1.00  0.00     0.042 C 
BRANCH   9  11
HETATM   11  C28 UNL     1      22.471 -14.742  25.324  1.00  0.00     0.242 C 
HETATM   12  O6  UNL     1      22.968 -13.577  25.119  1.00  0.00    -0.271 OA
HETATM   13  N5  UNL     1      23.294 -15.834  25.022  1.00  0.00    -0.346 N 
HETATM   14  C29 UNL     1      24.678 -15.671  24.563  1.00  0.00     0.152 C 
HETATM   15  C32 UNL     1      22.812 -17.193  25.121  1.00  0.00     0.152 C 
HETATM   16  C30 UNL     1      25.267 -17.065  24.463  1.00  0.00     0.187 C 
HETATM   17  O7  UNL     1      24.568 -17.891  23.619  1.00  0.00    -0.388 OA
HETATM   18  C31 UNL     1      23.198 -17.860  23.798  1.00  0.00     0.187 C 
ENDBRANCH   9  11
ENDBRANCH   6   9
ENDBRANCH   4   5
BRANCH   4  19
HETATM   19  C22 UNL     1      17.780 -17.186  23.051  1.00  0.00     0.017 C 
HETATM   20  C23 UNL     1      18.356 -17.725  21.763  1.00  0.00     0.007 C 
HETATM   21  C24 UNL     1      17.286 -18.333  20.920  1.00  0.00     0.000 C 
HETATM   22  C25 UNL     1      16.255 -17.263  20.593  1.00  0.00     0.000 C 
HETATM   23  C26 UNL     1      15.598 -16.790  21.858  1.00  0.00     0.000 C 
HETATM   24  C27 UNL     1      16.320 -17.333  23.089  1.00  0.00     0.007 C 
ENDBRANCH   4  19
ENDBRANCH   2   4
ENDBRANCH   1   2
BRANCH   1  25
HETATM   25  C6  UNL     1      18.069 -13.114  21.175  1.00  0.00     0.247 C 
HETATM   26  O2  UNL     1      17.910 -11.988  21.659  1.00  0.00    -0.271 OA
HETATM   27  N3  UNL     1      17.227 -13.519  20.083  1.00  0.00    -0.291 N 
HETATM   28  C7  UNL     1      16.283 -12.664  19.475  1.00  0.00     0.271 C 
ATOM     29  H3  UNL     1      17.315 -14.471  19.730  1.00  0.00     0.172 HD
HETATM   30  O3  UNL     1      16.215 -11.485  19.933  1.00  0.00    -0.266 OA
BRANCH  28  31
HETATM   31  C8  UNL     1      15.444 -13.115  18.384  1.00  0.00     0.084 C 
BRANCH  31  32
HETATM   32  N4  UNL     1      15.896 -12.781  17.053  1.00  0.00    -0.326 N 
HETATM   33  C9  UNL     1      15.267 -11.866  16.194  1.00  0.00     0.222 C 
HETATM   34  O4  UNL     1      14.245 -11.273  16.575  1.00  0.00    -0.273 OA
ATOM     35  H4  UNL     1      16.736 -13.245  16.711  1.00  0.00     0.168 HD
BRANCH  33  36
HETATM   36  C10 UNL     1      15.812 -11.613  14.858  1.00  0.00     0.108 C 
BRANCH  36  37
HETATM   37  C11 UNL     1      15.348 -12.504  13.766  1.00  0.00    -0.002 C 
HETATM   38  C12 UNL     1      16.395 -12.386  12.645  1.00  0.00     0.031 C 
HETATM   39  C13 UNL     1      15.778 -11.838  11.386  1.00  0.00     0.168 C 
HETATM   40  O5  UNL     1      14.822 -12.724  10.942  1.00  0.00    -0.391 OA
HETATM   41  C14 UNL     1      13.786 -12.791  11.839  1.00  0.00     0.168 C 
HETATM   42  C15 UNL     1      14.049 -12.071  13.149  1.00  0.00     0.031 C 
ENDBRANCH  36  37
ENDBRANCH  33  36
ENDBRANCH  31  32
BRANCH  31  43
HETATM   43  C16 UNL     1      14.957 -14.503  18.556  1.00  0.00     0.033 C 
HETATM   44  C17 UNL     1      14.768 -15.334  17.342  1.00  0.00     0.016 C 
HETATM   45  C18 UNL     1      13.740 -14.570  19.494  1.00  0.00     0.016 C 
ENDBRANCH  31  43
ENDBRANCH  28  31
ENDBRANCH   1  25
BRANCH   1  46
HETATM   46  C19 UNL     1      20.173 -14.072  20.566  1.00  0.00     0.009 C 
HETATM   47  C20 UNL     1      19.750 -15.041  19.488  1.00  0.00     0.012 C 
HETATM   48  C21 UNL     1      20.501 -12.706  20.055  1.00  0.00     0.012 C 
ENDBRANCH   1  46
TORSDOF 13
ENDMDL
