MODEL 1
REMARK VINA RESULT: -8.653630789      0.000      0.000
REMARK  16 active torsions:
REMARK  status: ('A' for Active; 'I' for Inactive)
REMARK    1  A    between atoms: C2_2  and  C3_3 
REMARK    2  A    between atoms: C3_3  and  C4_4 
REMARK    3  A    between atoms: C3_3  and  N1_6 
REMARK    4  A    between atoms: N1_6  and  C5_8 
REMARK    5  A    between atoms: C5_8  and  O2_9 
REMARK    6  A    between atoms: C5_8  and  C6_11 
REMARK    7  A    between atoms: C6_11  and  N2_12 
REMARK    8  A    between atoms: C6_11  and  C29_46 
REMARK       I    between atoms: N2_12  and  C7_14 
REMARK    9  A    between atoms: C7_14  and  C8_16 
REMARK   10  A    between atoms: C8_16  and  N3_17 
REMARK   11  A    between atoms: C8_16  and  C26_43 
REMARK       I    between atoms: N3_17  and  C9_19 
REMARK   12  A    between atoms: C9_19  and  C10_21 
REMARK       I    between atoms: N4_26  and  C15_27 
REMARK   13  A    between atoms: C15_27  and  C16_29 
REMARK   14  A    between atoms: C16_29  and  N5_31 
REMARK       I    between atoms: N5_31  and  C18_33 
REMARK   15  A    between atoms: C18_33  and  C19_35 
REMARK   16  A    between atoms: N6_39  and  C23_40 
ROOT
HETATM    1  N3  UNL     1      16.955 -13.007  18.972  1.00  0.00    -0.345 N 
ATOM      2  H3  UNL     1      17.382 -13.415  19.803  1.00  0.00     0.163 HD
HETATM    3  C9  UNL     1      15.567 -12.842  19.054  1.00  0.00     0.246 C 
HETATM    4  O4  UNL     1      14.809 -12.376  18.163  1.00  0.00    -0.271 OA
ENDROOT
BRANCH   1   5
HETATM    5  C8  UNL     1      17.864 -12.704  17.933  1.00  0.00     0.180 C 
BRANCH   5   6
HETATM    6  C7  UNL     1      17.248 -12.488  16.581  1.00  0.00     0.241 C 
HETATM    7  N2  UNL     1      16.898 -13.581  15.752  1.00  0.00    -0.347 N 
ATOM      8  H2  UNL     1      17.070 -14.524  16.098  1.00  0.00     0.163 HD
HETATM    9  O3  UNL     1      17.023 -11.351  16.131  1.00  0.00    -0.271 OA
BRANCH   7  10
HETATM   10  C6  UNL     1      16.306 -13.428  14.436  1.00  0.00     0.166 C 
BRANCH  10  11
HETATM   11  C5  UNL     1      17.349 -13.415  13.401  1.00  0.00     0.136 C 
BRANCH  11  12
HETATM   12  N1  UNL     1      17.280 -12.969  12.081  1.00  0.00    -0.362 N 
ATOM     13  H1  UNL     1      17.596 -13.576  11.325  1.00  0.00     0.162 HD
BRANCH  12  14
HETATM   14  C3  UNL     1      16.755 -11.632  11.769  1.00  0.00     0.144 C 
BRANCH  14  15
HETATM   15  C2  UNL     1      15.603 -11.691  10.802  1.00  0.00     0.028 C 
HETATM   16  C1  UNL     1      15.944 -12.569   9.607  1.00  0.00     0.007 C 
ENDBRANCH  14  15
BRANCH  14  17
HETATM   17  C4  UNL     1      17.844 -10.828  11.180  1.00  0.00     0.256 C 
HETATM   18  O1  UNL     1      18.248  -9.771  11.638  1.00  0.00    -0.305 OA
ENDBRANCH  14  17
ENDBRANCH  12  14
ENDBRANCH  11  12
BRANCH  11  19
HETATM   19  O2  UNL     1      18.512 -13.885  13.748  1.00  0.00    -0.348 OA
ATOM     20  H2  UNL     1      19.242 -13.311  13.549  1.00  0.00     0.219 HD
ENDBRANCH  11  19
ENDBRANCH  10  11
BRANCH  10  21
HETATM   21  C29 UNL     1      15.181 -14.321  14.124  1.00  0.00    -0.023 C 
HETATM   22  C30 UNL     1      14.688 -15.076  15.371  1.00  0.00     0.017 C 
HETATM   23  C31 UNL     1      13.960 -13.473  13.727  1.00  0.00     0.017 C 
HETATM   24  C32 UNL     1      15.392 -15.342  13.064  1.00  0.00     0.017 C 
ENDBRANCH  10  21
ENDBRANCH   7  10
ENDBRANCH   5   6
BRANCH   5  25
HETATM   25  C26 UNL     1      19.065 -13.586  17.877  1.00  0.00     0.009 C 
HETATM   26  C27 UNL     1      19.332 -14.350  19.142  1.00  0.00     0.012 C 
HETATM   27  C28 UNL     1      20.273 -12.711  17.605  1.00  0.00     0.012 C 
ENDBRANCH   5  25
ENDBRANCH   1   5
BRANCH   3  28
HETATM   28  C10 UNL     1      14.849 -13.241  20.317  1.00  0.00     0.112 C 
HETATM   29  C11 UNL     1      14.683 -12.062  21.244  1.00  0.00     0.049 C 
HETATM   30  C12 UNL     1      13.485 -13.673  19.880  1.00  0.00     0.042 C 
HETATM   31  C13 UNL     1      13.204 -14.912  20.656  1.00  0.00     0.023 C 
HETATM   32  C14 UNL     1      14.591 -15.516  20.764  1.00  0.00     0.127 C 
HETATM   33  N4  UNL     1      15.457 -14.345  20.985  1.00  0.00    -0.332 N 
HETATM   34  C15 UNL     1      16.645 -14.422  21.752  1.00  0.00     0.243 C 
HETATM   35  O5  UNL     1      17.331 -13.386  21.917  1.00  0.00    -0.271 OA
BRANCH  34  36
HETATM   36  C16 UNL     1      17.120 -15.679  22.377  1.00  0.00     0.172 C 
HETATM   37  C17 UNL     1      17.343 -16.784  21.357  1.00  0.00     0.042 C 
BRANCH  36  38
HETATM   38  N5  UNL     1      18.353 -15.473  23.089  1.00  0.00    -0.348 N 
HETATM   39  C18 UNL     1      18.499 -15.860  24.459  1.00  0.00     0.224 C 
HETATM   40  O6  UNL     1      17.512 -16.388  25.024  1.00  0.00    -0.273 OA
ATOM     41  H5  UNL     1      19.141 -15.041  22.607  1.00  0.00     0.163 HD
BRANCH  39  42
HETATM   42  C19 UNL     1      19.751 -15.662  25.210  1.00  0.00     0.095 C 
HETATM   43  C20 UNL     1      19.460 -15.001  26.508  1.00  0.00     0.017 C 
HETATM   44  C21 UNL     1      20.649 -14.317  27.136  1.00  0.00     0.020 C 
HETATM   45  C22 UNL     1      21.251 -13.388  26.103  1.00  0.00     0.117 C 
HETATM   46  N6  UNL     1      21.728 -14.195  25.036  1.00  0.00    -0.412 N 
HETATM   47  C25 UNL     1      20.794 -15.018  24.365  1.00  0.00     0.131 C 
BRANCH  46  48
HETATM   48  C23 UNL     1      22.993 -14.829  25.229  1.00  0.00     0.112 C 
HETATM   49  C24 UNL     1      24.035 -14.388  24.237  1.00  0.00     0.026 C 
ENDBRANCH  46  48
ENDBRANCH  39  42
ENDBRANCH  36  38
ENDBRANCH  34  36
ENDBRANCH   3  28
TORSDOF 16
ENDMDL
MODEL 2
REMARK VINA RESULT: -8.531086673      0.890      1.097
REMARK  16 active torsions:
REMARK  status: ('A' for Active; 'I' for Inactive)
REMARK    1  A    between atoms: C2_2  and  C3_3 
REMARK    2  A    between atoms: C3_3  and  C4_4 
REMARK    3  A    between atoms: C3_3  and  N1_6 
REMARK    4  A    between atoms: N1_6  and  C5_8 
REMARK    5  A    between atoms: C5_8  and  O2_9 
REMARK    6  A    between atoms: C5_8  and  C6_11 
REMARK    7  A    between atoms: C6_11  and  N2_12 
REMARK    8  A    between atoms: C6_11  and  C29_46 
REMARK       I    between atoms: N2_12  and  C7_14 
REMARK    9  A    between atoms: C7_14  and  C8_16 
REMARK   10  A    between atoms: C8_16  and  N3_17 
REMARK   11  A    between atoms: C8_16  and  C26_43 
REMARK       I    between atoms: N3_17  and  C9_19 
REMARK   12  A    between atoms: C9_19  and  C10_21 
REMARK       I    between atoms: N4_26  and  C15_27 
REMARK   13  A    between atoms: C15_27  and  C16_29 
REMARK   14  A    between atoms: C16_29  and  N5_31 
REMARK       I    between atoms: N5_31  and  C18_33 
REMARK   15  A    between atoms: C18_33  and  C19_35 
REMARK   16  A    between atoms: N6_39  and  C23_40 
ROOT
HETATM    1  N3  UNL     1      16.795 -13.108  19.261  1.00  0.00    -0.345 N 
ATOM      2  H3  UNL     1      17.261 -13.194  20.164  1.00  0.00     0.163 HD
HETATM    3  C9  UNL     1      15.413 -13.325  19.297  1.00  0.00     0.246 C 
HETATM    4  O4  UNL     1      14.619 -13.291  18.321  1.00  0.00    -0.271 OA
ENDROOT
BRANCH   1   5
HETATM    5  C8  UNL     1      17.656 -12.788  18.185  1.00  0.00     0.180 C 
BRANCH   5   6
HETATM    6  C7  UNL     1      16.971 -12.449  16.893  1.00  0.00     0.241 C 
HETATM    7  N2  UNL     1      16.716 -13.441  15.916  1.00  0.00    -0.347 N 
ATOM      8  H2  UNL     1      17.005 -14.398  16.114  1.00  0.00     0.163 HD
HETATM    9  O3  UNL     1      16.605 -11.292  16.623  1.00  0.00    -0.271 OA
BRANCH   7  10
HETATM   10  C6  UNL     1      16.064 -13.166  14.649  1.00  0.00     0.166 C 
BRANCH  10  11
HETATM   11  C5  UNL     1      17.059 -12.832  13.620  1.00  0.00     0.136 C 
BRANCH  11  12
HETATM   12  N1  UNL     1      16.984 -11.899  12.586  1.00  0.00    -0.362 N 
ATOM     13  H1  UNL     1      16.804 -10.918  12.802  1.00  0.00     0.162 HD
BRANCH  12  14
HETATM   14  C3  UNL     1      17.160 -12.315  11.188  1.00  0.00     0.144 C 
BRANCH  14  15
HETATM   15  C2  UNL     1      18.391 -11.706  10.571  1.00  0.00     0.028 C 
HETATM   16  C1  UNL     1      19.523 -12.721  10.509  1.00  0.00     0.007 C 
ENDBRANCH  14  15
BRANCH  14  17
HETATM   17  C4  UNL     1      15.972 -11.894  10.421  1.00  0.00     0.256 C 
HETATM   18  O1  UNL     1      14.834 -11.879  10.864  1.00  0.00    -0.305 OA
ENDBRANCH  14  17
ENDBRANCH  12  14
ENDBRANCH  11  12
BRANCH  11  19
HETATM   19  O2  UNL     1      18.179 -13.496  13.664  1.00  0.00    -0.348 OA
ATOM     20  H2  UNL     1      18.091 -14.423  13.479  1.00  0.00     0.219 HD
ENDBRANCH  11  19
ENDBRANCH  10  11
BRANCH  10  21
HETATM   21  C29 UNL     1      15.070 -14.153  14.205  1.00  0.00    -0.023 C 
HETATM   22  C30 UNL     1      14.667 -15.109  15.342  1.00  0.00     0.017 C 
HETATM   23  C31 UNL     1      13.751 -13.428  13.880  1.00  0.00     0.017 C 
HETATM   24  C32 UNL     1      15.423 -15.003  13.038  1.00  0.00     0.017 C 
ENDBRANCH  10  21
ENDBRANCH   7  10
ENDBRANCH   5   6
BRANCH   5  25
HETATM   25  C26 UNL     1      18.796 -13.730  17.996  1.00  0.00     0.009 C 
HETATM   26  C27 UNL     1      19.124 -14.556  19.206  1.00  0.00     0.012 C 
HETATM   27  C28 UNL     1      20.025 -12.910  17.651  1.00  0.00     0.012 C 
ENDBRANCH   5  25
ENDBRANCH   1   5
BRANCH   3  28
HETATM   28  C10 UNL     1      14.748 -13.635  20.613  1.00  0.00     0.112 C 
HETATM   29  C11 UNL     1      14.675 -12.407  21.487  1.00  0.00     0.049 C 
HETATM   30  C12 UNL     1      13.348 -14.033  20.267  1.00  0.00     0.042 C 
HETATM   31  C13 UNL     1      13.062 -15.220  21.118  1.00  0.00     0.023 C 
HETATM   32  C14 UNL     1      14.429 -15.874  21.186  1.00  0.00     0.127 C 
HETATM   33  N4  UNL     1      15.349 -14.729  21.304  1.00  0.00    -0.332 N 
HETATM   34  C15 UNL     1      16.572 -14.817  22.013  1.00  0.00     0.243 C 
HETATM   35  O5  UNL     1      17.304 -13.801  22.090  1.00  0.00    -0.271 OA
BRANCH  34  36
HETATM   36  C16 UNL     1      17.032 -16.060  22.675  1.00  0.00     0.172 C 
HETATM   37  C17 UNL     1      17.144 -17.224  21.704  1.00  0.00     0.042 C 
BRANCH  36  38
HETATM   38  N5  UNL     1      18.314 -15.873  23.299  1.00  0.00    -0.348 N 
HETATM   39  C18 UNL     1      18.457 -15.856  24.723  1.00  0.00     0.224 C 
HETATM   40  O6  UNL     1      17.423 -16.009  25.414  1.00  0.00    -0.273 OA
ATOM     41  H5  UNL     1      19.140 -15.750  22.714  1.00  0.00     0.163 HD
BRANCH  39  42
HETATM   42  C19 UNL     1      19.758 -15.669  25.388  1.00  0.00     0.095 C 
HETATM   43  C20 UNL     1      19.573 -14.913  26.653  1.00  0.00     0.017 C 
HETATM   44  C21 UNL     1      20.825 -14.247  27.166  1.00  0.00     0.020 C 
HETATM   45  C22 UNL     1      21.404 -13.414  26.042  1.00  0.00     0.117 C 
HETATM   46  N6  UNL     1      21.782 -14.309  25.005  1.00  0.00    -0.412 N 
HETATM   47  C25 UNL     1      20.776 -15.129  24.444  1.00  0.00     0.131 C 
BRANCH  46  48
HETATM   48  C23 UNL     1      23.028 -14.986  25.168  1.00  0.00     0.112 C 
HETATM   49  C24 UNL     1      24.157 -14.345  24.406  1.00  0.00     0.026 C 
ENDBRANCH  46  48
ENDBRANCH  39  42
ENDBRANCH  36  38
ENDBRANCH  34  36
ENDBRANCH   3  28
TORSDOF 16
ENDMDL
MODEL 3
REMARK VINA RESULT: -8.344800351      3.845      7.425
REMARK  16 active torsions:
REMARK  status: ('A' for Active; 'I' for Inactive)
REMARK    1  A    between atoms: C2_2  and  C3_3 
REMARK    2  A    between atoms: C3_3  and  C4_4 
REMARK    3  A    between atoms: C3_3  and  N1_6 
REMARK    4  A    between atoms: N1_6  and  C5_8 
REMARK    5  A    between atoms: C5_8  and  O2_9 
REMARK    6  A    between atoms: C5_8  and  C6_11 
REMARK    7  A    between atoms: C6_11  and  N2_12 
REMARK    8  A    between atoms: C6_11  and  C29_46 
REMARK       I    between atoms: N2_12  and  C7_14 
REMARK    9  A    between atoms: C7_14  and  C8_16 
REMARK   10  A    between atoms: C8_16  and  N3_17 
REMARK   11  A    between atoms: C8_16  and  C26_43 
REMARK       I    between atoms: N3_17  and  C9_19 
REMARK   12  A    between atoms: C9_19  and  C10_21 
REMARK       I    between atoms: N4_26  and  C15_27 
REMARK   13  A    between atoms: C15_27  and  C16_29 
REMARK   14  A    between atoms: C16_29  and  N5_31 
REMARK       I    between atoms: N5_31  and  C18_33 
REMARK   15  A    between atoms: C18_33  and  C19_35 
REMARK   16  A    between atoms: N6_39  and  C23_40 
ROOT
HETATM    1  N3  UNL     1      19.398 -14.052  23.039  1.00  0.00    -0.345 N 
ATOM      2  H3  UNL     1      18.587 -14.177  23.645  1.00  0.00     0.163 HD
HETATM    3  C9  UNL     1      20.629 -14.297  23.657  1.00  0.00     0.246 C 
HETATM    4  O4  UNL     1      21.769 -14.200  23.133  1.00  0.00    -0.271 OA
ENDROOT
BRANCH   1   5
HETATM    5  C8  UNL     1      19.087 -13.660  21.717  1.00  0.00     0.180 C 
BRANCH   5   6
HETATM    6  C7  UNL     1      17.663 -13.888  21.297  1.00  0.00     0.241 C 
HETATM    7  N2  UNL     1      17.086 -13.151  20.236  1.00  0.00    -0.347 N 
ATOM      8  H2  UNL     1      17.663 -12.461  19.757  1.00  0.00     0.163 HD
HETATM    9  O3  UNL     1      16.934 -14.723  21.860  1.00  0.00    -0.271 OA
BRANCH   7  10
HETATM   10  C6  UNL     1      15.714 -13.326  19.794  1.00  0.00     0.166 C 
BRANCH  10  11
HETATM   11  C5  UNL     1      14.875 -12.217  20.267  1.00  0.00     0.136 C 
BRANCH  11  12
HETATM   12  N1  UNL     1      13.489 -12.155  20.413  1.00  0.00    -0.362 N 
ATOM     13  H1  UNL     1      12.936 -11.601  19.759  1.00  0.00     0.162 HD
BRANCH  12  14
HETATM   14  C3  UNL     1      12.817 -12.882  21.499  1.00  0.00     0.144 C 
BRANCH  14  15
HETATM   15  C2  UNL     1      12.185 -14.159  21.015  1.00  0.00     0.028 C 
HETATM   16  C1  UNL     1      12.999 -15.366  21.455  1.00  0.00     0.007 C 
ENDBRANCH  14  15
BRANCH  14  17
HETATM   17  C4  UNL     1      11.775 -12.008  22.071  1.00  0.00     0.256 C 
HETATM   18  O1  UNL     1      11.568 -10.857  21.719  1.00  0.00    -0.305 OA
ENDBRANCH  14  17
ENDBRANCH  12  14
ENDBRANCH  11  12
BRANCH  11  19
HETATM   19  O2  UNL     1      15.499 -11.124  20.601  1.00  0.00    -0.348 OA
ATOM     20  H2  UNL     1      16.360 -11.030  20.211  1.00  0.00     0.219 HD
ENDBRANCH  11  19
ENDBRANCH  10  11
BRANCH  10  21
HETATM   21  C29 UNL     1      15.527 -13.638  18.371  1.00  0.00    -0.023 C 
HETATM   22  C30 UNL     1      16.871 -13.856  17.652  1.00  0.00     0.017 C 
HETATM   23  C31 UNL     1      14.838 -15.008  18.241  1.00  0.00     0.017 C 
HETATM   24  C32 UNL     1      14.761 -12.663  17.551  1.00  0.00     0.017 C 
ENDBRANCH  10  21
ENDBRANCH   7  10
ENDBRANCH   5   6
BRANCH   5  25
HETATM   25  C26 UNL     1      20.064 -14.110  20.684  1.00  0.00     0.009 C 
HETATM   26  C27 UNL     1      20.368 -13.085  19.631  1.00  0.00     0.012 C 
HETATM   27  C28 UNL     1      19.479 -15.325  19.988  1.00  0.00     0.012 C 
ENDBRANCH   5  25
ENDBRANCH   1   5
BRANCH   3  28
HETATM   28  C10 UNL     1      20.659 -14.730  25.101  1.00  0.00     0.112 C 
HETATM   29  C11 UNL     1      21.186 -13.629  25.987  1.00  0.00     0.049 C 
HETATM   30  C12 UNL     1      19.231 -14.972  25.473  1.00  0.00     0.042 C 
HETATM   31  C13 UNL     1      19.245 -16.239  26.255  1.00  0.00     0.023 C 
HETATM   32  C14 UNL     1      20.370 -16.996  25.577  1.00  0.00     0.127 C 
HETATM   33  N4  UNL     1      21.371 -15.949  25.308  1.00  0.00    -0.332 N 
HETATM   34  C15 UNL     1      22.761 -16.222  25.299  1.00  0.00     0.243 C 
HETATM   35  O5  UNL     1      23.563 -15.284  25.079  1.00  0.00    -0.271 OA
BRANCH  34  36
HETATM   36  C16 UNL     1      23.318 -17.574  25.540  1.00  0.00     0.172 C 
HETATM   37  C17 UNL     1      24.312 -17.989  24.468  1.00  0.00     0.042 C 
BRANCH  36  38
HETATM   38  N5  UNL     1      23.981 -17.643  26.814  1.00  0.00    -0.348 N 
HETATM   39  C18 UNL     1      23.562 -18.565  27.825  1.00  0.00     0.224 C 
HETATM   40  O6  UNL     1      22.593 -19.316  27.564  1.00  0.00    -0.273 OA
ATOM     41  H5  UNL     1      24.767 -17.021  27.003  1.00  0.00     0.163 HD
BRANCH  39  42
HETATM   42  C19 UNL     1      24.224 -18.659  29.138  1.00  0.00     0.095 C 
HETATM   43  C20 UNL     1      23.206 -18.638  30.219  1.00  0.00     0.017 C 
HETATM   44  C21 UNL     1      23.744 -18.243  31.571  1.00  0.00     0.020 C 
HETATM   45  C22 UNL     1      24.487 -16.934  31.413  1.00  0.00     0.117 C 
HETATM   46  N6  UNL     1      25.596 -17.178  30.558  1.00  0.00    -0.412 N 
HETATM   47  C25 UNL     1      25.330 -17.668  29.259  1.00  0.00     0.131 C 
BRANCH  46  48
HETATM   48  C23 UNL     1      26.745 -17.777  31.157  1.00  0.00     0.112 C 
HETATM   49  C24 UNL     1      27.831 -18.099  30.166  1.00  0.00     0.026 C 
ENDBRANCH  46  48
ENDBRANCH  39  42
ENDBRANCH  36  38
ENDBRANCH  34  36
ENDBRANCH   3  28
TORSDOF 16
ENDMDL
MODEL 4
REMARK VINA RESULT: -8.332979713      4.759      7.872
REMARK  16 active torsions:
REMARK  status: ('A' for Active; 'I' for Inactive)
REMARK    1  A    between atoms: C2_2  and  C3_3 
REMARK    2  A    between atoms: C3_3  and  C4_4 
REMARK    3  A    between atoms: C3_3  and  N1_6 
REMARK    4  A    between atoms: N1_6  and  C5_8 
REMARK    5  A    between atoms: C5_8  and  O2_9 
REMARK    6  A    between atoms: C5_8  and  C6_11 
REMARK    7  A    between atoms: C6_11  and  N2_12 
REMARK    8  A    between atoms: C6_11  and  C29_46 
REMARK       I    between atoms: N2_12  and  C7_14 
REMARK    9  A    between atoms: C7_14  and  C8_16 
REMARK   10  A    between atoms: C8_16  and  N3_17 
REMARK   11  A    between atoms: C8_16  and  C26_43 
REMARK       I    between atoms: N3_17  and  C9_19 
REMARK   12  A    between atoms: C9_19  and  C10_21 
REMARK       I    between atoms: N4_26  and  C15_27 
REMARK   13  A    between atoms: C15_27  and  C16_29 
REMARK   14  A    between atoms: C16_29  and  N5_31 
REMARK       I    between atoms: N5_31  and  C18_33 
REMARK   15  A    between atoms: C18_33  and  C19_35 
REMARK   16  A    between atoms: N6_39  and  C23_40 
ROOT
HETATM    1  N3  UNL     1      19.520 -14.738  23.250  1.00  0.00    -0.345 N 
ATOM      2  H3  UNL     1      19.068 -15.116  24.083  1.00  0.00     0.163 HD
HETATM    3  C9  UNL     1      20.865 -14.393  23.425  1.00  0.00     0.246 C 
HETATM    4  O4  UNL     1      21.634 -13.897  22.561  1.00  0.00    -0.271 OA
ENDROOT
BRANCH   1   5
HETATM    5  C8  UNL     1      18.681 -14.653  22.115  1.00  0.00     0.180 C 
BRANCH   5   6
HETATM    6  C7  UNL     1      17.215 -14.518  22.408  1.00  0.00     0.241 C 
HETATM    7  N2  UNL     1      16.283 -14.254  21.377  1.00  0.00    -0.347 N 
ATOM      8  H2  UNL     1      16.631 -14.162  20.423  1.00  0.00     0.163 HD
HETATM    9  O3  UNL     1      16.759 -14.626  23.560  1.00  0.00    -0.271 OA
BRANCH   7  10
HETATM   10  C6  UNL     1      14.857 -14.108  21.606  1.00  0.00     0.166 C 
BRANCH  10  11
HETATM   11  C5  UNL     1      14.509 -12.693  21.800  1.00  0.00     0.136 C 
BRANCH  11  12
HETATM   12  N1  UNL     1      13.380 -12.133  22.397  1.00  0.00    -0.362 N 
ATOM     13  H1  UNL     1      12.701 -12.737  22.860  1.00  0.00     0.162 HD
BRANCH  12  14
HETATM   14  C3  UNL     1      13.160 -10.680  22.367  1.00  0.00     0.144 C 
BRANCH  14  15
HETATM   15  C2  UNL     1      12.331 -10.213  23.533  1.00  0.00     0.028 C 
HETATM   16  C1  UNL     1      11.363 -11.298  23.978  1.00  0.00     0.007 C 
ENDBRANCH  14  15
BRANCH  14  17
HETATM   17  C4  UNL     1      12.468 -10.339  21.109  1.00  0.00     0.256 C 
HETATM   18  O1  UNL     1      13.034 -10.048  20.067  1.00  0.00    -0.305 OA
ENDBRANCH  14  17
ENDBRANCH  12  14
ENDBRANCH  11  12
BRANCH  11  19
HETATM   19  O2  UNL     1      15.368 -11.822  21.352  1.00  0.00    -0.348 OA
ATOM     20  H2  UNL     1      16.234 -12.175  21.189  1.00  0.00     0.219 HD
ENDBRANCH  11  19
ENDBRANCH  10  11
BRANCH  10  21
HETATM   21  C29 UNL     1      13.975 -14.805  20.660  1.00  0.00    -0.023 C 
HETATM   22  C30 UNL     1      13.732 -13.975  19.387  1.00  0.00     0.017 C 
HETATM   23  C31 UNL     1      14.696 -16.056  20.126  1.00  0.00     0.017 C 
HETATM   24  C32 UNL     1      12.637 -15.226  21.155  1.00  0.00     0.017 C 
ENDBRANCH  10  21
ENDBRANCH   7  10
ENDBRANCH   5   6
BRANCH   5  25
HETATM   25  C26 UNL     1      18.959 -15.664  21.055  1.00  0.00     0.009 C 
HETATM   26  C27 UNL     1      19.844 -16.795  21.495  1.00  0.00     0.012 C 
HETATM   27  C28 UNL     1      19.653 -14.956  19.907  1.00  0.00     0.012 C 
ENDBRANCH   5  25
ENDBRANCH   1   5
BRANCH   3  28
HETATM   28  C10 UNL     1      21.518 -14.616  24.764  1.00  0.00     0.112 C 
HETATM   29  C11 UNL     1      22.982 -14.252  24.723  1.00  0.00     0.049 C 
HETATM   30  C12 UNL     1      20.838 -13.670  25.702  1.00  0.00     0.042 C 
HETATM   31  C13 UNL     1      20.596 -14.460  26.940  1.00  0.00     0.023 C 
HETATM   32  C14 UNL     1      20.349 -15.842  26.368  1.00  0.00     0.127 C 
HETATM   33  N4  UNL     1      21.326 -15.937  25.270  1.00  0.00    -0.332 N 
HETATM   34  C15 UNL     1      21.911 -17.169  24.888  1.00  0.00     0.243 C 
HETATM   35  O5  UNL     1      22.749 -17.181  23.956  1.00  0.00    -0.271 OA
BRANCH  34  36
HETATM   36  C16 UNL     1      21.580 -18.456  25.544  1.00  0.00     0.172 C 
HETATM   37  C17 UNL     1      21.625 -19.626  24.576  1.00  0.00     0.042 C 
BRANCH  36  38
HETATM   38  N5  UNL     1      22.484 -18.736  26.626  1.00  0.00    -0.348 N 
HETATM   39  C18 UNL     1      22.006 -19.106  27.923  1.00  0.00     0.224 C 
HETATM   40  O6  UNL     1      20.766 -19.179  28.088  1.00  0.00    -0.273 OA
ATOM     41  H5  UNL     1      23.489 -18.669  26.466  1.00  0.00     0.163 HD
BRANCH  39  42
HETATM   42  C19 UNL     1      22.910 -19.401  29.048  1.00  0.00     0.095 C 
HETATM   43  C20 UNL     1      22.120 -19.614  30.288  1.00  0.00     0.017 C 
HETATM   44  C21 UNL     1      22.906 -19.441  31.563  1.00  0.00     0.020 C 
HETATM   45  C22 UNL     1      23.594 -18.093  31.507  1.00  0.00     0.117 C 
HETATM   46  N6  UNL     1      24.518 -18.135  30.429  1.00  0.00    -0.412 N 
HETATM   47  C25 UNL     1      24.010 -18.400  29.136  1.00  0.00     0.131 C 
BRANCH  46  48
HETATM   48  C23 UNL     1      25.766 -18.780  30.681  1.00  0.00     0.112 C 
HETATM   49  C24 UNL     1      26.890 -18.254  29.829  1.00  0.00     0.026 C 
ENDBRANCH  46  48
ENDBRANCH  39  42
ENDBRANCH  36  38
ENDBRANCH  34  36
ENDBRANCH   3  28
TORSDOF 16
ENDMDL
MODEL 5
REMARK VINA RESULT: -8.230807232      2.189     10.733
REMARK  16 active torsions:
REMARK  status: ('A' for Active; 'I' for Inactive)
REMARK    1  A    between atoms: C2_2  and  C3_3 
REMARK    2  A    between atoms: C3_3  and  C4_4 
REMARK    3  A    between atoms: C3_3  and  N1_6 
REMARK    4  A    between atoms: N1_6  and  C5_8 
REMARK    5  A    between atoms: C5_8  and  O2_9 
REMARK    6  A    between atoms: C5_8  and  C6_11 
REMARK    7  A    between atoms: C6_11  and  N2_12 
REMARK    8  A    between atoms: C6_11  and  C29_46 
REMARK       I    between atoms: N2_12  and  C7_14 
REMARK    9  A    between atoms: C7_14  and  C8_16 
REMARK   10  A    between atoms: C8_16  and  N3_17 
REMARK   11  A    between atoms: C8_16  and  C26_43 
REMARK       I    between atoms: N3_17  and  C9_19 
REMARK   12  A    between atoms: C9_19  and  C10_21 
REMARK       I    between atoms: N4_26  and  C15_27 
REMARK   13  A    between atoms: C15_27  and  C16_29 
REMARK   14  A    between atoms: C16_29  and  N5_31 
REMARK       I    between atoms: N5_31  and  C18_33 
REMARK   15  A    between atoms: C18_33  and  C19_35 
REMARK   16  A    between atoms: N6_39  and  C23_40 
ROOT
HETATM    1  N3  UNL     1      17.781 -14.780  19.611  1.00  0.00    -0.345 N 
ATOM      2  H3  UNL     1      17.603 -13.833  19.275  1.00  0.00     0.163 HD
HETATM    3  C9  UNL     1      16.636 -15.481  20.005  1.00  0.00     0.246 C 
HETATM    4  O4  UNL     1      16.590 -16.651  20.466  1.00  0.00    -0.271 OA
ENDROOT
BRANCH   1   5
HETATM    5  C8  UNL     1      19.143 -15.160  19.600  1.00  0.00     0.180 C 
BRANCH   5   6
HETATM    6  C7  UNL     1      19.602 -15.944  20.795  1.00  0.00     0.241 C 
HETATM    7  N2  UNL     1      19.076 -15.690  22.084  1.00  0.00    -0.347 N 
ATOM      8  H2  UNL     1      18.370 -14.961  22.183  1.00  0.00     0.163 HD
HETATM    9  O3  UNL     1      20.459 -16.840  20.707  1.00  0.00    -0.271 OA
BRANCH   7  10
HETATM   10  C6  UNL     1      19.489 -16.414  23.273  1.00  0.00     0.166 C 
BRANCH  10  11
HETATM   11  C5  UNL     1      20.874 -16.073  23.627  1.00  0.00     0.136 C 
BRANCH  11  12
HETATM   12  N1  UNL     1      21.439 -14.825  23.887  1.00  0.00    -0.362 N 
ATOM     13  H1  UNL     1      21.454 -14.114  23.156  1.00  0.00     0.162 HD
BRANCH  12  14
HETATM   14  C3  UNL     1      22.014 -14.523  25.206  1.00  0.00     0.144 C 
BRANCH  14  15
HETATM   15  C2  UNL     1      21.246 -13.443  25.920  1.00  0.00     0.028 C 
HETATM   16  C1  UNL     1      20.832 -13.903  27.310  1.00  0.00     0.007 C 
ENDBRANCH  14  15
BRANCH  14  17
HETATM   17  C4  UNL     1      23.410 -14.086  25.018  1.00  0.00     0.256 C 
HETATM   18  O1  UNL     1      24.121 -14.425  24.085  1.00  0.00    -0.305 OA
ENDBRANCH  14  17
ENDBRANCH  12  14
ENDBRANCH  11  12
BRANCH  11  19
HETATM   19  O2  UNL     1      21.709 -17.069  23.714  1.00  0.00    -0.348 OA
ATOM     20  H2  UNL     1      22.286 -17.031  24.468  1.00  0.00     0.219 HD
ENDBRANCH  11  19
ENDBRANCH  10  11
BRANCH  10  21
HETATM   21  C29 UNL     1      18.563 -16.369  24.412  1.00  0.00    -0.023 C 
HETATM   22  C30 UNL     1      17.976 -14.961  24.616  1.00  0.00     0.017 C 
HETATM   23  C31 UNL     1      17.321 -17.218  24.087  1.00  0.00     0.017 C 
HETATM   24  C32 UNL     1      19.082 -16.809  25.734  1.00  0.00     0.017 C 
ENDBRANCH  10  21
ENDBRANCH   7  10
ENDBRANCH   5   6
BRANCH   5  25
HETATM   25  C26 UNL     1      20.093 -14.070  19.235  1.00  0.00     0.009 C 
HETATM   26  C27 UNL     1      20.093 -12.905  20.182  1.00  0.00     0.012 C 
HETATM   27  C28 UNL     1      19.700 -13.549  17.866  1.00  0.00     0.012 C 
ENDBRANCH   5  25
ENDBRANCH   1   5
BRANCH   3  28
HETATM   28  C10 UNL     1      15.287 -14.821  19.886  1.00  0.00     0.112 C 
HETATM   29  C11 UNL     1      14.206 -15.838  19.618  1.00  0.00     0.049 C 
HETATM   30  C12 UNL     1      15.021 -14.214  21.227  1.00  0.00     0.042 C 
HETATM   31  C13 UNL     1      14.464 -12.864  20.937  1.00  0.00     0.023 C 
HETATM   32  C14 UNL     1      15.212 -12.499  19.671  1.00  0.00     0.127 C 
HETATM   33  N4  UNL     1      15.259 -13.768  18.924  1.00  0.00    -0.332 N 
HETATM   34  C15 UNL     1      15.256 -13.808  17.508  1.00  0.00     0.243 C 
HETATM   35  O5  UNL     1      15.280 -14.921  16.931  1.00  0.00    -0.271 OA
BRANCH  34  36
HETATM   36  C16 UNL     1      15.223 -12.588  16.667  1.00  0.00     0.172 C 
HETATM   37  C17 UNL     1      16.572 -11.889  16.610  1.00  0.00     0.042 C 
BRANCH  36  38
HETATM   38  N5  UNL     1      14.821 -12.894  15.321  1.00  0.00    -0.348 N 
HETATM   39  C18 UNL     1      14.425 -11.867  14.407  1.00  0.00     0.224 C 
HETATM   40  O6  UNL     1      14.440 -10.683  14.819  1.00  0.00    -0.273 OA
ATOM     41  H5  UNL     1      14.817 -13.866  15.011  1.00  0.00     0.163 HD
BRANCH  39  42
HETATM   42  C19 UNL     1      14.011 -12.153  13.022  1.00  0.00     0.095 C 
HETATM   43  C20 UNL     1      12.868 -13.102  13.024  1.00  0.00     0.017 C 
HETATM   44  C21 UNL     1      12.671 -13.837  11.722  1.00  0.00     0.020 C 
HETATM   45  C22 UNL     1      13.990 -14.476  11.342  1.00  0.00     0.117 C 
HETATM   46  N6  UNL     1      14.917 -13.424  11.111  1.00  0.00    -0.412 N 
HETATM   47  C25 UNL     1      15.176 -12.530  12.175  1.00  0.00     0.131 C 
BRANCH  46  48
HETATM   48  C23 UNL     1      14.846 -12.776   9.841  1.00  0.00     0.112 C 
HETATM   49  C24 UNL     1      16.188 -12.626   9.176  1.00  0.00     0.026 C 
ENDBRANCH  46  48
ENDBRANCH  39  42
ENDBRANCH  36  38
ENDBRANCH  34  36
ENDBRANCH   3  28
TORSDOF 16
ENDMDL
