MODEL 1
REMARK VINA RESULT: -8.568198370      0.000      0.000
REMARK  5 active torsions:
REMARK  status: ('A' for Active; 'I' for Inactive)
REMARK    1  A    between atoms: C3_7  and  O2_8 
REMARK    2  A    between atoms: C4_10  and  C5_11 
REMARK    3  A    between atoms: N3_12  and  N4_14 
REMARK    4  A    between atoms: N4_14  and  C6_16 
REMARK    5  A    between atoms: C6_16  and  N5_18 
ROOT
HETATM    1  N5  UNL     1     -17.052  67.660  71.370  1.00  0.00    -0.269 N 
ATOM      2  H5  UNL     1     -17.061  66.976  70.614  1.00  0.00     0.180 HD
HETATM    3  C7  UNL     1     -17.386  67.224  72.658  1.00  0.00     0.184 C 
HETATM    4  N6  UNL     1     -17.673  66.851  73.714  1.00  0.00    -0.172 NA
ENDROOT
BRANCH   1   5
HETATM    5  C6  UNL     1     -16.704  68.988  71.058  1.00  0.00     0.199 C 
HETATM    6  S1  UNL     1     -17.135  70.178  72.066  1.00  0.00    -0.038 SA
BRANCH   5   7
HETATM    7  N4  UNL     1     -15.991  69.275  69.884  1.00  0.00    -0.276 N 
ATOM      8  H4  UNL     1     -14.978  69.160  69.852  1.00  0.00     0.189 HD
BRANCH   7   9
HETATM    9  N3  UNL     1     -16.693  69.724  68.756  1.00  0.00    -0.309 N 
HETATM   10  C5  UNL     1     -17.969  69.814  68.715  1.00  0.00     0.128 C 
ATOM     11  H3  UNL     1     -16.161  69.992  67.929  1.00  0.00     0.186 HD
BRANCH  10  12
HETATM   12  C4  UNL     1     -18.621  70.288  67.513  1.00  0.00     0.100 A 
HETATM   13  C3  UNL     1     -19.737  69.601  67.026  1.00  0.00     0.161 A 
HETATM   14  N2  UNL     1     -20.326  70.051  65.916  1.00  0.00    -0.288 N 
HETATM   15  C2  UNL     1     -19.866  71.139  65.271  1.00  0.00     0.331 A 
ATOM     16  H2  UNL     1     -21.141  69.560  65.549  1.00  0.00     0.172 HD
HETATM   17  N1  UNL     1     -18.792  71.831  65.705  1.00  0.00    -0.270 N 
HETATM   18  O1  UNL     1     -20.413  71.584  64.212  1.00  0.00    -0.246 OA
HETATM   19  C1  UNL     1     -18.319  73.002  64.985  1.00  0.00     0.164 C 
HETATM   20  C8  UNL     1     -18.191  71.399  66.809  1.00  0.00     0.267 A 
HETATM   21  O3  UNL     1     -17.189  72.031  67.228  1.00  0.00    -0.267 OA
BRANCH  13  22
HETATM   22  O2  UNL     1     -20.163  68.489  67.735  1.00  0.00    -0.345 OA
ATOM     23  H2  UNL     1     -19.578  67.852  68.129  1.00  0.00     0.219 HD
ENDBRANCH  13  22
ENDBRANCH  10  12
ENDBRANCH   7   9
ENDBRANCH   5   7
ENDBRANCH   1   5
TORSDOF 5
ENDMDL
MODEL 2
REMARK VINA RESULT: -8.313651591      1.122      1.142
REMARK  5 active torsions:
REMARK  status: ('A' for Active; 'I' for Inactive)
REMARK    1  A    between atoms: C3_7  and  O2_8 
REMARK    2  A    between atoms: C4_10  and  C5_11 
REMARK    3  A    between atoms: N3_12  and  N4_14 
REMARK    4  A    between atoms: N4_14  and  C6_16 
REMARK    5  A    between atoms: C6_16  and  N5_18 
ROOT
HETATM    1  N5  UNL     1     -16.569  68.844  71.789  1.00  0.00    -0.269 N 
ATOM      2  H5  UNL     1     -15.605  69.142  71.942  1.00  0.00     0.180 HD
HETATM    3  C7  UNL     1     -17.068  67.798  72.575  1.00  0.00     0.184 C 
HETATM    4  N6  UNL     1     -17.463  66.927  73.226  1.00  0.00    -0.172 NA
ENDROOT
BRANCH   1   5
HETATM    5  C6  UNL     1     -17.319  69.507  70.800  1.00  0.00     0.199 C 
HETATM    6  S1  UNL     1     -17.813  71.024  71.064  1.00  0.00    -0.038 SA
BRANCH   5   7
HETATM    7  N4  UNL     1     -17.635  68.857  69.597  1.00  0.00    -0.276 N 
ATOM      8  H4  UNL     1     -17.363  67.886  69.445  1.00  0.00     0.189 HD
BRANCH   7   9
HETATM    9  N3  UNL     1     -18.330  69.566  68.605  1.00  0.00    -0.309 N 
HETATM   10  C5  UNL     1     -17.790  69.958  67.514  1.00  0.00     0.128 C 
ATOM     11  H3  UNL     1     -19.315  69.778  68.763  1.00  0.00     0.186 HD
BRANCH  10  12
HETATM   12  C4  UNL     1     -18.575  70.683  66.539  1.00  0.00     0.100 A 
HETATM   13  C3  UNL     1     -19.778  70.131  66.086  1.00  0.00     0.161 A 
HETATM   14  N2  UNL     1     -20.490  70.813  65.186  1.00  0.00    -0.288 N 
HETATM   15  C2  UNL     1     -20.072  72.003  64.718  1.00  0.00     0.331 A 
ATOM     16  H2  UNL     1     -21.369  70.423  64.846  1.00  0.00     0.172 HD
HETATM   17  N1  UNL     1     -18.919  72.571  65.127  1.00  0.00    -0.270 N 
HETATM   18  O1  UNL     1     -20.737  72.668  63.860  1.00  0.00    -0.246 OA
HETATM   19  C1  UNL     1     -18.494  73.858  64.601  1.00  0.00     0.164 C 
HETATM   20  C8  UNL     1     -18.194  71.908  66.023  1.00  0.00     0.267 A 
HETATM   21  O3  UNL     1     -17.116  72.422  66.415  1.00  0.00    -0.267 OA
BRANCH  13  22
HETATM   22  O2  UNL     1     -20.155  68.903  66.607  1.00  0.00    -0.345 OA
ATOM     23  H2  UNL     1     -21.039  68.557  66.568  1.00  0.00     0.219 HD
ENDBRANCH  13  22
ENDBRANCH  10  12
ENDBRANCH   7   9
ENDBRANCH   5   7
ENDBRANCH   1   5
TORSDOF 5
ENDMDL
MODEL 3
REMARK VINA RESULT: -7.579671244      3.339      6.832
REMARK  5 active torsions:
REMARK  status: ('A' for Active; 'I' for Inactive)
REMARK    1  A    between atoms: C3_7  and  O2_8 
REMARK    2  A    between atoms: C4_10  and  C5_11 
REMARK    3  A    between atoms: N3_12  and  N4_14 
REMARK    4  A    between atoms: N4_14  and  C6_16 
REMARK    5  A    between atoms: C6_16  and  N5_18 
ROOT
HETATM    1  N5  UNL     1     -21.154  72.531  63.837  1.00  0.00    -0.269 N 
ATOM      2  H5  UNL     1     -21.433  71.567  64.021  1.00  0.00     0.180 HD
HETATM    3  C7  UNL     1     -22.161  73.475  63.602  1.00  0.00     0.184 C 
HETATM    4  N6  UNL     1     -23.004  74.241  63.401  1.00  0.00    -0.172 NA
ENDROOT
BRANCH   1   5
HETATM    5  C6  UNL     1     -19.780  72.834  63.833  1.00  0.00     0.199 C 
HETATM    6  S1  UNL     1     -19.290  74.285  63.311  1.00  0.00    -0.038 SA
BRANCH   5   7
HETATM    7  N4  UNL     1     -18.845  71.887  64.278  1.00  0.00    -0.276 N 
ATOM      8  H4  UNL     1     -18.241  71.403  63.614  1.00  0.00     0.189 HD
BRANCH   7   9
HETATM    9  N3  UNL     1     -18.755  71.616  65.651  1.00  0.00    -0.309 N 
HETATM   10  C5  UNL     1     -18.996  70.465  66.156  1.00  0.00     0.128 C 
ATOM     11  H3  UNL     1     -18.484  72.373  66.278  1.00  0.00     0.186 HD
BRANCH  10  12
HETATM   12  C4  UNL     1     -18.880  70.264  67.584  1.00  0.00     0.100 A 
HETATM   13  C3  UNL     1     -19.893  69.577  68.261  1.00  0.00     0.161 A 
HETATM   14  N2  UNL     1     -19.770  69.401  69.578  1.00  0.00    -0.288 N 
HETATM   15  C2  UNL     1     -18.703  69.868  70.251  1.00  0.00     0.331 A 
ATOM     16  H2  UNL     1     -20.501  68.902  70.085  1.00  0.00     0.172 HD
HETATM   17  N1  UNL     1     -17.704  70.537  69.638  1.00  0.00    -0.270 N 
HETATM   18  O1  UNL     1     -18.568  69.711  71.506  1.00  0.00    -0.246 OA
HETATM   19  C1  UNL     1     -16.564  71.030  70.394  1.00  0.00     0.164 C 
HETATM   20  C8  UNL     1     -17.807  70.723  68.326  1.00  0.00     0.267 A 
HETATM   21  O3  UNL     1     -16.886  71.344  67.738  1.00  0.00    -0.267 OA
BRANCH  13  22
HETATM   22  O2  UNL     1     -20.966  69.119  67.512  1.00  0.00    -0.345 OA
ATOM     23  H2  UNL     1     -21.617  69.684  67.114  1.00  0.00     0.219 HD
ENDBRANCH  13  22
ENDBRANCH  10  12
ENDBRANCH   7   9
ENDBRANCH   5   7
ENDBRANCH   1   5
TORSDOF 5
ENDMDL
MODEL 4
REMARK VINA RESULT: -7.565791443      1.801      2.213
REMARK  5 active torsions:
REMARK  status: ('A' for Active; 'I' for Inactive)
REMARK    1  A    between atoms: C3_7  and  O2_8 
REMARK    2  A    between atoms: C4_10  and  C5_11 
REMARK    3  A    between atoms: N3_12  and  N4_14 
REMARK    4  A    between atoms: N4_14  and  C6_16 
REMARK    5  A    between atoms: C6_16  and  N5_18 
ROOT
HETATM    1  N5  UNL     1     -17.235  69.771  71.450  1.00  0.00    -0.269 N 
ATOM      2  H5  UNL     1     -17.197  70.164  72.391  1.00  0.00     0.180 HD
HETATM    3  C7  UNL     1     -16.788  68.457  71.266  1.00  0.00     0.184 C 
HETATM    4  N6  UNL     1     -16.408  67.374  71.128  1.00  0.00    -0.172 NA
ENDROOT
BRANCH   1   5
HETATM    5  C6  UNL     1     -17.732  70.583  70.413  1.00  0.00     0.199 C 
HETATM    6  S1  UNL     1     -18.806  71.741  70.759  1.00  0.00    -0.038 SA
BRANCH   5   7
HETATM    7  N4  UNL     1     -17.298  70.388  69.093  1.00  0.00    -0.276 N 
ATOM      8  H4  UNL     1     -16.570  69.706  68.882  1.00  0.00     0.189 HD
BRANCH   7   9
HETATM    9  N3  UNL     1     -17.884  71.146  68.068  1.00  0.00    -0.309 N 
HETATM   10  C5  UNL     1     -18.048  70.706  66.877  1.00  0.00     0.128 C 
ATOM     11  H3  UNL     1     -18.193  72.093  68.282  1.00  0.00     0.186 HD
BRANCH  10  12
HETATM   12  C4  UNL     1     -18.662  71.550  65.875  1.00  0.00     0.100 A 
HETATM   13  C3  UNL     1     -19.822  71.108  65.229  1.00  0.00     0.161 A 
HETATM   14  N2  UNL     1     -20.375  71.899  64.306  1.00  0.00    -0.288 N 
HETATM   15  C2  UNL     1     -19.840  73.093  63.995  1.00  0.00     0.331 A 
ATOM     16  H2  UNL     1     -21.220  71.590  63.827  1.00  0.00     0.172 HD
HETATM   17  N1  UNL     1     -18.722  73.557  64.592  1.00  0.00    -0.270 N 
HETATM   18  O1  UNL     1     -20.352  73.861  63.119  1.00  0.00    -0.246 OA
HETATM   19  C1  UNL     1     -18.168  74.852  64.234  1.00  0.00     0.164 C 
HETATM   20  C8  UNL     1     -18.155  72.785  65.515  1.00  0.00     0.267 A 
HETATM   21  O3  UNL     1     -17.114  73.201  66.081  1.00  0.00    -0.267 OA
BRANCH  13  22
HETATM   22  O2  UNL     1     -20.325  69.869  65.594  1.00  0.00    -0.345 OA
ATOM     23  H2  UNL     1     -20.379  69.559  66.490  1.00  0.00     0.219 HD
ENDBRANCH  13  22
ENDBRANCH  10  12
ENDBRANCH   7   9
ENDBRANCH   5   7
ENDBRANCH   1   5
TORSDOF 5
ENDMDL
MODEL 5
REMARK VINA RESULT: -7.560723602      1.458      2.105
REMARK  5 active torsions:
REMARK  status: ('A' for Active; 'I' for Inactive)
REMARK    1  A    between atoms: C3_7  and  O2_8 
REMARK    2  A    between atoms: C4_10  and  C5_11 
REMARK    3  A    between atoms: N3_12  and  N4_14 
REMARK    4  A    between atoms: N4_14  and  C6_16 
REMARK    5  A    between atoms: C6_16  and  N5_18 
ROOT
HETATM    1  N5  UNL     1     -16.025  70.319  71.119  1.00  0.00    -0.269 N 
ATOM      2  H5  UNL     1     -15.049  70.379  70.828  1.00  0.00     0.180 HD
HETATM    3  C7  UNL     1     -16.713  71.513  71.366  1.00  0.00     0.184 C 
HETATM    4  N6  UNL     1     -17.266  72.507  71.575  1.00  0.00    -0.172 NA
ENDROOT
BRANCH   1   5
HETATM    5  C6  UNL     1     -16.601  69.041  71.249  1.00  0.00     0.199 C 
HETATM    6  S1  UNL     1     -16.640  68.334  72.703  1.00  0.00    -0.038 SA
BRANCH   5   7
HETATM    7  N4  UNL     1     -17.135  68.389  70.127  1.00  0.00    -0.276 N 
ATOM      8  H4  UNL     1     -17.308  67.384  70.146  1.00  0.00     0.189 HD
BRANCH   7   9
HETATM    9  N3  UNL     1     -17.426  69.141  68.979  1.00  0.00    -0.309 N 
HETATM   10  C5  UNL     1     -18.612  69.492  68.653  1.00  0.00     0.128 C 
ATOM     11  H3  UNL     1     -16.653  69.421  68.375  1.00  0.00     0.186 HD
BRANCH  10  12
HETATM   12  C4  UNL     1     -18.831  70.269  67.452  1.00  0.00     0.100 A 
HETATM   13  C3  UNL     1     -19.893  69.933  66.607  1.00  0.00     0.161 A 
HETATM   14  N2  UNL     1     -20.080  70.660  65.503  1.00  0.00    -0.288 N 
HETATM   15  C2  UNL     1     -19.274  71.694  65.200  1.00  0.00     0.331 A 
ATOM     16  H2  UNL     1     -20.851  70.427  64.877  1.00  0.00     0.172 HD
HETATM   17  N1  UNL     1     -18.237  72.051  65.986  1.00  0.00    -0.270 N 
HETATM   18  O1  UNL     1     -19.435  72.398  64.153  1.00  0.00    -0.246 OA
HETATM   19  C1  UNL     1     -17.383  73.172  65.630  1.00  0.00     0.164 C 
HETATM   20  C8  UNL     1     -18.033  71.339  67.091  1.00  0.00     0.267 A 
HETATM   21  O3  UNL     1     -17.072  71.657  67.835  1.00  0.00    -0.267 OA
BRANCH  13  22
HETATM   22  O2  UNL     1     -20.689  68.860  66.975  1.00  0.00    -0.345 OA
ATOM     23  H2  UNL     1     -21.392  68.510  66.440  1.00  0.00     0.219 HD
ENDBRANCH  13  22
ENDBRANCH  10  12
ENDBRANCH   7   9
ENDBRANCH   5   7
ENDBRANCH   1   5
TORSDOF 5
ENDMDL
