MODEL 1
REMARK VINA RESULT: -8.552941128      0.000      0.000
REMARK  6 active torsions:
REMARK  status: ('A' for Active; 'I' for Inactive)
REMARK    1  A    between atoms: N1_1  and  C1_5 
REMARK       I    between atoms: N3_9  and  C3_11 
REMARK    2  A    between atoms: C3_11  and  C4_13 
REMARK    3  A    between atoms: C4_13  and  N4_14 
REMARK    4  A    between atoms: C4_13  and  N5_18 
REMARK    5  A    between atoms: C5_19  and  O2_20 
REMARK    6  A    between atoms: C8_24  and  O3_25 
ROOT
HETATM    1  C4  UNL     1     -19.166  69.464  67.324  1.00  0.00     0.384 C 
ENDROOT
BRANCH   1   2
HETATM    2  C3  UNL     1     -19.415  69.732  68.765  1.00  0.00     0.274 C 
HETATM    3  N3  UNL     1     -18.468  69.327  69.740  1.00  0.00    -0.310 N 
HETATM    4  C2  UNL     1     -18.178  70.013  70.781  1.00  0.00     0.132 A 
ATOM      5  H3  UNL     1     -17.989  68.437  69.603  1.00  0.00     0.170 HD
HETATM    6  C1  UNL     1     -17.519  70.370  72.045  1.00  0.00     0.351 A 
HETATM    7  N2  UNL     1     -18.488  71.261  71.486  1.00  0.00    -0.343 N 
ATOM      8  H2  UNL     1     -19.015  72.134  71.538  1.00  0.00     0.163 HD
HETATM    9  O1  UNL     1     -20.452  70.315  69.166  1.00  0.00    -0.269 OA
BRANCH   6  10
HETATM   10  N1  UNL     1     -16.136  70.833  72.012  1.00  0.00    -0.051 N 
ATOM     11  H13 UNL     1     -15.844  70.984  71.047  1.00  0.00     0.277 HD
ATOM     12  H12 UNL     1     -16.080  71.785  72.372  1.00  0.00     0.277 HD
ATOM     13  H11 UNL     1     -15.457  70.241  72.491  1.00  0.00     0.277 HD
ENDBRANCH   6  10
ENDBRANCH   1   2
BRANCH   1  14
HETATM   14  N4  UNL     1     -20.298  68.873  66.678  1.00  0.00    -0.049 N 
ATOM     15  H43 UNL     1     -20.770  68.212  67.295  1.00  0.00     0.277 HD
ATOM     16  H42 UNL     1     -21.051  69.551  66.560  1.00  0.00     0.277 HD
ATOM     17  H41 UNL     1     -20.052  68.437  65.789  1.00  0.00     0.277 HD
ENDBRANCH   1  14
BRANCH   1  18
HETATM   18  N5  UNL     1     -18.783  70.687  66.626  1.00  0.00    -0.270 N 
HETATM   19  C5  UNL     1     -19.369  71.189  65.535  1.00  0.00     0.153 A 
HETATM   20  C6  UNL     1     -18.700  72.342  65.211  1.00  0.00     0.004 A 
HETATM   21  C7  UNL     1     -17.694  72.540  66.121  1.00  0.00     0.004 A 
HETATM   22  C11 UNL     1     -18.659  73.466  64.236  1.00  0.00     0.044 C 
HETATM   23  C8  UNL     1     -17.775  71.480  66.996  1.00  0.00     0.153 A 
HETATM   24  C9  UNL     1     -16.933  73.796  65.799  1.00  0.00     0.044 C 
HETATM   25  C10 UNL     1     -17.956  74.568  65.001  1.00  0.00     0.009 C 
BRANCH  19  26
HETATM   26  O2  UNL     1     -20.476  70.638  64.838  1.00  0.00    -0.345 OA
ATOM     27  H2  UNL     1     -21.352  71.002  64.785  1.00  0.00     0.219 HD
ENDBRANCH  19  26
BRANCH  23  28
HETATM   28  O3  UNL     1     -16.901  71.326  68.082  1.00  0.00    -0.345 OA
ATOM     29  H3  UNL     1     -16.771  71.909  68.820  1.00  0.00     0.219 HD
ENDBRANCH  23  28
ENDBRANCH   1  18
TORSDOF 6
ENDMDL
MODEL 2
REMARK VINA RESULT: -7.702622099      0.298      1.966
REMARK  6 active torsions:
REMARK  status: ('A' for Active; 'I' for Inactive)
REMARK    1  A    between atoms: N1_1  and  C1_5 
REMARK       I    between atoms: N3_9  and  C3_11 
REMARK    2  A    between atoms: C3_11  and  C4_13 
REMARK    3  A    between atoms: C4_13  and  N4_14 
REMARK    4  A    between atoms: C4_13  and  N5_18 
REMARK    5  A    between atoms: C5_19  and  O2_20 
REMARK    6  A    between atoms: C8_24  and  O3_25 
ROOT
HETATM    1  C4  UNL     1     -19.176  69.535  67.126  1.00  0.00     0.384 C 
ENDROOT
BRANCH   1   2
HETATM    2  C3  UNL     1     -19.414  69.671  68.588  1.00  0.00     0.274 C 
HETATM    3  N3  UNL     1     -18.421  69.259  69.514  1.00  0.00    -0.310 N 
HETATM    4  C2  UNL     1     -18.159  69.880  70.602  1.00  0.00     0.132 A 
ATOM      5  H3  UNL     1     -17.885  68.419  69.300  1.00  0.00     0.170 HD
HETATM    6  C1  UNL     1     -17.501  70.183  71.881  1.00  0.00     0.351 A 
HETATM    7  N2  UNL     1     -18.541  71.045  71.408  1.00  0.00    -0.343 N 
ATOM      8  H2  UNL     1     -19.125  71.871  71.537  1.00  0.00     0.163 HD
HETATM    9  O1  UNL     1     -20.480  70.146  69.049  1.00  0.00    -0.269 OA
BRANCH   6  10
HETATM   10  N1  UNL     1     -16.154  70.744  71.864  1.00  0.00    -0.051 N 
ATOM     11  H13 UNL     1     -16.012  71.281  71.009  1.00  0.00     0.277 HD
ATOM     12  H12 UNL     1     -16.079  71.485  72.560  1.00  0.00     0.277 HD
ATOM     13  H11 UNL     1     -15.393  70.076  71.984  1.00  0.00     0.277 HD
ENDBRANCH   6  10
ENDBRANCH   1   2
BRANCH   1  14
HETATM   14  N4  UNL     1     -20.309  68.995  66.440  1.00  0.00    -0.049 N 
ATOM     15  H43 UNL     1     -20.661  69.647  65.739  1.00  0.00     0.277 HD
ATOM     16  H42 UNL     1     -20.035  68.228  65.825  1.00  0.00     0.277 HD
ATOM     17  H41 UNL     1     -21.049  68.707  67.081  1.00  0.00     0.277 HD
ENDBRANCH   1  14
BRANCH   1  18
HETATM   18  N5  UNL     1     -18.809  70.818  66.538  1.00  0.00    -0.270 N 
HETATM   19  C5  UNL     1     -17.801  71.604  66.926  1.00  0.00     0.153 A 
HETATM   20  C6  UNL     1     -17.809  72.707  66.109  1.00  0.00     0.004 A 
HETATM   21  C7  UNL     1     -18.841  72.586  65.214  1.00  0.00     0.004 A 
HETATM   22  C11 UNL     1     -17.114  73.993  65.831  1.00  0.00     0.044 C 
HETATM   23  C8  UNL     1     -19.448  71.387  65.513  1.00  0.00     0.153 A 
HETATM   24  C9  UNL     1     -18.886  73.778  64.301  1.00  0.00     0.044 C 
HETATM   25  C10 UNL     1     -17.463  74.273  64.384  1.00  0.00     0.009 C 
BRANCH  19  26
HETATM   26  O2  UNL     1     -16.887  71.351  67.983  1.00  0.00    -0.345 OA
ATOM     27  H2  UNL     1     -15.995  71.671  68.050  1.00  0.00     0.219 HD
ENDBRANCH  19  26
BRANCH  23  28
HETATM   28  O3  UNL     1     -20.559  70.904  64.806  1.00  0.00    -0.345 OA
ATOM     29  H3  UNL     1     -20.594  70.191  64.180  1.00  0.00     0.219 HD
ENDBRANCH  23  28
ENDBRANCH   1  18
TORSDOF 6
ENDMDL
MODEL 3
REMARK VINA RESULT: -7.563529027      1.451      1.871
REMARK  6 active torsions:
REMARK  status: ('A' for Active; 'I' for Inactive)
REMARK    1  A    between atoms: N1_1  and  C1_5 
REMARK       I    between atoms: N3_9  and  C3_11 
REMARK    2  A    between atoms: C3_11  and  C4_13 
REMARK    3  A    between atoms: C4_13  and  N4_14 
REMARK    4  A    between atoms: C4_13  and  N5_18 
REMARK    5  A    between atoms: C5_19  and  O2_20 
REMARK    6  A    between atoms: C8_24  and  O3_25 
ROOT
HETATM    1  C4  UNL     1     -17.946  70.254  67.316  1.00  0.00     0.384 C 
ENDROOT
BRANCH   1   2
HETATM    2  C3  UNL     1     -17.826  70.952  68.623  1.00  0.00     0.274 C 
HETATM    3  N3  UNL     1     -17.888  70.215  69.834  1.00  0.00    -0.310 N 
HETATM    4  C2  UNL     1     -17.173  70.474  70.864  1.00  0.00     0.132 A 
ATOM      5  H3  UNL     1     -18.541  69.433  69.888  1.00  0.00     0.170 HD
HETATM    6  C1  UNL     1     -16.637  70.342  72.226  1.00  0.00     0.351 A 
HETATM    7  N2  UNL     1     -16.141  71.381  71.376  1.00  0.00    -0.343 N 
ATOM      8  H2  UNL     1     -15.519  72.177  71.231  1.00  0.00     0.163 HD
HETATM    9  O1  UNL     1     -17.668  72.194  68.705  1.00  0.00    -0.269 OA
BRANCH   6  10
HETATM   10  N1  UNL     1     -15.705  69.258  72.515  1.00  0.00    -0.051 N 
ATOM     11  H13 UNL     1     -15.782  68.534  71.800  1.00  0.00     0.277 HD
ATOM     12  H12 UNL     1     -14.748  69.571  72.354  1.00  0.00     0.277 HD
ATOM     13  H11 UNL     1     -15.783  68.839  73.441  1.00  0.00     0.277 HD
ENDBRANCH   6  10
ENDBRANCH   1   2
BRANCH   1  14
HETATM   14  N4  UNL     1     -18.722  69.056  67.410  1.00  0.00    -0.049 N 
ATOM     15  H43 UNL     1     -18.494  68.409  66.655  1.00  0.00     0.277 HD
ATOM     16  H42 UNL     1     -18.429  68.488  68.205  1.00  0.00     0.277 HD
ATOM     17  H41 UNL     1     -19.724  69.246  67.441  1.00  0.00     0.277 HD
ENDBRANCH   1  14
BRANCH   1  18
HETATM   18  N5  UNL     1     -18.519  71.136  66.306  1.00  0.00    -0.270 N 
HETATM   19  C5  UNL     1     -19.715  70.999  65.727  1.00  0.00     0.153 A 
HETATM   20  C6  UNL     1     -19.859  72.039  64.843  1.00  0.00     0.004 A 
HETATM   21  C7  UNL     1     -18.730  72.816  64.888  1.00  0.00     0.004 A 
HETATM   22  C11 UNL     1     -20.787  72.642  63.848  1.00  0.00     0.044 C 
HETATM   23  C8  UNL     1     -17.909  72.219  65.819  1.00  0.00     0.153 A 
HETATM   24  C9  UNL     1     -18.846  73.968  63.930  1.00  0.00     0.044 C 
HETATM   25  C10 UNL     1     -20.344  74.089  63.789  1.00  0.00     0.009 C 
BRANCH  19  26
HETATM   26  O2  UNL     1     -20.666  69.974  65.976  1.00  0.00    -0.345 OA
ATOM     27  H2  UNL     1     -21.483  69.833  65.512  1.00  0.00     0.219 HD
ENDBRANCH  19  26
BRANCH  23  28
HETATM   28  O3  UNL     1     -16.644  72.726  66.149  1.00  0.00    -0.345 OA
ATOM     29  H3  UNL     1     -16.332  73.620  66.075  1.00  0.00     0.219 HD
ENDBRANCH  23  28
ENDBRANCH   1  18
TORSDOF 6
ENDMDL
MODEL 4
REMARK VINA RESULT: -7.237874435      2.401      5.874
REMARK  6 active torsions:
REMARK  status: ('A' for Active; 'I' for Inactive)
REMARK    1  A    between atoms: N1_1  and  C1_5 
REMARK       I    between atoms: N3_9  and  C3_11 
REMARK    2  A    between atoms: C3_11  and  C4_13 
REMARK    3  A    between atoms: C4_13  and  N4_14 
REMARK    4  A    between atoms: C4_13  and  N5_18 
REMARK    5  A    between atoms: C5_19  and  O2_20 
REMARK    6  A    between atoms: C8_24  and  O3_25 
ROOT
HETATM    1  C4  UNL     1     -20.242  70.125  66.935  1.00  0.00     0.384 C 
ENDROOT
BRANCH   1   2
HETATM    2  C3  UNL     1     -19.799  71.045  65.854  1.00  0.00     0.274 C 
HETATM    3  N3  UNL     1     -20.681  71.375  64.792  1.00  0.00    -0.310 N 
HETATM    4  C2  UNL     1     -20.752  72.537  64.261  1.00  0.00     0.132 A 
ATOM      5  H3  UNL     1     -21.294  70.644  64.432  1.00  0.00     0.170 HD
HETATM    6  C1  UNL     1     -21.210  73.604  63.359  1.00  0.00     0.351 A 
HETATM    7  N2  UNL     1     -20.192  73.891  64.322  1.00  0.00    -0.343 N 
ATOM      8  H2  UNL     1     -19.544  74.556  64.746  1.00  0.00     0.163 HD
HETATM    9  O1  UNL     1     -18.653  71.554  65.839  1.00  0.00    -0.269 OA
BRANCH   6  10
HETATM   10  N1  UNL     1     -22.508  74.223  63.602  1.00  0.00    -0.051 N 
ATOM     11  H13 UNL     1     -23.132  73.556  64.056  1.00  0.00     0.277 HD
ATOM     12  H12 UNL     1     -22.425  74.925  64.338  1.00  0.00     0.277 HD
ATOM     13  H11 UNL     1     -22.968  74.628  62.787  1.00  0.00     0.277 HD
ENDBRANCH   6  10
ENDBRANCH   1   2
BRANCH   1  14
HETATM   14  N4  UNL     1     -20.284  68.761  66.504  1.00  0.00    -0.049 N 
ATOM     15  H43 UNL     1     -20.622  68.689  65.544  1.00  0.00     0.277 HD
ATOM     16  H42 UNL     1     -19.343  68.387  66.373  1.00  0.00     0.277 HD
ATOM     17  H41 UNL     1     -20.831  68.173  67.133  1.00  0.00     0.277 HD
ENDBRANCH   1  14
BRANCH   1  18
HETATM   18  N5  UNL     1     -19.381  70.246  68.106  1.00  0.00    -0.270 N 
HETATM   19  C5  UNL     1     -18.067  70.012  68.146  1.00  0.00     0.153 A 
HETATM   20  C6  UNL     1     -17.652  70.245  69.433  1.00  0.00     0.004 A 
HETATM   21  C7  UNL     1     -18.735  70.625  70.183  1.00  0.00     0.004 A 
HETATM   22  C11 UNL     1     -16.461  70.239  70.325  1.00  0.00     0.044 C 
HETATM   23  C8  UNL     1     -19.805  70.615  69.317  1.00  0.00     0.153 A 
HETATM   24  C9  UNL     1     -18.323  70.889  71.605  1.00  0.00     0.044 C 
HETATM   25  C10 UNL     1     -16.853  71.186  71.439  1.00  0.00     0.009 C 
BRANCH  19  26
HETATM   26  O2  UNL     1     -17.246  69.600  67.063  1.00  0.00    -0.345 OA
ATOM     27  H2  UNL     1     -17.098  70.071  66.251  1.00  0.00     0.219 HD
ENDBRANCH  19  26
BRANCH  23  28
HETATM   28  O3  UNL     1     -21.106  70.952  69.717  1.00  0.00    -0.345 OA
ATOM     29  H3  UNL     1     -21.374  71.552  70.403  1.00  0.00     0.219 HD
ENDBRANCH  23  28
ENDBRANCH   1  18
TORSDOF 6
ENDMDL
MODEL 5
REMARK VINA RESULT: -7.202309081      1.487      2.655
REMARK  6 active torsions:
REMARK  status: ('A' for Active; 'I' for Inactive)
REMARK    1  A    between atoms: N1_1  and  C1_5 
REMARK       I    between atoms: N3_9  and  C3_11 
REMARK    2  A    between atoms: C3_11  and  C4_13 
REMARK    3  A    between atoms: C4_13  and  N4_14 
REMARK    4  A    between atoms: C4_13  and  N5_18 
REMARK    5  A    between atoms: C5_19  and  O2_20 
REMARK    6  A    between atoms: C8_24  and  O3_25 
ROOT
HETATM    1  C4  UNL     1     -18.678  70.388  66.518  1.00  0.00     0.384 C 
ENDROOT
BRANCH   1   2
HETATM    2  C3  UNL     1     -18.326  70.736  67.920  1.00  0.00     0.274 C 
HETATM    3  N3  UNL     1     -18.576  69.813  68.968  1.00  0.00    -0.310 N 
HETATM    4  C2  UNL     1     -17.793  69.637  69.965  1.00  0.00     0.132 A 
ATOM      5  H3  UNL     1     -19.430  69.257  68.925  1.00  0.00     0.170 HD
HETATM    6  C1  UNL     1     -17.289  69.078  71.228  1.00  0.00     0.351 A 
HETATM    7  N2  UNL     1     -16.527  70.085  70.554  1.00  0.00    -0.343 N 
ATOM      8  H2  UNL     1     -15.701  70.683  70.513  1.00  0.00     0.163 HD
HETATM    9  O1  UNL     1     -17.806  71.836  68.225  1.00  0.00    -0.269 OA
BRANCH   6  10
HETATM   10  N1  UNL     1     -16.714  67.738  71.225  1.00  0.00    -0.051 N 
ATOM     11  H13 UNL     1     -16.172  67.594  70.373  1.00  0.00     0.277 HD
ATOM     12  H12 UNL     1     -15.974  67.676  71.924  1.00  0.00     0.277 HD
ATOM     13  H11 UNL     1     -17.374  66.970  71.349  1.00  0.00     0.277 HD
ENDBRANCH   6  10
ENDBRANCH   1   2
BRANCH   1  14
HETATM   14  N4  UNL     1     -19.834  69.550  66.440  1.00  0.00    -0.049 N 
ATOM     15  H43 UNL     1     -19.611  68.654  66.005  1.00  0.00     0.277 HD
ATOM     16  H42 UNL     1     -20.111  69.217  67.364  1.00  0.00     0.277 HD
ATOM     17  H41 UNL     1     -20.612  70.008  65.964  1.00  0.00     0.277 HD
ENDBRANCH   1  14
BRANCH   1  18
HETATM   18  N5  UNL     1     -18.886  71.591  65.720  1.00  0.00    -0.270 N 
HETATM   19  C5  UNL     1     -17.974  72.532  65.460  1.00  0.00     0.153 A 
HETATM   20  C6  UNL     1     -18.583  73.482  64.679  1.00  0.00     0.004 A 
HETATM   21  C7  UNL     1     -19.885  73.109  64.466  1.00  0.00     0.004 A 
HETATM   22  C11 UNL     1     -18.357  74.773  63.974  1.00  0.00     0.044 C 
HETATM   23  C8  UNL     1     -20.041  71.916  65.135  1.00  0.00     0.153 A 
HETATM   24  C9  UNL     1     -20.590  74.128  63.614  1.00  0.00     0.044 C 
HETATM   25  C10 UNL     1     -19.429  74.778  62.903  1.00  0.00     0.009 C 
BRANCH  19  26
HETATM   26  O2  UNL     1     -16.625  72.551  65.903  1.00  0.00    -0.345 OA
ATOM     27  H2  UNL     1     -16.177  73.274  66.327  1.00  0.00     0.219 HD
ENDBRANCH  19  26
BRANCH  23  28
HETATM   28  O3  UNL     1     -21.253  71.211  65.153  1.00  0.00    -0.345 OA
ATOM     29  H3  UNL     1     -21.712  70.811  64.424  1.00  0.00     0.219 HD
ENDBRANCH  23  28
ENDBRANCH   1  18
TORSDOF 6
ENDMDL
