MODEL 1
REMARK VINA RESULT: -7.373665714      0.000      0.000
REMARK  4 active torsions:
REMARK  status: ('A' for Active; 'I' for Inactive)
REMARK    1  A    between atoms: C2_2  and  N1_3 
REMARK    2  A    between atoms: C2_2  and  C3_7 
REMARK    3  A    between atoms: C3_7  and  O1_8 
REMARK    4  A    between atoms: O1_8  and  C4_9 
REMARK       I    between atoms: C4_9  and  N2_11 
ROOT
HETATM    1  C4  UNL     1     -19.418  69.967  67.790  1.00  0.00     0.364 C 
HETATM    2  O2  UNL     1     -20.624  69.729  68.051  1.00  0.00    -0.238 OA
HETATM    3  N2  UNL     1     -18.401  69.805  68.793  1.00  0.00    -0.305 N 
HETATM    4  C5  UNL     1     -17.059  70.091  68.427  1.00  0.00     0.132 C 
HETATM    5  C6  UNL     1     -16.224  70.840  69.374  1.00  0.00     0.046 C 
HETATM    6  C7  UNL     1     -16.885  71.579  70.472  1.00  0.00     0.096 C 
HETATM    7  C8  UNL     1     -16.413  71.128  71.855  1.00  0.00     0.147 C 
HETATM    8  N3  UNL     1     -16.326  69.710  71.986  1.00  0.00    -0.363 N 
ATOM      9  H3  UNL     1     -15.607  69.453  72.663  1.00  0.00     0.162 HD
HETATM   10  C9  UNL     1     -16.957  68.538  71.441  1.00  0.00     0.185 C 
HETATM   11  N4  UNL     1     -16.341  67.317  71.810  1.00  0.00    -0.064 NA
HETATM   12  N5  UNL     1     -17.990  68.433  70.675  1.00  0.00    -0.342 N 
ATOM     13  H5  UNL     1     -18.206  67.462  70.450  1.00  0.00     0.164 HD
HETATM   14  C10 UNL     1     -18.919  69.359  70.057  1.00  0.00     0.208 C 
HETATM   15  C11 UNL     1     -19.049  70.613  70.934  1.00  0.00     0.161 C 
HETATM   16  N6  UNL     1     -18.307  71.693  70.392  1.00  0.00    -0.412 N 
ATOM     17  H6  UNL     1     -18.761  72.503  69.970  1.00  0.00     0.153 HD
ENDROOT
BRANCH   1  18
HETATM   18  O1  UNL     1     -19.111  70.389  66.506  1.00  0.00    -0.302 OA
BRANCH  18  19
HETATM   19  C3  UNL     1     -20.148  70.878  65.681  1.00  0.00     0.213 C 
BRANCH  19  20
HETATM   20  C2  UNL     1     -19.579  71.608  64.483  1.00  0.00     0.203 C 
HETATM   21  C1  UNL     1     -18.650  72.683  64.997  1.00  0.00     0.042 C 
BRANCH  20  22
HETATM   22  N1  UNL     1     -20.719  72.243  63.810  1.00  0.00    -0.073 N 
ATOM     23  H13 UNL     1     -20.553  72.381  62.813  1.00  0.00     0.274 HD
ATOM     24  H12 UNL     1     -21.523  71.620  63.736  1.00  0.00     0.274 HD
ATOM     25  H11 UNL     1     -20.946  73.114  64.290  1.00  0.00     0.274 HD
ENDBRANCH  20  22
ENDBRANCH  19  20
ENDBRANCH  18  19
ENDBRANCH   1  18
TORSDOF 4
ENDMDL
MODEL 2
REMARK VINA RESULT: -6.956663195      1.204      1.254
REMARK  4 active torsions:
REMARK  status: ('A' for Active; 'I' for Inactive)
REMARK    1  A    between atoms: C2_2  and  N1_3 
REMARK    2  A    between atoms: C2_2  and  C3_7 
REMARK    3  A    between atoms: C3_7  and  O1_8 
REMARK    4  A    between atoms: O1_8  and  C4_9 
REMARK       I    between atoms: C4_9  and  N2_11 
ROOT
HETATM    1  C4  UNL     1     -19.271  69.577  66.930  1.00  0.00     0.364 C 
HETATM    2  O2  UNL     1     -20.074  68.611  66.882  1.00  0.00    -0.238 OA
HETATM    3  N2  UNL     1     -18.555  69.881  68.138  1.00  0.00    -0.305 N 
HETATM    4  C5  UNL     1     -17.664  70.987  68.119  1.00  0.00     0.132 C 
HETATM    5  C6  UNL     1     -17.655  71.894  69.273  1.00  0.00     0.046 C 
HETATM    6  C7  UNL     1     -18.796  71.855  70.214  1.00  0.00     0.096 C 
HETATM    7  C8  UNL     1     -18.368  71.534  71.647  1.00  0.00     0.147 C 
HETATM    8  N3  UNL     1     -17.423  70.468  71.728  1.00  0.00    -0.363 N 
ATOM      9  H3  UNL     1     -16.821  70.579  72.544  1.00  0.00     0.162 HD
HETATM   10  C9  UNL     1     -17.071  69.283  70.992  1.00  0.00     0.185 C 
HETATM   11  N4  UNL     1     -15.888  68.647  71.439  1.00  0.00    -0.064 NA
HETATM   12  N5  UNL     1     -17.667  68.719  69.997  1.00  0.00    -0.342 N 
ATOM     13  H5  UNL     1     -17.179  67.880  69.680  1.00  0.00     0.164 HD
HETATM   14  C10 UNL     1     -18.862  68.985  69.218  1.00  0.00     0.208 C 
HETATM   15  C11 UNL     1     -19.893  69.707  70.098  1.00  0.00     0.161 C 
HETATM   16  N6  UNL     1     -19.932  71.093  69.802  1.00  0.00    -0.412 N 
ATOM     17  H6  UNL     1     -20.724  71.522  69.322  1.00  0.00     0.153 HD
ENDROOT
BRANCH   1  18
HETATM   18  O1  UNL     1     -19.106  70.331  65.779  1.00  0.00    -0.302 OA
BRANCH  18  19
HETATM   19  C3  UNL     1     -20.190  71.107  65.310  1.00  0.00     0.213 C 
BRANCH  19  20
HETATM   20  C2  UNL     1     -19.774  71.942  64.118  1.00  0.00     0.203 C 
HETATM   21  C1  UNL     1     -18.794  72.984  64.604  1.00  0.00     0.042 C 
BRANCH  20  22
HETATM   22  N1  UNL     1     -20.989  72.614  63.642  1.00  0.00    -0.073 N 
ATOM     23  H13 UNL     1     -21.431  73.176  64.369  1.00  0.00     0.274 HD
ATOM     24  H12 UNL     1     -20.785  73.365  62.984  1.00  0.00     0.274 HD
ATOM     25  H11 UNL     1     -21.623  71.917  63.251  1.00  0.00     0.274 HD
ENDBRANCH  20  22
ENDBRANCH  19  20
ENDBRANCH  18  19
ENDBRANCH   1  18
TORSDOF 4
ENDMDL
MODEL 3
REMARK VINA RESULT: -6.553839544      1.745      2.001
REMARK  4 active torsions:
REMARK  status: ('A' for Active; 'I' for Inactive)
REMARK    1  A    between atoms: C2_2  and  N1_3 
REMARK    2  A    between atoms: C2_2  and  C3_7 
REMARK    3  A    between atoms: C3_7  and  O1_8 
REMARK    4  A    between atoms: O1_8  and  C4_9 
REMARK       I    between atoms: C4_9  and  N2_11 
ROOT
HETATM    1  C4  UNL     1     -18.008  71.016  67.491  1.00  0.00     0.364 C 
HETATM    2  O2  UNL     1     -19.095  70.607  67.012  1.00  0.00    -0.238 OA
HETATM    3  N2  UNL     1     -17.516  70.507  68.743  1.00  0.00    -0.305 N 
HETATM    4  C5  UNL     1     -16.280  71.014  69.223  1.00  0.00     0.132 C 
HETATM    5  C6  UNL     1     -16.167  71.337  70.651  1.00  0.00     0.046 C 
HETATM    6  C7  UNL     1     -17.407  71.484  71.444  1.00  0.00     0.096 C 
HETATM    7  C8  UNL     1     -17.470  70.515  72.626  1.00  0.00     0.147 C 
HETATM    8  N3  UNL     1     -17.069  69.189  72.289  1.00  0.00    -0.363 N 
ATOM      9  H3  UNL     1     -16.670  68.714  73.099  1.00  0.00     0.162 HD
HETATM   10  C9  UNL     1     -17.063  68.326  71.138  1.00  0.00     0.185 C 
HETATM   11  N4  UNL     1     -16.361  67.110  71.323  1.00  0.00    -0.064 NA
HETATM   12  N5  UNL     1     -17.598  68.490  69.976  1.00  0.00    -0.342 N 
ATOM     13  H5  UNL     1     -17.426  67.699  69.356  1.00  0.00     0.164 HD
HETATM   14  C10 UNL     1     -18.384  69.527  69.335  1.00  0.00     0.208 C 
HETATM   15  C11 UNL     1     -19.211  70.269  70.396  1.00  0.00     0.161 C 
HETATM   16  N6  UNL     1     -18.629  71.525  70.707  1.00  0.00    -0.412 N 
ATOM     17  H6  UNL     1     -19.059  72.405  70.421  1.00  0.00     0.153 HD
ENDROOT
BRANCH   1  18
HETATM   18  O1  UNL     1     -17.306  71.969  66.770  1.00  0.00    -0.302 OA
BRANCH  18  19
HETATM   19  C3  UNL     1     -17.930  72.581  65.660  1.00  0.00     0.213 C 
BRANCH  19  20
HETATM   20  C2  UNL     1     -17.669  74.072  65.654  1.00  0.00     0.203 C 
HETATM   21  C1  UNL     1     -18.266  74.639  64.387  1.00  0.00     0.042 C 
BRANCH  20  22
HETATM   22  N1  UNL     1     -16.210  74.233  65.609  1.00  0.00    -0.073 N 
ATOM     23  H13 UNL     1     -15.867  74.867  66.331  1.00  0.00     0.274 HD
ATOM     24  H12 UNL     1     -15.717  73.393  65.910  1.00  0.00     0.274 HD
ATOM     25  H11 UNL     1     -15.937  74.528  64.671  1.00  0.00     0.274 HD
ENDBRANCH  20  22
ENDBRANCH  19  20
ENDBRANCH  18  19
ENDBRANCH   1  18
TORSDOF 4
ENDMDL
MODEL 4
REMARK VINA RESULT: -6.140765890      7.314      9.511
REMARK  4 active torsions:
REMARK  status: ('A' for Active; 'I' for Inactive)
REMARK    1  A    between atoms: C2_2  and  N1_3 
REMARK    2  A    between atoms: C2_2  and  C3_7 
REMARK    3  A    between atoms: C3_7  and  O1_8 
REMARK    4  A    between atoms: O1_8  and  C4_9 
REMARK       I    between atoms: C4_9  and  N2_11 
ROOT
HETATM    1  C4  UNL     1     -21.134  73.910  63.743  1.00  0.00     0.364 C 
HETATM    2  O2  UNL     1     -20.862  72.699  63.550  1.00  0.00    -0.238 OA
HETATM    3  N2  UNL     1     -22.497  74.350  63.860  1.00  0.00    -0.305 N 
HETATM    4  C5  UNL     1     -22.730  75.734  64.078  1.00  0.00     0.132 C 
HETATM    5  C6  UNL     1     -23.815  76.384  63.332  1.00  0.00     0.046 C 
HETATM    6  C7  UNL     1     -24.364  75.700  62.140  1.00  0.00     0.096 C 
HETATM    7  C8  UNL     1     -25.864  75.428  62.254  1.00  0.00     0.147 C 
HETATM    8  N3  UNL     1     -26.250  74.919  63.530  1.00  0.00    -0.363 N 
ATOM      9  H3  UNL     1     -27.208  75.187  63.752  1.00  0.00     0.162 HD
HETATM   10  C9  UNL     1     -25.678  74.137  64.593  1.00  0.00     0.185 C 
HETATM   11  N4  UNL     1     -26.477  74.065  65.760  1.00  0.00    -0.064 NA
HETATM   12  N5  UNL     1     -24.560  73.497  64.643  1.00  0.00    -0.342 N 
ATOM     13  H5  UNL     1     -24.422  73.027  65.538  1.00  0.00     0.164 HD
HETATM   14  C10 UNL     1     -23.449  73.281  63.735  1.00  0.00     0.208 C 
HETATM   15  C11 UNL     1     -23.958  73.325  62.287  1.00  0.00     0.161 C 
HETATM   16  N6  UNL     1     -23.638  74.562  61.672  1.00  0.00    -0.412 N 
ATOM     17  H6  UNL     1     -22.932  74.635  60.940  1.00  0.00     0.153 HD
ENDROOT
BRANCH   1  18
HETATM   18  O1  UNL     1     -20.074  74.799  63.837  1.00  0.00    -0.302 OA
BRANCH  18  19
HETATM   19  C3  UNL     1     -19.140  74.862  62.779  1.00  0.00     0.213 C 
BRANCH  19  20
HETATM   20  C2  UNL     1     -17.774  75.263  63.295  1.00  0.00     0.203 C 
HETATM   21  C1  UNL     1     -17.718  74.917  64.765  1.00  0.00     0.042 C 
BRANCH  20  22
HETATM   22  N1  UNL     1     -17.690  76.721  63.144  1.00  0.00    -0.073 N 
ATOM     23  H13 UNL     1     -16.738  77.038  62.962  1.00  0.00     0.274 HD
ATOM     24  H12 UNL     1     -18.118  77.047  62.278  1.00  0.00     0.274 HD
ATOM     25  H11 UNL     1     -18.096  77.165  63.969  1.00  0.00     0.274 HD
ENDBRANCH  20  22
ENDBRANCH  19  20
ENDBRANCH  18  19
ENDBRANCH   1  18
TORSDOF 4
ENDMDL
MODEL 5
REMARK VINA RESULT: -5.704557657      8.714     11.337
REMARK  4 active torsions:
REMARK  status: ('A' for Active; 'I' for Inactive)
REMARK    1  A    between atoms: C2_2  and  N1_3 
REMARK    2  A    between atoms: C2_2  and  C3_7 
REMARK    3  A    between atoms: C3_7  and  O1_8 
REMARK    4  A    between atoms: O1_8  and  C4_9 
REMARK       I    between atoms: C4_9  and  N2_11 
ROOT
HETATM    1  C4  UNL     1     -24.390  74.127  62.257  1.00  0.00     0.364 C 
HETATM    2  O2  UNL     1     -23.676  73.162  61.884  1.00  0.00    -0.238 OA
HETATM    3  N2  UNL     1     -24.074  75.473  61.866  1.00  0.00    -0.305 N 
HETATM    4  C5  UNL     1     -24.925  76.513  62.325  1.00  0.00     0.132 C 
HETATM    5  C6  UNL     1     -24.309  77.755  62.809  1.00  0.00     0.046 C 
HETATM    6  C7  UNL     1     -22.870  77.746  63.151  1.00  0.00     0.096 C 
HETATM    7  C8  UNL     1     -22.064  78.762  62.340  1.00  0.00     0.147 C 
HETATM    8  N3  UNL     1     -22.402  78.773  60.954  1.00  0.00    -0.363 N 
ATOM      9  H3  UNL     1     -22.246  79.696  60.551  1.00  0.00     0.162 HD
HETATM   10  C9  UNL     1     -22.899  77.859  59.961  1.00  0.00     0.185 C 
HETATM   11  N4  UNL     1     -23.228  78.463  58.723  1.00  0.00    -0.064 NA
HETATM   12  N5  UNL     1     -23.086  76.584  60.027  1.00  0.00    -0.342 N 
ATOM     13  H5  UNL     1     -23.452  76.202  59.154  1.00  0.00     0.164 HD
HETATM   14  C10 UNL     1     -22.903  75.561  61.039  1.00  0.00     0.208 C 
HETATM   15  C11 UNL     1     -21.749  75.965  61.968  1.00  0.00     0.161 C 
HETATM   16  N6  UNL     1     -22.239  76.465  63.201  1.00  0.00    -0.412 N 
ATOM     17  H6  UNL     1     -22.147  75.942  64.072  1.00  0.00     0.153 HD
ENDROOT
BRANCH   1  18
HETATM   18  O1  UNL     1     -25.486  73.842  63.057  1.00  0.00    -0.302 OA
BRANCH  18  19
HETATM   19  C3  UNL     1     -25.447  72.700  63.888  1.00  0.00     0.213 C 
BRANCH  19  20
HETATM   20  C2  UNL     1     -24.946  73.062  65.270  1.00  0.00     0.203 C 
HETATM   21  C1  UNL     1     -25.094  71.841  66.147  1.00  0.00     0.042 C 
BRANCH  20  22
HETATM   22  N1  UNL     1     -25.835  74.119  65.766  1.00  0.00    -0.073 N 
ATOM     23  H13 UNL     1     -25.717  74.288  66.765  1.00  0.00     0.274 HD
ATOM     24  H12 UNL     1     -25.565  75.043  65.431  1.00  0.00     0.274 HD
ATOM     25  H11 UNL     1     -26.798  73.884  65.523  1.00  0.00     0.274 HD
ENDBRANCH  20  22
ENDBRANCH  19  20
ENDBRANCH  18  19
ENDBRANCH   1  18
TORSDOF 4
ENDMDL
