MODEL 1
REMARK VINA RESULT: -3.992796710      0.000      0.000
REMARK  2 active torsions:
REMARK  status: ('A' for Active; 'I' for Inactive)
REMARK    1  A    between atoms: C4_5  and  N2_6 
REMARK    2  A    between atoms: N2_6  and  C5_8 
ROOT
HETATM    1  N2  UNL     1     183.372   6.313  59.628  1.00  0.00    -0.357 N 
ATOM      2  H2  UNL     1     182.373   6.462  59.772  1.00  0.00     0.162 HD
ENDROOT
BRANCH   1   3
HETATM    3  C4  UNL     1     184.315   6.786  60.603  1.00  0.00     0.315 A 
HETATM    4  N1  UNL     1     183.701   7.402  61.766  1.00  0.00    -0.049 N 
HETATM    5  C1  UNL     1     184.240   7.147  63.074  1.00  0.00     0.274 C 
HETATM    6  C2  UNL     1     182.286   7.743  61.674  1.00  0.00     0.274 C 
HETATM    7  C3  UNL     1     184.589   8.189  60.830  1.00  0.00     0.293 A 
ENDBRANCH   1   3
BRANCH   1   8
HETATM    8  C5  UNL     1     183.823   5.645  58.473  1.00  0.00     0.170 C 
HETATM    9  N3  UNL     1     183.363   5.887  57.290  1.00  0.00    -0.395 N 
ATOM     10  H32 UNL     1     182.639   6.600  57.206  1.00  0.00     0.156 HD
ATOM     11  H31 UNL     1     183.691   5.403  56.454  1.00  0.00     0.156 HD
ENDBRANCH   1   8
TORSDOF 2
ENDMDL
MODEL 2
REMARK VINA RESULT: -3.853321620      1.613      2.751
REMARK  2 active torsions:
REMARK  status: ('A' for Active; 'I' for Inactive)
REMARK    1  A    between atoms: C4_5  and  N2_6 
REMARK    2  A    between atoms: N2_6  and  C5_8 
ROOT
HETATM    1  N2  UNL     1     183.834   6.789  61.999  1.00  0.00    -0.357 N 
ATOM      2  H2  UNL     1     183.232   6.070  62.401  1.00  0.00     0.162 HD
ENDROOT
BRANCH   1   3
HETATM    3  C4  UNL     1     184.420   7.789  62.848  1.00  0.00     0.315 A 
HETATM    4  N1  UNL     1     184.512   7.398  64.243  1.00  0.00    -0.049 N 
HETATM    5  C1  UNL     1     185.688   7.729  64.999  1.00  0.00     0.274 C 
HETATM    6  C2  UNL     1     183.747   6.228  64.661  1.00  0.00     0.274 C 
HETATM    7  C3  UNL     1     183.661   8.567  63.803  1.00  0.00     0.293 A 
ENDBRANCH   1   3
BRANCH   1   8
HETATM    8  C5  UNL     1     184.087   6.800  60.614  1.00  0.00     0.170 C 
HETATM    9  N3  UNL     1     183.210   6.451  59.731  1.00  0.00    -0.395 N 
ATOM     10  H32 UNL     1     182.295   6.156  60.071  1.00  0.00     0.156 HD
ATOM     11  H31 UNL     1     183.394   6.459  58.728  1.00  0.00     0.156 HD
ENDBRANCH   1   8
TORSDOF 2
ENDMDL
MODEL 3
REMARK VINA RESULT: -3.690745276      1.199      1.960
REMARK  2 active torsions:
REMARK  status: ('A' for Active; 'I' for Inactive)
REMARK    1  A    between atoms: C4_5  and  N2_6 
REMARK    2  A    between atoms: N2_6  and  C5_8 
ROOT
HETATM    1  N2  UNL     1     184.433   6.704  60.959  1.00  0.00    -0.357 N 
ATOM      2  H2  UNL     1     184.923   5.994  61.503  1.00  0.00     0.162 HD
ENDROOT
BRANCH   1   3
HETATM    3  C4  UNL     1     183.748   7.775  61.630  1.00  0.00     0.315 A 
HETATM    4  N1  UNL     1     183.597   7.573  63.060  1.00  0.00    -0.049 N 
HETATM    5  C1  UNL     1     183.779   8.680  63.958  1.00  0.00     0.274 C 
HETATM    6  C2  UNL     1     183.857   6.234  63.578  1.00  0.00     0.274 C 
HETATM    7  C3  UNL     1     182.399   7.659  62.142  1.00  0.00     0.293 A 
ENDBRANCH   1   3
BRANCH   1   8
HETATM    8  C5  UNL     1     184.428   6.633  59.553  1.00  0.00     0.170 C 
HETATM    9  N3  UNL     1     183.424   6.193  58.869  1.00  0.00    -0.395 N 
ATOM     10  H32 UNL     1     182.602   5.887  59.389  1.00  0.00     0.156 HD
ATOM     11  H31 UNL     1     183.421   6.142  57.850  1.00  0.00     0.156 HD
ENDBRANCH   1   8
TORSDOF 2
ENDMDL
MODEL 4
REMARK VINA RESULT: -3.137040479      3.324      5.830
REMARK  2 active torsions:
REMARK  status: ('A' for Active; 'I' for Inactive)
REMARK    1  A    between atoms: C4_5  and  N2_6 
REMARK    2  A    between atoms: N2_6  and  C5_8 
ROOT
HETATM    1  N2  UNL     1     185.627   8.098  65.263  1.00  0.00    -0.357 N 
ATOM      2  H2  UNL     1     185.219   9.033  65.264  1.00  0.00     0.162 HD
ENDROOT
BRANCH   1   3
HETATM    3  C4  UNL     1     185.066   7.072  64.428  1.00  0.00     0.315 A 
HETATM    4  N1  UNL     1     184.049   7.551  63.509  1.00  0.00    -0.049 N 
HETATM    5  C1  UNL     1     184.009   7.047  62.164  1.00  0.00     0.274 C 
HETATM    6  C2  UNL     1     183.509   8.886  63.746  1.00  0.00     0.274 C 
HETATM    7  C3  UNL     1     183.726   6.553  64.597  1.00  0.00     0.293 A 
ENDBRANCH   1   3
BRANCH   1   8
HETATM    8  C5  UNL     1     186.739   7.816  66.079  1.00  0.00     0.170 C 
HETATM    9  N3  UNL     1     187.098   8.563  67.070  1.00  0.00    -0.395 N 
ATOM     10  H32 UNL     1     186.537   9.395  67.257  1.00  0.00     0.156 HD
ATOM     11  H31 UNL     1     187.903   8.359  67.662  1.00  0.00     0.156 HD
ENDBRANCH   1   8
TORSDOF 2
ENDMDL
MODEL 5
REMARK VINA RESULT: -3.132106368      1.749      4.366
REMARK  2 active torsions:
REMARK  status: ('A' for Active; 'I' for Inactive)
REMARK    1  A    between atoms: C4_5  and  N2_6 
REMARK    2  A    between atoms: N2_6  and  C5_8 
ROOT
HETATM    1  N2  UNL     1     184.838   7.491  62.891  1.00  0.00    -0.357 N 
ATOM      2  H2  UNL     1     185.719   7.848  62.521  1.00  0.00     0.162 HD
ENDROOT
BRANCH   1   3
HETATM    3  C4  UNL     1     183.848   6.957  61.997  1.00  0.00     0.315 A 
HETATM    4  N1  UNL     1     184.108   7.237  60.596  1.00  0.00    -0.049 N 
HETATM    5  C1  UNL     1     183.868   6.220  59.610  1.00  0.00     0.274 C 
HETATM    6  C2  UNL     1     185.115   8.248  60.291  1.00  0.00     0.274 C 
HETATM    7  C3  UNL     1     182.883   7.778  61.298  1.00  0.00     0.293 A 
ENDBRANCH   1   3
BRANCH   1   8
HETATM    8  C5  UNL     1     184.595   7.523  64.278  1.00  0.00     0.170 C 
HETATM    9  N3  UNL     1     185.437   8.001  65.134  1.00  0.00    -0.395 N 
ATOM     10  H32 UNL     1     186.315   8.370  64.771  1.00  0.00     0.156 HD
ATOM     11  H31 UNL     1     185.260   8.023  66.138  1.00  0.00     0.156 HD
ENDBRANCH   1   8
TORSDOF 2
ENDMDL
