MODEL 1
REMARK VINA RESULT: -4.668549091      0.000      0.000
REMARK  2 active torsions:
REMARK  status: ('A' for Active; 'I' for Inactive)
REMARK    1  A    between atoms: N1_2  and  N2_3 
REMARK    2  A    between atoms: N1_2  and  N3_6 
ROOT
HETATM    1  C1  UNL     1     185.177   7.419  59.905  1.00  0.00     0.172 C 
HETATM    2  N1  UNL     1     184.093   6.874  60.303  1.00  0.00    -0.209 N 
ENDROOT
BRANCH   2   3
HETATM    3  N2  UNL     1     183.779   6.803  61.676  1.00  0.00    -0.320 N 
HETATM    4  C2  UNL     1     182.896   7.738  62.309  1.00  0.00     0.169 C 
ATOM      5  H2  UNL     1     184.195   6.060  62.237  1.00  0.00     0.181 HD
ENDBRANCH   2   3
BRANCH   2   6
HETATM    6  N3  UNL     1     183.147   6.313  59.438  1.00  0.00    -0.230 N 
HETATM    7  N4  UNL     1     183.347   6.174  58.198  1.00  0.00    -0.329 N 
ATOM      8  H42 UNL     1     184.244   6.491  57.828  1.00  0.00     0.178 HD
ATOM      9  H41 UNL     1     182.658   5.766  57.567  1.00  0.00     0.178 HD
ATOM     10  H3  UNL     1     182.256   6.001  59.825  1.00  0.00     0.210 HD
ENDBRANCH   2   6
TORSDOF 2
ENDMDL
MODEL 2
REMARK VINA RESULT: -4.476227116      1.703      2.894
REMARK  2 active torsions:
REMARK  status: ('A' for Active; 'I' for Inactive)
REMARK    1  A    between atoms: N1_2  and  N2_3 
REMARK    2  A    between atoms: N1_2  and  N3_6 
ROOT
HETATM    1  C1  UNL     1     184.480   7.497  63.212  1.00  0.00     0.172 C 
HETATM    2  N1  UNL     1     183.671   7.150  62.286  1.00  0.00    -0.209 N 
ENDROOT
BRANCH   2   3
HETATM    3  N2  UNL     1     184.148   6.652  61.057  1.00  0.00    -0.320 N 
HETATM    4  C2  UNL     1     184.951   7.441  60.170  1.00  0.00     0.169 C 
ATOM      5  H2  UNL     1     183.913   5.696  60.789  1.00  0.00     0.181 HD
ENDBRANCH   2   3
BRANCH   2   6
HETATM    6  N3  UNL     1     182.279   7.231  62.406  1.00  0.00    -0.230 N 
HETATM    7  N4  UNL     1     181.504   7.226  61.409  1.00  0.00    -0.329 N 
ATOM      8  H42 UNL     1     181.927   7.159  60.483  1.00  0.00     0.178 HD
ATOM      9  H41 UNL     1     180.489   7.284  61.496  1.00  0.00     0.178 HD
ATOM     10  H3  UNL     1     181.873   7.296  63.339  1.00  0.00     0.210 HD
ENDBRANCH   2   6
TORSDOF 2
ENDMDL
MODEL 3
REMARK VINA RESULT: -4.439841750      2.284      2.593
REMARK  2 active torsions:
REMARK  status: ('A' for Active; 'I' for Inactive)
REMARK    1  A    between atoms: N1_2  and  N2_3 
REMARK    2  A    between atoms: N1_2  and  N3_6 
ROOT
HETATM    1  C1  UNL     1     184.395   7.304  61.095  1.00  0.00     0.172 C 
HETATM    2  N1  UNL     1     183.776   7.324  62.212  1.00  0.00    -0.209 N 
ENDROOT
BRANCH   2   3
HETATM    3  N2  UNL     1     184.477   7.489  63.425  1.00  0.00    -0.320 N 
HETATM    4  C2  UNL     1     183.816   7.493  64.697  1.00  0.00     0.169 C 
ATOM      5  H2  UNL     1     185.489   7.609  63.396  1.00  0.00     0.181 HD
ENDBRANCH   2   3
BRANCH   2   6
HETATM    6  N3  UNL     1     182.388   7.186  62.330  1.00  0.00    -0.230 N 
HETATM    7  N4  UNL     1     181.608   7.234  61.339  1.00  0.00    -0.329 N 
ATOM      8  H42 UNL     1     182.023   7.380  60.418  1.00  0.00     0.178 HD
ATOM      9  H41 UNL     1     180.596   7.134  61.425  1.00  0.00     0.178 HD
ATOM     10  H3  UNL     1     181.990   7.041  63.258  1.00  0.00     0.210 HD
ENDBRANCH   2   6
TORSDOF 2
ENDMDL
MODEL 4
REMARK VINA RESULT: -4.357509378      1.408      2.883
REMARK  2 active torsions:
REMARK  status: ('A' for Active; 'I' for Inactive)
REMARK    1  A    between atoms: N1_2  and  N2_3 
REMARK    2  A    between atoms: N1_2  and  N3_6 
ROOT
HETATM    1  C1  UNL     1     185.122   7.542  60.114  1.00  0.00     0.172 C 
HETATM    2  N1  UNL     1     184.065   6.937  60.500  1.00  0.00    -0.209 N 
ENDROOT
BRANCH   2   3
HETATM    3  N2  UNL     1     183.188   6.345  59.568  1.00  0.00    -0.320 N 
HETATM    4  C2  UNL     1     183.648   5.788  58.330  1.00  0.00     0.169 C 
ATOM      5  H2  UNL     1     182.192   6.312  59.783  1.00  0.00     0.181 HD
ENDBRANCH   2   3
BRANCH   2   6
HETATM    6  N3  UNL     1     183.693   6.812  61.844  1.00  0.00    -0.230 N 
HETATM    7  N4  UNL     1     182.558   7.158  62.276  1.00  0.00    -0.329 N 
ATOM      8  H42 UNL     1     181.894   7.544  61.603  1.00  0.00     0.178 HD
ATOM      9  H41 UNL     1     182.286   7.067  63.255  1.00  0.00     0.178 HD
ATOM     10  H3  UNL     1     184.368   6.424  62.503  1.00  0.00     0.210 HD
ENDBRANCH   2   6
TORSDOF 2
ENDMDL
MODEL 5
REMARK VINA RESULT: -4.131422773      1.614      2.805
REMARK  2 active torsions:
REMARK  status: ('A' for Active; 'I' for Inactive)
REMARK    1  A    between atoms: N1_2  and  N2_3 
REMARK    2  A    between atoms: N1_2  and  N3_6 
ROOT
HETATM    1  C1  UNL     1     184.163   7.431  62.582  1.00  0.00     0.172 C 
HETATM    2  N1  UNL     1     183.801   7.073  61.411  1.00  0.00    -0.209 N 
ENDROOT
BRANCH   2   3
HETATM    3  N2  UNL     1     184.752   6.674  60.449  1.00  0.00    -0.320 N 
HETATM    4  C2  UNL     1     184.382   6.296  59.117  1.00  0.00     0.169 C 
ATOM      5  H2  UNL     1     185.737   6.654  60.711  1.00  0.00     0.181 HD
ENDBRANCH   2   3
BRANCH   2   6
HETATM    6  N3  UNL     1     182.467   7.047  60.988  1.00  0.00    -0.230 N 
HETATM    7  N4  UNL     1     181.495   7.227  61.774  1.00  0.00    -0.329 N 
ATOM      8  H42 UNL     1     181.709   7.398  62.758  1.00  0.00     0.178 HD
ATOM      9  H41 UNL     1     180.523   7.208  61.466  1.00  0.00     0.178 HD
ATOM     10  H3  UNL     1     182.271   6.876  60.002  1.00  0.00     0.210 HD
ENDBRANCH   2   6
TORSDOF 2
ENDMDL
