MODEL 1
REMARK VINA RESULT: -5.160020531      0.000      0.000
REMARK  2 active torsions:
REMARK  status: ('A' for Active; 'I' for Inactive)
REMARK    1  A    between atoms: C3_3  and  N1_4 
REMARK    2  A    between atoms: N1_4  and  C4_6 
ROOT
HETATM    1  N1  UNL     1     183.734   6.855  60.573  1.00  0.00    -0.345 N 
ATOM      2  H1  UNL     1     182.843   6.478  60.254  1.00  0.00     0.167 HD
ENDROOT
BRANCH   1   3
HETATM    3  C3  UNL     1     184.053   7.121  61.914  1.00  0.00     0.086 C 
HETATM    4  C2  UNL     1     183.272   7.797  62.737  1.00  0.00    -0.014 C 
HETATM    5  C1  UNL     1     183.663   8.046  64.140  1.00  0.00     0.037 C 
ENDBRANCH   1   3
BRANCH   1   6
HETATM    6  C4  UNL     1     184.820   7.181  59.725  1.00  0.00     0.352 C 
HETATM    7  O1  UNL     1     185.057   8.352  59.513  1.00  0.00    -0.283 OA
ENDBRANCH   1   6
TORSDOF 2
ENDMDL
MODEL 2
REMARK VINA RESULT: -4.982511243      1.110      1.110
REMARK  2 active torsions:
REMARK  status: ('A' for Active; 'I' for Inactive)
REMARK    1  A    between atoms: C3_3  and  N1_4 
REMARK    2  A    between atoms: N1_4  and  C4_6 
ROOT
HETATM    1  N1  UNL     1     183.440   6.825  60.521  1.00  0.00    -0.345 N 
ATOM      2  H1  UNL     1     182.447   6.714  60.315  1.00  0.00     0.167 HD
ENDROOT
BRANCH   1   3
HETATM    3  C3  UNL     1     183.954   7.272  61.748  1.00  0.00     0.086 C 
HETATM    4  C2  UNL     1     183.205   7.654  62.766  1.00  0.00    -0.014 C 
HETATM    5  C1  UNL     1     183.806   8.116  64.034  1.00  0.00     0.037 C 
ENDBRANCH   1   3
BRANCH   1   6
HETATM    6  C4  UNL     1     184.487   6.550  59.608  1.00  0.00     0.352 C 
HETATM    7  O1  UNL     1     184.197   6.138  58.504  1.00  0.00    -0.283 OA
ENDBRANCH   1   6
TORSDOF 2
ENDMDL
MODEL 3
REMARK VINA RESULT: -4.635656194      2.053      2.621
REMARK  2 active torsions:
REMARK  status: ('A' for Active; 'I' for Inactive)
REMARK    1  A    between atoms: C3_3  and  N1_4 
REMARK    2  A    between atoms: N1_4  and  C4_6 
ROOT
HETATM    1  N1  UNL     1     182.922   7.518  63.274  1.00  0.00    -0.345 N 
ATOM      2  H1  UNL     1     182.086   7.179  63.750  1.00  0.00     0.167 HD
ENDROOT
BRANCH   1   3
HETATM    3  C3  UNL     1     184.089   7.949  63.923  1.00  0.00     0.086 C 
HETATM    4  C2  UNL     1     184.780   7.207  64.769  1.00  0.00    -0.014 C 
HETATM    5  C1  UNL     1     186.002   7.718  65.422  1.00  0.00     0.037 C 
ENDBRANCH   1   3
BRANCH   1   6
HETATM    6  C4  UNL     1     183.062   7.618  61.868  1.00  0.00     0.352 C 
HETATM    7  O1  UNL     1     183.975   7.023  61.335  1.00  0.00    -0.283 OA
ENDBRANCH   1   6
TORSDOF 2
ENDMDL
MODEL 4
REMARK VINA RESULT: -4.535243869      4.531      5.267
REMARK  2 active torsions:
REMARK  status: ('A' for Active; 'I' for Inactive)
REMARK    1  A    between atoms: C3_3  and  N1_4 
REMARK    2  A    between atoms: N1_4  and  C4_6 
ROOT
HETATM    1  N1  UNL     1     185.941   8.277  65.911  1.00  0.00    -0.345 N 
ATOM      2  H1  UNL     1     185.512   9.085  66.360  1.00  0.00     0.167 HD
ENDROOT
BRANCH   1   3
HETATM    3  C3  UNL     1     185.445   7.649  64.759  1.00  0.00     0.086 C 
HETATM    4  C2  UNL     1     184.272   7.924  64.217  1.00  0.00    -0.014 C 
HETATM    5  C1  UNL     1     183.803   7.227  63.001  1.00  0.00     0.037 C 
ENDBRANCH   1   3
BRANCH   1   6
HETATM    6  C4  UNL     1     187.119   7.634  66.366  1.00  0.00     0.352 C 
HETATM    7  O1  UNL     1     187.837   8.227  67.143  1.00  0.00    -0.283 OA
ENDBRANCH   1   6
TORSDOF 2
ENDMDL
MODEL 5
REMARK VINA RESULT: -4.400740025      3.749      4.365
REMARK  2 active torsions:
REMARK  status: ('A' for Active; 'I' for Inactive)
REMARK    1  A    between atoms: C3_3  and  N1_4 
REMARK    2  A    between atoms: N1_4  and  C4_6 
ROOT
HETATM    1  N1  UNL     1     184.852   8.209  65.024  1.00  0.00    -0.345 N 
ATOM      2  H1  UNL     1     184.489   9.004  65.549  1.00  0.00     0.167 HD
ENDROOT
BRANCH   1   3
HETATM    3  C3  UNL     1     184.191   7.598  63.946  1.00  0.00     0.086 C 
HETATM    4  C2  UNL     1     183.336   8.222  63.157  1.00  0.00    -0.014 C 
HETATM    5  C1  UNL     1     182.671   7.524  62.038  1.00  0.00     0.037 C 
ENDBRANCH   1   3
BRANCH   1   6
HETATM    6  C4  UNL     1     186.089   7.570  65.281  1.00  0.00     0.352 C 
HETATM    7  O1  UNL     1     186.729   7.919  66.251  1.00  0.00    -0.283 OA
ENDBRANCH   1   6
TORSDOF 2
ENDMDL
