MODEL 1
REMARK VINA RESULT: -6.101989748      0.000      0.000
REMARK  3 active torsions:
REMARK  status: ('A' for Active; 'I' for Inactive)
REMARK    1  A    between atoms: C2_2  and  C3_3 
REMARK    2  A    between atoms: C3_3  and  C4_4 
REMARK    3  A    between atoms: N1_5  and  N2_7 
ROOT
HETATM    1  C4  UNL     1     183.315   7.788  62.216  1.00  0.00     0.162 C 
HETATM    2  N1  UNL     1     182.580   7.126  61.301  1.00  0.00    -0.309 N 
ATOM      3  H1  UNL     1     181.577   6.959  61.391  1.00  0.00     0.186 HD
ENDROOT
BRANCH   2   4
HETATM    4  N2  UNL     1     183.319   6.711  60.257  1.00  0.00    -0.341 N 
HETATM    5  C5  UNL     1     184.722   7.037  60.035  1.00  0.00     0.167 C 
ATOM      6  H2  UNL     1     182.859   6.119  59.563  1.00  0.00     0.179 HD
ENDBRANCH   2   4
BRANCH   1   7
HETATM    7  C3  UNL     1     183.716   7.626  63.390  1.00  0.00    -0.111 C 
BRANCH   7   8
HETATM    8  C2  UNL     1     184.130   7.459  64.600  1.00  0.00     0.047 C 
HETATM    9  C1  UNL     1     185.466   7.624  64.904  1.00  0.00     0.020 C 
ENDBRANCH   7   8
ENDBRANCH   1   7
TORSDOF 3
ENDMDL
MODEL 2
REMARK VINA RESULT: -5.380980310      1.604      2.164
REMARK  3 active torsions:
REMARK  status: ('A' for Active; 'I' for Inactive)
REMARK    1  A    between atoms: C2_2  and  C3_3 
REMARK    2  A    between atoms: C3_3  and  C4_4 
REMARK    3  A    between atoms: N1_5  and  N2_7 
ROOT
HETATM    1  C4  UNL     1     184.719   7.442  60.843  1.00  0.00     0.162 C 
HETATM    2  N1  UNL     1     184.715   7.660  59.514  1.00  0.00    -0.309 N 
ATOM      3  H1  UNL     1     184.684   8.587  59.090  1.00  0.00     0.186 HD
ENDROOT
BRANCH   2   4
HETATM    4  N2  UNL     1     184.757   6.515  58.809  1.00  0.00    -0.341 N 
HETATM    5  C5  UNL     1     183.594   5.766  58.350  1.00  0.00     0.167 C 
ATOM      6  H2  UNL     1     185.678   6.141  58.576  1.00  0.00     0.179 HD
ENDBRANCH   2   4
BRANCH   1   7
HETATM    7  C3  UNL     1     183.942   7.568  61.815  1.00  0.00    -0.111 C 
BRANCH   7   8
HETATM    8  C2  UNL     1     183.140   7.699  62.817  1.00  0.00     0.047 C 
HETATM    9  C1  UNL     1     183.644   7.906  64.084  1.00  0.00     0.020 C 
ENDBRANCH   7   8
ENDBRANCH   1   7
TORSDOF 3
ENDMDL
MODEL 3
REMARK VINA RESULT: -5.065340229      1.369      1.982
REMARK  3 active torsions:
REMARK  status: ('A' for Active; 'I' for Inactive)
REMARK    1  A    between atoms: C2_2  and  C3_3 
REMARK    2  A    between atoms: C3_3  and  C4_4 
REMARK    3  A    between atoms: N1_5  and  N2_7 
ROOT
HETATM    1  C4  UNL     1     184.125   7.957  63.933  1.00  0.00     0.162 C 
HETATM    2  N1  UNL     1     182.922   7.461  63.584  1.00  0.00    -0.309 N 
ATOM      3  H1  UNL     1     182.135   7.375  64.226  1.00  0.00     0.186 HD
ENDROOT
BRANCH   2   4
HETATM    4  N2  UNL     1     182.879   7.091  62.291  1.00  0.00    -0.341 N 
HETATM    5  C5  UNL     1     183.955   7.276  61.325  1.00  0.00     0.167 C 
ATOM      6  H2  UNL     1     182.023   6.645  61.959  1.00  0.00     0.179 HD
ENDBRANCH   2   4
BRANCH   1   7
HETATM    7  C3  UNL     1     185.094   7.639  64.658  1.00  0.00    -0.111 C 
BRANCH   7   8
HETATM    8  C2  UNL     1     186.093   7.312  65.405  1.00  0.00     0.047 C 
HETATM    9  C1  UNL     1     186.643   8.236  66.270  1.00  0.00     0.020 C 
ENDBRANCH   7   8
ENDBRANCH   1   7
TORSDOF 3
ENDMDL
MODEL 4
REMARK VINA RESULT: -5.062566144      2.998      4.478
REMARK  3 active torsions:
REMARK  status: ('A' for Active; 'I' for Inactive)
REMARK    1  A    between atoms: C2_2  and  C3_3 
REMARK    2  A    between atoms: C3_3  and  C4_4 
REMARK    3  A    between atoms: N1_5  and  N2_7 
ROOT
HETATM    1  C4  UNL     1     184.345   7.487  64.472  1.00  0.00     0.162 C 
HETATM    2  N1  UNL     1     185.213   8.199  65.217  1.00  0.00    -0.309 N 
ATOM      3  H1  UNL     1     185.047   9.159  65.520  1.00  0.00     0.186 HD
ENDROOT
BRANCH   2   4
HETATM    4  N2  UNL     1     186.324   7.501  65.513  1.00  0.00    -0.341 N 
HETATM    5  C5  UNL     1     187.257   7.819  66.586  1.00  0.00     0.167 C 
ATOM      6  H2  UNL     1     186.530   6.681  64.941  1.00  0.00     0.179 HD
ENDBRANCH   2   4
BRANCH   1   7
HETATM    7  C3  UNL     1     183.884   7.493  63.310  1.00  0.00    -0.111 C 
BRANCH   7   8
HETATM    8  C2  UNL     1     183.408   7.499  62.111  1.00  0.00     0.047 C 
HETATM    9  C1  UNL     1     184.219   7.174  61.043  1.00  0.00     0.020 C 
ENDBRANCH   7   8
ENDBRANCH   1   7
TORSDOF 3
ENDMDL
MODEL 5
REMARK VINA RESULT: -4.990731005      2.137      3.895
REMARK  3 active torsions:
REMARK  status: ('A' for Active; 'I' for Inactive)
REMARK    1  A    between atoms: C2_2  and  C3_3 
REMARK    2  A    between atoms: C3_3  and  C4_4 
REMARK    3  A    between atoms: N1_5  and  N2_7 
ROOT
HETATM    1  C4  UNL     1     183.494   7.596  63.003  1.00  0.00     0.162 C 
HETATM    2  N1  UNL     1     183.731   8.519  63.955  1.00  0.00    -0.309 N 
ATOM      3  H1  UNL     1     183.468   9.502  63.871  1.00  0.00     0.186 HD
ENDROOT
BRANCH   2   4
HETATM    4  N2  UNL     1     184.354   7.999  65.027  1.00  0.00    -0.341 N 
HETATM    5  C5  UNL     1     185.771   7.662  65.096  1.00  0.00     0.167 C 
ATOM      6  H2  UNL     1     183.790   7.826  65.859  1.00  0.00     0.179 HD
ENDBRANCH   2   4
BRANCH   1   7
HETATM    7  C3  UNL     1     183.879   7.326  61.844  1.00  0.00    -0.111 C 
BRANCH   7   8
HETATM    8  C2  UNL     1     184.276   7.048  60.649  1.00  0.00     0.047 C 
HETATM    9  C1  UNL     1     185.148   7.894  59.994  1.00  0.00     0.020 C 
ENDBRANCH   7   8
ENDBRANCH   1   7
TORSDOF 3
ENDMDL
