MODEL 1
REMARK VINA RESULT: -7.728401154      0.000      0.000
REMARK  22 active torsions:
REMARK  status: ('A' for Active; 'I' for Inactive)
REMARK    1  A    between atoms: N1_2  and  C3_4 
REMARK    2  A    between atoms: C3_4  and  N2_6 
REMARK    3  A    between atoms: N2_6  and  C4_8 
REMARK    4  A    between atoms: C4_8  and  C5_9 
REMARK    5  A    between atoms: C5_9  and  C6_10 
REMARK    6  A    between atoms: C6_10  and  N3_11 
REMARK    7  A    between atoms: N3_11  and  C8_13 
REMARK    8  A    between atoms: C10_15  and  C11_16 
REMARK    9  A    between atoms: C11_16  and  N5_20 
REMARK   10  A    between atoms: N5_20  and  C12_22 
REMARK   11  A    between atoms: C12_22  and  C13_23 
REMARK   12  A    between atoms: C13_23  and  O1_24 
REMARK   13  A    between atoms: O1_24  and  C14_25 
REMARK   14  A    between atoms: C14_25  and  C15_26 
REMARK   15  A    between atoms: C15_26  and  N6_27 
REMARK   16  A    between atoms: N9_34  and  C19_35 
REMARK   17  A    between atoms: C19_35  and  C20_36 
REMARK   18  A    between atoms: C20_36  and  C21_37 
REMARK       I    between atoms: C21_37  and  N10_39 
REMARK   19  A    between atoms: N10_39  and  C22_41 
REMARK   20  A    between atoms: C22_41  and  C23_42 
REMARK   21  A    between atoms: C23_42  and  C24_43 
REMARK   22  A    between atoms: C24_43  and  N11_44 
REMARK       I    between atoms: N11_44  and  C25_46 
ROOT
HETATM    1  C8  UNL     1      40.877  19.447  65.707  1.00  0.00     0.105 A 
HETATM    2  C9  UNL     1      39.698  18.713  65.970  1.00  0.00     0.064 A 
HETATM    3  C10 UNL     1      38.777  19.210  66.823  1.00  0.00     0.012 A 
HETATM    4  C17 UNL     1      38.963  20.431  67.453  1.00  0.00     0.032 A 
HETATM    5  C18 UNL     1      40.112  21.093  67.167  1.00  0.00     0.093 A 
HETATM    6  N9  UNL     1      41.061  20.610  66.304  1.00  0.00    -0.343 N 
ENDROOT
BRANCH   3   7
HETATM    7  C11 UNL     1      37.528  18.494  67.150  1.00  0.00     0.105 C 
HETATM    8  N4  UNL     1      36.453  18.700  66.509  1.00  0.00    -0.385 N 
ATOM      9  H42 UNL     1      36.411  19.367  65.738  1.00  0.00     0.157 HD
ATOM     10  H41 UNL     1      35.591  18.206  66.735  1.00  0.00     0.157 HD
BRANCH   7  11
HETATM   11  N5  UNL     1      37.586  17.572  68.216  1.00  0.00    -0.374 N 
ATOM     12  H5  UNL     1      37.980  17.862  69.111  1.00  0.00     0.161 HD
BRANCH  11  13
HETATM   13  C12 UNL     1      37.102  16.244  68.060  1.00  0.00     0.147 C 
BRANCH  13  14
HETATM   14  C13 UNL     1      37.721  15.470  66.937  1.00  0.00     0.187 C 
BRANCH  14  15
HETATM   15  O1  UNL     1      37.298  15.487  65.743  1.00  0.00    -0.388 OA
BRANCH  15  16
HETATM   16  C14 UNL     1      36.374  15.532  64.880  1.00  0.00     0.187 C 
BRANCH  16  17
HETATM   17  C15 UNL     1      36.733  15.388  63.398  1.00  0.00     0.148 C 
BRANCH  17  18
HETATM   18  N6  UNL     1      38.036  15.979  63.204  1.00  0.00    -0.365 N 
HETATM   19  C16 UNL     1      39.090  15.331  62.870  1.00  0.00     0.197 C 
HETATM   20  N7  UNL     1      39.105  13.947  62.647  1.00  0.00    -0.067 NA
HETATM   21  N8  UNL     1      40.292  16.076  62.723  1.00  0.00    -0.067 NA
ATOM     22  H6  UNL     1      38.124  16.985  63.343  1.00  0.00     0.161 HD
ENDBRANCH  17  18
ENDBRANCH  16  17
ENDBRANCH  15  16
ENDBRANCH  14  15
ENDBRANCH  13  14
ENDBRANCH  11  13
ENDBRANCH   7  11
ENDBRANCH   3   7
BRANCH   1  23
HETATM   23  N3  UNL     1      41.719  18.788  64.784  1.00  0.00    -0.371 N 
HETATM   24  C7  UNL     1      42.604  17.752  65.266  1.00  0.00     0.151 C 
BRANCH  23  25
HETATM   25  C6  UNL     1      41.797  19.185  63.417  1.00  0.00     0.125 C 
BRANCH  25  26
HETATM   26  C5  UNL     1      43.180  19.126  62.826  1.00  0.00     0.039 C 
BRANCH  26  27
HETATM   27  C4  UNL     1      43.815  20.510  62.992  1.00  0.00     0.123 C 
BRANCH  27  28
HETATM   28  N2  UNL     1      45.235  20.437  63.129  1.00  0.00    -0.367 N 
ATOM     29  H2  UNL     1      45.650  19.861  63.861  1.00  0.00     0.161 HD
BRANCH  28  30
HETATM   30  C3  UNL     1      46.062  21.169  62.242  1.00  0.00     0.169 C 
HETATM   31  S1  UNL     1      45.524  21.583  60.753  1.00  0.00    -0.041 SA
BRANCH  30  32
HETATM   32  N1  UNL     1      47.362  21.541  62.656  1.00  0.00    -0.367 N 
HETATM   33  C1  UNL     1      48.498  20.722  62.318  1.00  0.00     0.151 C 
HETATM   34  C2  UNL     1      47.551  22.751  63.421  1.00  0.00     0.151 C 
ENDBRANCH  30  32
ENDBRANCH  28  30
ENDBRANCH  27  28
ENDBRANCH  26  27
ENDBRANCH  25  26
ENDBRANCH  23  25
ENDBRANCH   1  23
BRANCH   6  35
HETATM   35  C19 UNL     1      42.234  21.379  66.151  1.00  0.00     0.139 C 
BRANCH  35  36
HETATM   36  C20 UNL     1      43.489  20.982  66.804  1.00  0.00     0.123 C 
BRANCH  36  37
HETATM   37  C21 UNL     1      44.720  21.710  66.507  1.00  0.00     0.219 C 
HETATM   38  O2  UNL     1      45.749  21.272  65.969  1.00  0.00    -0.274 OA
HETATM   39  N10 UNL     1      44.732  23.107  66.889  1.00  0.00    -0.361 N 
ATOM     40  H10 UNL     1      43.925  23.542  67.335  1.00  0.00     0.162 HD
BRANCH  39  41
HETATM   41  C22 UNL     1      45.934  23.857  66.611  1.00  0.00     0.124 C 
BRANCH  41  42
HETATM   42  C23 UNL     1      45.987  25.083  67.492  1.00  0.00     0.039 C 
BRANCH  42  43
HETATM   43  C24 UNL     1      47.244  25.863  67.174  1.00  0.00     0.123 C 
BRANCH  43  44
HETATM   44  N11 UNL     1      47.367  26.107  65.757  1.00  0.00    -0.365 N 
HETATM   45  C25 UNL     1      48.604  26.477  65.192  1.00  0.00     0.181 C 
HETATM   46  N12 UNL     1      49.738  26.331  65.777  1.00  0.00    -0.374 N 
HETATM   47  N13 UNL     1      48.616  27.059  63.876  1.00  0.00    -0.064 NA
ATOM     48 2H12 UNL     1      49.729  25.919  66.710  1.00  0.00     0.158 HD
ATOM     49 1H12 UNL     1      50.633  26.599  65.368  1.00  0.00     0.158 HD
ATOM     50  H11 UNL     1      46.549  26.010  65.156  1.00  0.00     0.162 HD
ENDBRANCH  43  44
ENDBRANCH  42  43
ENDBRANCH  41  42
ENDBRANCH  39  41
ENDBRANCH  36  37
ENDBRANCH  35  36
ENDBRANCH   6  35
TORSDOF 22
ENDMDL
MODEL 2
REMARK VINA RESULT: -7.646505150      2.259      4.289
REMARK  22 active torsions:
REMARK  status: ('A' for Active; 'I' for Inactive)
REMARK    1  A    between atoms: N1_2  and  C3_4 
REMARK    2  A    between atoms: C3_4  and  N2_6 
REMARK    3  A    between atoms: N2_6  and  C4_8 
REMARK    4  A    between atoms: C4_8  and  C5_9 
REMARK    5  A    between atoms: C5_9  and  C6_10 
REMARK    6  A    between atoms: C6_10  and  N3_11 
REMARK    7  A    between atoms: N3_11  and  C8_13 
REMARK    8  A    between atoms: C10_15  and  C11_16 
REMARK    9  A    between atoms: C11_16  and  N5_20 
REMARK   10  A    between atoms: N5_20  and  C12_22 
REMARK   11  A    between atoms: C12_22  and  C13_23 
REMARK   12  A    between atoms: C13_23  and  O1_24 
REMARK   13  A    between atoms: O1_24  and  C14_25 
REMARK   14  A    between atoms: C14_25  and  C15_26 
REMARK   15  A    between atoms: C15_26  and  N6_27 
REMARK   16  A    between atoms: N9_34  and  C19_35 
REMARK   17  A    between atoms: C19_35  and  C20_36 
REMARK   18  A    between atoms: C20_36  and  C21_37 
REMARK       I    between atoms: C21_37  and  N10_39 
REMARK   19  A    between atoms: N10_39  and  C22_41 
REMARK   20  A    between atoms: C22_41  and  C23_42 
REMARK   21  A    between atoms: C23_42  and  C24_43 
REMARK   22  A    between atoms: C24_43  and  N11_44 
REMARK       I    between atoms: N11_44  and  C25_46 
ROOT
HETATM    1  C8  UNL     1      42.895  19.632  65.669  1.00  0.00     0.105 A 
HETATM    2  C9  UNL     1      41.990  19.645  66.755  1.00  0.00     0.064 A 
HETATM    3  C10 UNL     1      40.930  18.808  66.752  1.00  0.00     0.012 A 
HETATM    4  C17 UNL     1      40.707  17.931  65.701  1.00  0.00     0.032 A 
HETATM    5  C18 UNL     1      41.605  17.961  64.684  1.00  0.00     0.093 A 
HETATM    6  N9  UNL     1      42.689  18.801  64.666  1.00  0.00    -0.343 N 
ENDROOT
BRANCH   3   7
HETATM    7  C11 UNL     1      39.941  18.774  67.847  1.00  0.00     0.105 C 
HETATM    8  N4  UNL     1      39.345  19.822  68.241  1.00  0.00    -0.385 N 
ATOM      9  H42 UNL     1      39.522  20.730  67.811  1.00  0.00     0.157 HD
ATOM     10  H41 UNL     1      38.661  19.798  68.997  1.00  0.00     0.157 HD
BRANCH   7  11
HETATM   11  N5  UNL     1      39.696  17.519  68.441  1.00  0.00    -0.374 N 
ATOM     12  H5  UNL     1      40.479  16.903  68.658  1.00  0.00     0.161 HD
BRANCH  11  13
HETATM   13  C12 UNL     1      38.370  17.099  68.740  1.00  0.00     0.147 C 
BRANCH  13  14
HETATM   14  C13 UNL     1      37.895  15.900  67.980  1.00  0.00     0.187 C 
BRANCH  14  15
HETATM   15  O1  UNL     1      37.906  15.809  66.716  1.00  0.00    -0.388 OA
BRANCH  15  16
HETATM   16  C14 UNL     1      37.466  16.098  65.567  1.00  0.00     0.187 C 
BRANCH  16  17
HETATM   17  C15 UNL     1      37.770  15.158  64.395  1.00  0.00     0.148 C 
BRANCH  17  18
HETATM   18  N6  UNL     1      38.811  15.771  63.603  1.00  0.00    -0.365 N 
HETATM   19  C16 UNL     1      39.516  15.160  62.726  1.00  0.00     0.197 C 
HETATM   20  N7  UNL     1      39.361  13.800  62.423  1.00  0.00    -0.067 NA
HETATM   21  N8  UNL     1      40.500  15.922  62.038  1.00  0.00    -0.067 NA
ATOM     22  H6  UNL     1      38.997  16.762  63.753  1.00  0.00     0.161 HD
ENDBRANCH  17  18
ENDBRANCH  16  17
ENDBRANCH  15  16
ENDBRANCH  14  15
ENDBRANCH  13  14
ENDBRANCH  11  13
ENDBRANCH   7  11
ENDBRANCH   3   7
BRANCH   1  23
HETATM   23  N3  UNL     1      43.948  20.558  65.844  1.00  0.00    -0.371 N 
HETATM   24  C7  UNL     1      45.293  20.058  66.017  1.00  0.00     0.151 C 
BRANCH  23  25
HETATM   25  C6  UNL     1      43.710  21.959  65.961  1.00  0.00     0.125 C 
BRANCH  25  26
HETATM   26  C5  UNL     1      44.648  22.678  66.893  1.00  0.00     0.039 C 
BRANCH  26  27
HETATM   27  C4  UNL     1      45.111  23.957  66.189  1.00  0.00     0.123 C 
BRANCH  27  28
HETATM   28  N2  UNL     1      46.521  23.966  65.965  1.00  0.00    -0.367 N 
ATOM     29  H2  UNL     1      46.929  23.370  65.244  1.00  0.00     0.161 HD
BRANCH  28  30
HETATM   30  C3  UNL     1      47.350  24.807  66.748  1.00  0.00     0.169 C 
HETATM   31  S1  UNL     1      47.194  24.845  68.376  1.00  0.00    -0.041 SA
BRANCH  30  32
HETATM   32  N1  UNL     1      48.315  25.617  66.108  1.00  0.00    -0.367 N 
HETATM   33  C1  UNL     1      48.734  25.328  64.760  1.00  0.00     0.151 C 
HETATM   34  C2  UNL     1      48.884  26.744  66.810  1.00  0.00     0.151 C 
ENDBRANCH  30  32
ENDBRANCH  28  30
ENDBRANCH  27  28
ENDBRANCH  26  27
ENDBRANCH  25  26
ENDBRANCH  23  25
ENDBRANCH   1  23
BRANCH   6  35
HETATM   35  C19 UNL     1      43.503  18.765  63.513  1.00  0.00     0.139 C 
BRANCH  35  36
HETATM   36  C20 UNL     1      43.373  19.785  62.463  1.00  0.00     0.123 C 
BRANCH  36  37
HETATM   37  C21 UNL     1      44.571  20.299  61.804  1.00  0.00     0.219 C 
HETATM   38  O2  UNL     1      44.635  21.152  60.905  1.00  0.00    -0.274 OA
HETATM   39  N10 UNL     1      45.828  19.740  62.257  1.00  0.00    -0.361 N 
ATOM     40  H10 UNL     1      45.860  19.034  62.993  1.00  0.00     0.162 HD
BRANCH  39  41
HETATM   41  C22 UNL     1      47.032  20.224  61.625  1.00  0.00     0.124 C 
BRANCH  41  42
HETATM   42  C23 UNL     1      47.875  20.970  62.634  1.00  0.00     0.039 C 
BRANCH  42  43
HETATM   43  C24 UNL     1      47.285  22.348  62.842  1.00  0.00     0.123 C 
BRANCH  43  44
HETATM   44  N11 UNL     1      47.955  23.335  62.030  1.00  0.00    -0.365 N 
HETATM   45  C25 UNL     1      47.363  23.823  60.849  1.00  0.00     0.181 C 
HETATM   46  N12 UNL     1      46.118  23.696  60.559  1.00  0.00    -0.374 N 
HETATM   47  N13 UNL     1      48.191  24.509  59.892  1.00  0.00    -0.064 NA
ATOM     48 2H12 UNL     1      45.531  23.209  61.236  1.00  0.00     0.158 HD
ATOM     49 1H12 UNL     1      45.689  24.048  59.703  1.00  0.00     0.158 HD
ATOM     50  H11 UNL     1      48.870  23.685  62.316  1.00  0.00     0.162 HD
ENDBRANCH  43  44
ENDBRANCH  42  43
ENDBRANCH  41  42
ENDBRANCH  39  41
ENDBRANCH  36  37
ENDBRANCH  35  36
ENDBRANCH   6  35
TORSDOF 22
ENDMDL
MODEL 3
REMARK VINA RESULT: -7.631370363      2.682     11.237
REMARK  22 active torsions:
REMARK  status: ('A' for Active; 'I' for Inactive)
REMARK    1  A    between atoms: N1_2  and  C3_4 
REMARK    2  A    between atoms: C3_4  and  N2_6 
REMARK    3  A    between atoms: N2_6  and  C4_8 
REMARK    4  A    between atoms: C4_8  and  C5_9 
REMARK    5  A    between atoms: C5_9  and  C6_10 
REMARK    6  A    between atoms: C6_10  and  N3_11 
REMARK    7  A    between atoms: N3_11  and  C8_13 
REMARK    8  A    between atoms: C10_15  and  C11_16 
REMARK    9  A    between atoms: C11_16  and  N5_20 
REMARK   10  A    between atoms: N5_20  and  C12_22 
REMARK   11  A    between atoms: C12_22  and  C13_23 
REMARK   12  A    between atoms: C13_23  and  O1_24 
REMARK   13  A    between atoms: O1_24  and  C14_25 
REMARK   14  A    between atoms: C14_25  and  C15_26 
REMARK   15  A    between atoms: C15_26  and  N6_27 
REMARK   16  A    between atoms: N9_34  and  C19_35 
REMARK   17  A    between atoms: C19_35  and  C20_36 
REMARK   18  A    between atoms: C20_36  and  C21_37 
REMARK       I    between atoms: C21_37  and  N10_39 
REMARK   19  A    between atoms: N10_39  and  C22_41 
REMARK   20  A    between atoms: C22_41  and  C23_42 
REMARK   21  A    between atoms: C23_42  and  C24_43 
REMARK   22  A    between atoms: C24_43  and  N11_44 
REMARK       I    between atoms: N11_44  and  C25_46 
ROOT
HETATM    1  C8  UNL     1      43.490  19.678  64.662  1.00  0.00     0.105 A 
HETATM    2  C9  UNL     1      44.391  20.701  65.034  1.00  0.00     0.064 A 
HETATM    3  C10 UNL     1      45.014  21.423  64.078  1.00  0.00     0.012 A 
HETATM    4  C17 UNL     1      44.790  21.183  62.731  1.00  0.00     0.032 A 
HETATM    5  C18 UNL     1      43.916  20.189  62.429  1.00  0.00     0.093 A 
HETATM    6  N9  UNL     1      43.271  19.443  63.382  1.00  0.00    -0.343 N 
ENDROOT
BRANCH   3   7
HETATM    7  C11 UNL     1      45.974  22.499  64.394  1.00  0.00     0.105 C 
HETATM    8  N4  UNL     1      46.755  22.977  63.516  1.00  0.00    -0.385 N 
ATOM      9  H42 UNL     1      46.746  22.638  62.553  1.00  0.00     0.157 HD
ATOM     10  H41 UNL     1      47.417  23.721  63.734  1.00  0.00     0.157 HD
BRANCH   7  11
HETATM   11  N5  UNL     1      45.986  22.968  65.724  1.00  0.00    -0.374 N 
ATOM     12  H5  UNL     1      46.790  22.770  66.320  1.00  0.00     0.161 HD
BRANCH  11  13
HETATM   13  C12 UNL     1      44.892  23.711  66.247  1.00  0.00     0.147 C 
BRANCH  13  14
HETATM   14  C13 UNL     1      45.126  25.186  66.369  1.00  0.00     0.187 C 
BRANCH  14  15
HETATM   15  O1  UNL     1      46.109  25.701  66.981  1.00  0.00    -0.388 OA
BRANCH  15  16
HETATM   16  C14 UNL     1      46.925  25.759  67.945  1.00  0.00     0.187 C 
BRANCH  16  17
HETATM   17  C15 UNL     1      48.423  25.604  67.663  1.00  0.00     0.148 C 
BRANCH  17  18
HETATM   18  N6  UNL     1      48.623  25.803  66.247  1.00  0.00    -0.365 N 
HETATM   19  C16 UNL     1      48.882  24.871  65.407  1.00  0.00     0.197 C 
HETATM   20  N7  UNL     1      49.002  23.521  65.767  1.00  0.00    -0.067 NA
HETATM   21  N8  UNL     1      49.050  25.249  64.047  1.00  0.00    -0.067 NA
ATOM     22  H6  UNL     1      48.554  26.756  65.889  1.00  0.00     0.161 HD
ENDBRANCH  17  18
ENDBRANCH  16  17
ENDBRANCH  15  16
ENDBRANCH  14  15
ENDBRANCH  13  14
ENDBRANCH  11  13
ENDBRANCH   7  11
ENDBRANCH   3   7
BRANCH   1  23
HETATM   23  N3  UNL     1      42.921  19.036  65.785  1.00  0.00    -0.371 N 
HETATM   24  C7  UNL     1      43.235  17.646  66.025  1.00  0.00     0.151 C 
BRANCH  23  25
HETATM   25  C6  UNL     1      41.967  19.686  66.623  1.00  0.00     0.125 C 
BRANCH  25  26
HETATM   26  C5  UNL     1      41.250  18.773  67.580  1.00  0.00     0.039 C 
BRANCH  26  27
HETATM   27  C4  UNL     1      39.780  18.721  67.158  1.00  0.00     0.123 C 
BRANCH  27  28
HETATM   28  N2  UNL     1      39.312  17.381  67.005  1.00  0.00    -0.367 N 
ATOM     29  H2  UNL     1      39.790  16.739  66.373  1.00  0.00     0.161 HD
BRANCH  28  30
HETATM   30  C3  UNL     1      38.178  16.946  67.737  1.00  0.00     0.169 C 
HETATM   31  S1  UNL     1      38.315  16.538  69.316  1.00  0.00    -0.041 SA
BRANCH  30  32
HETATM   32  N1  UNL     1      36.925  16.868  67.089  1.00  0.00    -0.367 N 
HETATM   33  C1  UNL     1      36.329  15.587  66.805  1.00  0.00     0.151 C 
HETATM   34  C2  UNL     1      36.237  18.080  66.711  1.00  0.00     0.151 C 
ENDBRANCH  30  32
ENDBRANCH  28  30
ENDBRANCH  27  28
ENDBRANCH  26  27
ENDBRANCH  25  26
ENDBRANCH  23  25
ENDBRANCH   1  23
BRANCH   6  35
HETATM   35  C19 UNL     1      42.438  18.402  62.919  1.00  0.00     0.139 C 
BRANCH  35  36
HETATM   36  C20 UNL     1      40.999  18.397  63.214  1.00  0.00     0.123 C 
BRANCH  36  37
HETATM   37  C21 UNL     1      40.283  17.127  63.298  1.00  0.00     0.219 C 
HETATM   38  O2  UNL     1      39.423  16.794  64.128  1.00  0.00    -0.274 OA
HETATM   39  N10 UNL     1      40.624  16.145  62.288  1.00  0.00    -0.361 N 
ATOM     40  H10 UNL     1      41.320  16.342  61.570  1.00  0.00     0.162 HD
BRANCH  39  41
HETATM   41  C22 UNL     1      39.936  14.877  62.342  1.00  0.00     0.124 C 
BRANCH  41  42
HETATM   42  C23 UNL     1      38.687  14.936  61.493  1.00  0.00     0.039 C 
BRANCH  42  43
HETATM   43  C24 UNL     1      37.510  14.464  62.318  1.00  0.00     0.123 C 
BRANCH  43  44
HETATM   44  N11 UNL     1      36.716  15.575  62.786  1.00  0.00    -0.365 N 
HETATM   45  C25 UNL     1      35.431  15.369  63.325  1.00  0.00     0.181 C 
HETATM   46  N12 UNL     1      34.990  14.232  63.728  1.00  0.00    -0.374 N 
HETATM   47  N13 UNL     1      34.539  16.493  63.436  1.00  0.00    -0.064 NA
ATOM     48 2H12 UNL     1      35.622  13.435  63.649  1.00  0.00     0.158 HD
ATOM     49 1H12 UNL     1      34.060  14.083  64.118  1.00  0.00     0.158 HD
ATOM     50  H11 UNL     1      37.090  16.522  62.726  1.00  0.00     0.162 HD
ENDBRANCH  43  44
ENDBRANCH  42  43
ENDBRANCH  41  42
ENDBRANCH  39  41
ENDBRANCH  36  37
ENDBRANCH  35  36
ENDBRANCH   6  35
TORSDOF 22
ENDMDL
MODEL 4
REMARK VINA RESULT: -7.523050786      2.276     11.175
REMARK  22 active torsions:
REMARK  status: ('A' for Active; 'I' for Inactive)
REMARK    1  A    between atoms: N1_2  and  C3_4 
REMARK    2  A    between atoms: C3_4  and  N2_6 
REMARK    3  A    between atoms: N2_6  and  C4_8 
REMARK    4  A    between atoms: C4_8  and  C5_9 
REMARK    5  A    between atoms: C5_9  and  C6_10 
REMARK    6  A    between atoms: C6_10  and  N3_11 
REMARK    7  A    between atoms: N3_11  and  C8_13 
REMARK    8  A    between atoms: C10_15  and  C11_16 
REMARK    9  A    between atoms: C11_16  and  N5_20 
REMARK   10  A    between atoms: N5_20  and  C12_22 
REMARK   11  A    between atoms: C12_22  and  C13_23 
REMARK   12  A    between atoms: C13_23  and  O1_24 
REMARK   13  A    between atoms: O1_24  and  C14_25 
REMARK   14  A    between atoms: C14_25  and  C15_26 
REMARK   15  A    between atoms: C15_26  and  N6_27 
REMARK   16  A    between atoms: N9_34  and  C19_35 
REMARK   17  A    between atoms: C19_35  and  C20_36 
REMARK   18  A    between atoms: C20_36  and  C21_37 
REMARK       I    between atoms: C21_37  and  N10_39 
REMARK   19  A    between atoms: N10_39  and  C22_41 
REMARK   20  A    between atoms: C22_41  and  C23_42 
REMARK   21  A    between atoms: C23_42  and  C24_43 
REMARK   22  A    between atoms: C24_43  and  N11_44 
REMARK       I    between atoms: N11_44  and  C25_46 
ROOT
HETATM    1  C8  UNL     1      44.090  19.856  64.383  1.00  0.00     0.105 A 
HETATM    2  C9  UNL     1      45.326  20.537  64.459  1.00  0.00     0.064 A 
HETATM    3  C10 UNL     1      45.931  20.953  63.327  1.00  0.00     0.012 A 
HETATM    4  C17 UNL     1      45.365  20.726  62.082  1.00  0.00     0.032 A 
HETATM    5  C18 UNL     1      44.179  20.067  62.065  1.00  0.00     0.093 A 
HETATM    6  N9  UNL     1      43.545  19.636  63.202  1.00  0.00    -0.343 N 
ENDROOT
BRANCH   3   7
HETATM    7  C11 UNL     1      47.226  21.662  63.331  1.00  0.00     0.105 C 
HETATM    8  N4  UNL     1      48.300  21.092  62.967  1.00  0.00    -0.385 N 
ATOM      9  H42 UNL     1      48.309  20.122  62.651  1.00  0.00     0.157 HD
ATOM     10  H41 UNL     1      49.194  21.582  62.970  1.00  0.00     0.157 HD
BRANCH   7  11
HETATM   11  N5  UNL     1      47.214  23.002  63.768  1.00  0.00    -0.374 N 
ATOM     12  H5  UNL     1      46.717  23.705  63.221  1.00  0.00     0.161 HD
BRANCH  11  13
HETATM   13  C12 UNL     1      47.885  23.387  64.962  1.00  0.00     0.147 C 
BRANCH  13  14
HETATM   14  C13 UNL     1      47.015  23.487  66.177  1.00  0.00     0.187 C 
BRANCH  14  15
HETATM   15  O1  UNL     1      47.425  23.858  67.317  1.00  0.00    -0.388 OA
BRANCH  15  16
HETATM   16  C14 UNL     1      47.731  24.744  68.165  1.00  0.00     0.187 C 
BRANCH  16  17
HETATM   17  C15 UNL     1      47.592  26.221  67.782  1.00  0.00     0.148 C 
BRANCH  17  18
HETATM   18  N6  UNL     1      48.876  26.666  67.291  1.00  0.00    -0.365 N 
HETATM   19  C16 UNL     1      49.117  27.005  66.080  1.00  0.00     0.197 C 
HETATM   20  N7  UNL     1      48.148  26.985  65.067  1.00  0.00    -0.067 NA
HETATM   21  N8  UNL     1      50.442  27.420  65.773  1.00  0.00    -0.067 NA
ATOM     22  H6  UNL     1      49.646  26.715  67.958  1.00  0.00     0.161 HD
ENDBRANCH  17  18
ENDBRANCH  16  17
ENDBRANCH  15  16
ENDBRANCH  14  15
ENDBRANCH  13  14
ENDBRANCH  11  13
ENDBRANCH   7  11
ENDBRANCH   3   7
BRANCH   1  23
HETATM   23  N3  UNL     1      43.595  19.507  65.660  1.00  0.00    -0.371 N 
HETATM   24  C7  UNL     1      43.520  18.109  66.019  1.00  0.00     0.151 C 
BRANCH  23  25
HETATM   25  C6  UNL     1      43.072  20.482  66.559  1.00  0.00     0.125 C 
BRANCH  25  26
HETATM   26  C5  UNL     1      41.932  21.295  66.007  1.00  0.00     0.039 C 
BRANCH  26  27
HETATM   27  C4  UNL     1      40.712  20.375  65.909  1.00  0.00     0.123 C 
BRANCH  27  28
HETATM   28  N2  UNL     1      39.837  20.522  67.028  1.00  0.00    -0.367 N 
ATOM     29  H2  UNL     1      39.530  21.449  67.321  1.00  0.00     0.161 HD
BRANCH  28  30
HETATM   30  C3  UNL     1      39.399  19.372  67.730  1.00  0.00     0.169 C 
HETATM   31  S1  UNL     1      40.449  18.498  68.632  1.00  0.00    -0.041 SA
BRANCH  30  32
HETATM   32  N1  UNL     1      38.043  18.983  67.644  1.00  0.00    -0.367 N 
HETATM   33  C1  UNL     1      37.597  17.751  68.244  1.00  0.00     0.151 C 
HETATM   34  C2  UNL     1      37.099  19.828  66.952  1.00  0.00     0.151 C 
ENDBRANCH  30  32
ENDBRANCH  28  30
ENDBRANCH  27  28
ENDBRANCH  26  27
ENDBRANCH  25  26
ENDBRANCH  23  25
ENDBRANCH   1  23
BRANCH   6  35
HETATM   35  C19 UNL     1      42.347  18.909  63.027  1.00  0.00     0.139 C 
BRANCH  35  36
HETATM   36  C20 UNL     1      42.373  17.494  62.633  1.00  0.00     0.123 C 
BRANCH  36  37
HETATM   37  C21 UNL     1      41.201  16.656  62.874  1.00  0.00     0.219 C 
HETATM   38  O2  UNL     1      40.456  16.662  63.866  1.00  0.00    -0.274 OA
HETATM   39  N10 UNL     1      40.879  15.708  61.827  1.00  0.00    -0.361 N 
ATOM     40  H10 UNL     1      41.442  15.642  60.979  1.00  0.00     0.162 HD
BRANCH  39  41
HETATM   41  C22 UNL     1      39.727  14.862  62.034  1.00  0.00     0.124 C 
BRANCH  41  42
HETATM   42  C23 UNL     1      38.495  15.529  61.468  1.00  0.00     0.039 C 
BRANCH  42  43
HETATM   43  C24 UNL     1      37.347  15.343  62.436  1.00  0.00     0.123 C 
BRANCH  43  44
HETATM   44  N11 UNL     1      37.802  14.798  63.693  1.00  0.00    -0.365 N 
HETATM   45  C25 UNL     1      37.549  15.468  64.905  1.00  0.00     0.181 C 
HETATM   46  N12 UNL     1      36.672  16.396  65.049  1.00  0.00    -0.374 N 
HETATM   47  N13 UNL     1      38.312  15.104  66.070  1.00  0.00    -0.064 NA
ATOM     48 2H12 UNL     1      36.131  16.655  64.224  1.00  0.00     0.158 HD
ATOM     49 1H12 UNL     1      36.489  16.881  65.927  1.00  0.00     0.158 HD
ATOM     50  H11 UNL     1      38.313  13.916  63.703  1.00  0.00     0.162 HD
ENDBRANCH  43  44
ENDBRANCH  42  43
ENDBRANCH  41  42
ENDBRANCH  39  41
ENDBRANCH  36  37
ENDBRANCH  35  36
ENDBRANCH   6  35
TORSDOF 22
ENDMDL
MODEL 5
REMARK VINA RESULT: -7.511505323      1.866      3.202
REMARK  22 active torsions:
REMARK  status: ('A' for Active; 'I' for Inactive)
REMARK    1  A    between atoms: N1_2  and  C3_4 
REMARK    2  A    between atoms: C3_4  and  N2_6 
REMARK    3  A    between atoms: N2_6  and  C4_8 
REMARK    4  A    between atoms: C4_8  and  C5_9 
REMARK    5  A    between atoms: C5_9  and  C6_10 
REMARK    6  A    between atoms: C6_10  and  N3_11 
REMARK    7  A    between atoms: N3_11  and  C8_13 
REMARK    8  A    between atoms: C10_15  and  C11_16 
REMARK    9  A    between atoms: C11_16  and  N5_20 
REMARK   10  A    between atoms: N5_20  and  C12_22 
REMARK   11  A    between atoms: C12_22  and  C13_23 
REMARK   12  A    between atoms: C13_23  and  O1_24 
REMARK   13  A    between atoms: O1_24  and  C14_25 
REMARK   14  A    between atoms: C14_25  and  C15_26 
REMARK   15  A    between atoms: C15_26  and  N6_27 
REMARK   16  A    between atoms: N9_34  and  C19_35 
REMARK   17  A    between atoms: C19_35  and  C20_36 
REMARK   18  A    between atoms: C20_36  and  C21_37 
REMARK       I    between atoms: C21_37  and  N10_39 
REMARK   19  A    between atoms: N10_39  and  C22_41 
REMARK   20  A    between atoms: C22_41  and  C23_42 
REMARK   21  A    between atoms: C23_42  and  C24_43 
REMARK   22  A    between atoms: C24_43  and  N11_44 
REMARK       I    between atoms: N11_44  and  C25_46 
ROOT
HETATM    1  C8  UNL     1      43.590  19.252  63.866  1.00  0.00     0.105 A 
HETATM    2  C9  UNL     1      42.537  18.605  63.178  1.00  0.00     0.064 A 
HETATM    3  C10 UNL     1      41.473  18.142  63.867  1.00  0.00     0.012 A 
HETATM    4  C17 UNL     1      41.387  18.286  65.244  1.00  0.00     0.032 A 
HETATM    5  C18 UNL     1      42.424  18.913  65.854  1.00  0.00     0.093 A 
HETATM    6  N9  UNL     1      43.515  19.392  65.175  1.00  0.00    -0.343 N 
ENDROOT
BRANCH   3   7
HETATM    7  C11 UNL     1      40.343  17.450  63.216  1.00  0.00     0.105 C 
HETATM    8  N4  UNL     1      39.367  18.089  62.718  1.00  0.00    -0.385 N 
ATOM      9  H42 UNL     1      39.327  19.108  62.745  1.00  0.00     0.157 HD
ATOM     10  H41 UNL     1      38.587  17.611  62.267  1.00  0.00     0.157 HD
BRANCH   7  11
HETATM   11  N5  UNL     1      40.399  16.042  63.179  1.00  0.00    -0.374 N 
ATOM     12  H5  UNL     1      40.744  15.531  63.990  1.00  0.00     0.161 HD
BRANCH  11  13
HETATM   13  C12 UNL     1      39.980  15.325  62.024  1.00  0.00     0.147 C 
BRANCH  13  14
HETATM   14  C13 UNL     1      38.590  14.769  62.090  1.00  0.00     0.187 C 
BRANCH  14  15
HETATM   15  O1  UNL     1      37.552  15.471  62.272  1.00  0.00    -0.388 OA
BRANCH  15  16
HETATM   16  C14 UNL     1      36.429  15.696  62.808  1.00  0.00     0.187 C 
BRANCH  16  17
HETATM   17  C15 UNL     1      36.208  15.292  64.269  1.00  0.00     0.148 C 
BRANCH  17  18
HETATM   18  N6  UNL     1      36.738  16.348  65.099  1.00  0.00    -0.365 N 
HETATM   19  C16 UNL     1      37.850  16.291  65.731  1.00  0.00     0.197 C 
HETATM   20  N7  UNL     1      38.703  15.178  65.693  1.00  0.00    -0.067 NA
HETATM   21  N8  UNL     1      38.219  17.427  66.504  1.00  0.00    -0.067 NA
ATOM     22  H6  UNL     1      36.187  17.202  65.188  1.00  0.00     0.161 HD
ENDBRANCH  17  18
ENDBRANCH  16  17
ENDBRANCH  15  16
ENDBRANCH  14  15
ENDBRANCH  13  14
ENDBRANCH  11  13
ENDBRANCH   7  11
ENDBRANCH   3   7
BRANCH   1  23
HETATM   23  N3  UNL     1      44.612  19.683  62.990  1.00  0.00    -0.371 N 
HETATM   24  C7  UNL     1      45.842  18.926  62.931  1.00  0.00     0.151 C 
BRANCH  23  25
HETATM   25  C6  UNL     1      44.507  20.895  62.246  1.00  0.00     0.125 C 
BRANCH  25  26
HETATM   26  C5  UNL     1      44.821  20.759  60.781  1.00  0.00     0.039 C 
BRANCH  26  27
HETATM   27  C4  UNL     1      45.668  21.967  60.375  1.00  0.00     0.123 C 
BRANCH  27  28
HETATM   28  N2  UNL     1      45.950  22.823  61.483  1.00  0.00    -0.367 N 
ATOM     29  H2  UNL     1      45.190  23.290  61.977  1.00  0.00     0.161 HD
BRANCH  28  30
HETATM   30  C3  UNL     1      47.293  23.019  61.893  1.00  0.00     0.169 C 
HETATM   31  S1  UNL     1      48.233  24.135  61.153  1.00  0.00    -0.041 SA
BRANCH  30  32
HETATM   32  N1  UNL     1      47.815  22.239  62.950  1.00  0.00    -0.367 N 
HETATM   33  C1  UNL     1      47.661  22.665  64.317  1.00  0.00     0.151 C 
HETATM   34  C2  UNL     1      48.506  21.006  62.655  1.00  0.00     0.151 C 
ENDBRANCH  30  32
ENDBRANCH  28  30
ENDBRANCH  27  28
ENDBRANCH  26  27
ENDBRANCH  25  26
ENDBRANCH  23  25
ENDBRANCH   1  23
BRANCH   6  35
HETATM   35  C19 UNL     1      44.546  19.966  65.951  1.00  0.00     0.139 C 
BRANCH  35  36
HETATM   36  C20 UNL     1      44.288  21.131  66.808  1.00  0.00     0.123 C 
BRANCH  36  37
HETATM   37  C21 UNL     1      44.496  22.476  66.279  1.00  0.00     0.219 C 
HETATM   38  O2  UNL     1      44.153  22.918  65.171  1.00  0.00    -0.274 OA
HETATM   39  N10 UNL     1      45.187  23.398  67.158  1.00  0.00    -0.361 N 
ATOM     40  H10 UNL     1      45.502  23.112  68.085  1.00  0.00     0.162 HD
BRANCH  39  41
HETATM   41  C22 UNL     1      45.411  24.737  66.666  1.00  0.00     0.124 C 
BRANCH  41  42
HETATM   42  C23 UNL     1      46.258  25.509  67.652  1.00  0.00     0.039 C 
BRANCH  42  43
HETATM   43  C24 UNL     1      47.647  25.681  67.078  1.00  0.00     0.123 C 
BRANCH  43  44
HETATM   44  N11 UNL     1      47.598  26.095  65.696  1.00  0.00    -0.365 N 
HETATM   45  C25 UNL     1      48.749  26.577  65.045  1.00  0.00     0.181 C 
HETATM   46  N12 UNL     1      49.948  26.408  65.475  1.00  0.00    -0.374 N 
HETATM   47  N13 UNL     1      48.593  27.311  63.816  1.00  0.00    -0.064 NA
ATOM     48 2H12 UNL     1      50.059  25.889  66.346  1.00  0.00     0.158 HD
ATOM     49 1H12 UNL     1      50.781  26.758  65.003  1.00  0.00     0.158 HD
ATOM     50  H11 UNL     1      46.717  26.038  65.184  1.00  0.00     0.162 HD
ENDBRANCH  43  44
ENDBRANCH  42  43
ENDBRANCH  41  42
ENDBRANCH  39  41
ENDBRANCH  36  37
ENDBRANCH  35  36
ENDBRANCH   6  35
TORSDOF 22
ENDMDL
