MODEL 1
REMARK VINA RESULT: -8.311929079      0.000      0.000
REMARK  20 active torsions:
REMARK  status: ('A' for Active; 'I' for Inactive)
REMARK    1  A    between atoms: N1_2  and  C3_4 
REMARK    2  A    between atoms: N1_2  and  C16_26 
REMARK    3  A    between atoms: C3_4  and  C4_5 
REMARK    4  A    between atoms: C4_5  and  C5_6 
REMARK    5  A    between atoms: C5_6  and  N2_7 
REMARK       I    between atoms: N2_7  and  C6_9 
REMARK    6  A    between atoms: C6_9  and  C7_11 
REMARK    7  A    between atoms: C7_11  and  C8_12 
REMARK    8  A    between atoms: C8_12  and  O2_13 
REMARK    9  A    between atoms: O2_13  and  C9_14 
REMARK   10  A    between atoms: C9_14  and  C10_15 
REMARK   11  A    between atoms: C10_15  and  N3_16 
REMARK   12  A    between atoms: C16_26  and  C17_27 
REMARK   13  A    between atoms: C17_27  and  N6_28 
REMARK       I    between atoms: N6_28  and  C18_30 
REMARK   14  A    between atoms: C18_30  and  C19_32 
REMARK   15  A    between atoms: C24_37  and  C25_38 
REMARK   16  A    between atoms: C25_38  and  C26_39 
REMARK   17  A    between atoms: C26_39  and  N8_43 
REMARK   18  A    between atoms: N8_43  and  C27_45 
REMARK   19  A    between atoms: C27_45  and  C28_46 
REMARK   20  A    between atoms: C28_46  and  N9_47 
ROOT
HETATM    1  C16 UNL     1      41.189  16.496  62.124  1.00  0.00     0.256 C 
ENDROOT
BRANCH   1   2
HETATM    2  N1  UNL     1      39.911  15.820  62.431  1.00  0.00    -0.073 N 
HETATM    3  C1  UNL     1      38.882  16.545  61.711  1.00  0.00     0.272 C 
HETATM    4  C2  UNL     1      40.024  14.494  61.863  1.00  0.00     0.272 C 
BRANCH   2   5
HETATM    5  C3  UNL     1      39.786  15.791  63.834  1.00  0.00     0.238 C 
BRANCH   5   6
HETATM    6  C4  UNL     1      38.523  16.267  64.466  1.00  0.00     0.047 C 
BRANCH   6   7
HETATM    7  C5  UNL     1      38.196  15.455  65.677  1.00  0.00     0.124 C 
BRANCH   7   8
HETATM    8  N2  UNL     1      36.950  15.920  66.253  1.00  0.00    -0.361 N 
HETATM    9  C6  UNL     1      36.755  15.980  67.631  1.00  0.00     0.219 C 
HETATM   10  O1  UNL     1      37.562  15.667  68.535  1.00  0.00    -0.274 OA
ATOM     11  H2  UNL     1      36.195  16.212  65.633  1.00  0.00     0.162 HD
BRANCH   9  12
HETATM   12  C7  UNL     1      35.413  16.479  68.114  1.00  0.00     0.129 C 
BRANCH  12  13
HETATM   13  C8  UNL     1      35.467  17.940  68.428  1.00  0.00     0.176 C 
BRANCH  13  14
HETATM   14  O2  UNL     1      35.809  18.769  67.476  1.00  0.00    -0.389 OA
BRANCH  14  15
HETATM   15  C9  UNL     1      36.796  19.627  67.361  1.00  0.00     0.197 C 
BRANCH  15  16
HETATM   16  C10 UNL     1      37.940  19.286  66.474  1.00  0.00     0.287 C 
BRANCH  16  17
HETATM   17  N3  UNL     1      39.226  19.598  67.163  1.00  0.00     0.021 N 
HETATM   18  C11 UNL     1      39.389  18.726  68.266  1.00  0.00     0.288 C 
HETATM   19  C12 UNL     1      40.809  18.581  68.751  1.00  0.00     0.262 C 
HETATM   20  N4  UNL     1      41.799  18.659  67.735  1.00  0.00    -0.071 N 
HETATM   21  C13 UNL     1      41.274  18.509  66.407  1.00  0.00     0.268 C 
ATOM     22  H42 UNL     1      42.331  19.525  67.816  1.00  0.00     0.277 HD
ATOM     23  H41 UNL     1      42.544  17.985  67.906  1.00  0.00     0.277 HD
HETATM   24  C14 UNL     1      40.269  19.640  66.198  1.00  0.00     0.253 C 
HETATM   25  C15 UNL     1      40.711  20.948  66.827  1.00  0.00     0.179 C 
HETATM   26  N5  UNL     1      39.371  20.960  67.409  1.00  0.00    -0.044 NA
ENDBRANCH  16  17
ENDBRANCH  15  16
ENDBRANCH  14  15
ENDBRANCH  13  14
ENDBRANCH  12  13
ENDBRANCH   9  12
ENDBRANCH   7   8
ENDBRANCH   6   7
ENDBRANCH   5   6
ENDBRANCH   2   5
ENDBRANCH   1   2
BRANCH   1  27
HETATM   27  C17 UNL     1      41.974  16.807  63.349  1.00  0.00     0.151 C 
BRANCH  27  28
HETATM   28  N6  UNL     1      43.004  17.810  63.037  1.00  0.00    -0.355 N 
HETATM   29  C18 UNL     1      42.728  19.182  62.946  1.00  0.00     0.252 C 
HETATM   30  O3  UNL     1      41.585  19.644  63.124  1.00  0.00    -0.268 OA
ATOM     31  H6  UNL     1      43.961  17.494  62.880  1.00  0.00     0.162 HD
BRANCH  29  32
HETATM   32  C19 UNL     1      43.815  20.123  62.642  1.00  0.00     0.038 A 
HETATM   33  C20 UNL     1      44.337  20.061  61.341  1.00  0.00     0.017 A 
HETATM   34  C21 UNL     1      45.288  20.941  60.945  1.00  0.00     0.001 A 
HETATM   35  C22 UNL     1      45.741  21.893  61.818  1.00  0.00     0.001 A 
HETATM   36  C23 UNL     1      45.239  21.959  63.088  1.00  0.00     0.008 A 
HETATM   37  C24 UNL     1      44.257  21.064  63.529  1.00  0.00    -0.035 A 
BRANCH  37  38
HETATM   38  C25 UNL     1      43.758  21.148  64.931  1.00  0.00     0.115 C 
BRANCH  38  39
HETATM   39  C26 UNL     1      44.747  20.791  65.961  1.00  0.00     0.074 C 
HETATM   40  N7  UNL     1      45.064  19.512  66.069  1.00  0.00    -0.389 N 
ATOM     41  H72 UNL     1      44.590  18.890  65.414  1.00  0.00     0.157 HD
ATOM     42  H71 UNL     1      45.749  19.265  66.783  1.00  0.00     0.157 HD
BRANCH  39  43
HETATM   43  N8  UNL     1      45.392  21.638  66.855  1.00  0.00    -0.378 N 
ATOM     44  H8  UNL     1      46.282  21.336  67.251  1.00  0.00     0.160 HD
BRANCH  43  45
HETATM   45  C27 UNL     1      44.874  22.909  67.247  1.00  0.00     0.140 C 
BRANCH  45  46
HETATM   46  C28 UNL     1      45.454  24.040  66.391  1.00  0.00     0.141 C 
BRANCH  46  47
HETATM   47  N9  UNL     1      46.432  24.707  67.232  1.00  0.00    -0.365 N 
HETATM   48  C29 UNL     1      47.698  24.466  67.114  1.00  0.00     0.197 C 
HETATM   49  N10 UNL     1      48.701  25.075  67.894  1.00  0.00    -0.067 NA
HETATM   50  N11 UNL     1      48.096  23.508  66.123  1.00  0.00    -0.067 NA
ATOM     51  H9  UNL     1      46.114  25.380  67.929  1.00  0.00     0.161 HD
ENDBRANCH  46  47
ENDBRANCH  45  46
ENDBRANCH  43  45
ENDBRANCH  39  43
ENDBRANCH  38  39
ENDBRANCH  37  38
ENDBRANCH  29  32
ENDBRANCH  27  28
ENDBRANCH   1  27
TORSDOF 20
ENDMDL
MODEL 2
REMARK VINA RESULT: -8.111052229      3.245     10.897
REMARK  20 active torsions:
REMARK  status: ('A' for Active; 'I' for Inactive)
REMARK    1  A    between atoms: N1_2  and  C3_4 
REMARK    2  A    between atoms: N1_2  and  C16_26 
REMARK    3  A    between atoms: C3_4  and  C4_5 
REMARK    4  A    between atoms: C4_5  and  C5_6 
REMARK    5  A    between atoms: C5_6  and  N2_7 
REMARK       I    between atoms: N2_7  and  C6_9 
REMARK    6  A    between atoms: C6_9  and  C7_11 
REMARK    7  A    between atoms: C7_11  and  C8_12 
REMARK    8  A    between atoms: C8_12  and  O2_13 
REMARK    9  A    between atoms: O2_13  and  C9_14 
REMARK   10  A    between atoms: C9_14  and  C10_15 
REMARK   11  A    between atoms: C10_15  and  N3_16 
REMARK   12  A    between atoms: C16_26  and  C17_27 
REMARK   13  A    between atoms: C17_27  and  N6_28 
REMARK       I    between atoms: N6_28  and  C18_30 
REMARK   14  A    between atoms: C18_30  and  C19_32 
REMARK   15  A    between atoms: C24_37  and  C25_38 
REMARK   16  A    between atoms: C25_38  and  C26_39 
REMARK   17  A    between atoms: C26_39  and  N8_43 
REMARK   18  A    between atoms: N8_43  and  C27_45 
REMARK   19  A    between atoms: C27_45  and  C28_46 
REMARK   20  A    between atoms: C28_46  and  N9_47 
ROOT
HETATM    1  C16 UNL     1      45.483  22.735  66.560  1.00  0.00     0.256 C 
ENDROOT
BRANCH   1   2
HETATM    2  N1  UNL     1      45.917  24.071  67.023  1.00  0.00    -0.073 N 
HETATM    3  C1  UNL     1      44.977  25.022  66.465  1.00  0.00     0.272 C 
HETATM    4  C2  UNL     1      45.759  24.055  68.462  1.00  0.00     0.272 C 
BRANCH   2   5
HETATM    5  C3  UNL     1      47.263  24.224  66.636  1.00  0.00     0.238 C 
BRANCH   5   6
HETATM    6  C4  UNL     1      47.624  25.286  65.652  1.00  0.00     0.047 C 
BRANCH   6   7
HETATM    7  C5  UNL     1      48.966  25.865  65.965  1.00  0.00     0.124 C 
BRANCH   7   8
HETATM    8  N2  UNL     1      49.756  25.946  64.753  1.00  0.00    -0.361 N 
HETATM    9  C6  UNL     1      49.574  26.969  63.825  1.00  0.00     0.219 C 
HETATM   10  O1  UNL     1      48.761  27.918  63.878  1.00  0.00    -0.274 OA
ATOM     11  H2  UNL     1      50.464  25.235  64.574  1.00  0.00     0.162 HD
BRANCH   9  12
HETATM   12  C7  UNL     1      50.455  26.947  62.598  1.00  0.00     0.129 C 
BRANCH  12  13
HETATM   13  C8  UNL     1      50.030  25.869  61.653  1.00  0.00     0.176 C 
BRANCH  13  14
HETATM   14  O2  UNL     1      49.069  25.062  62.021  1.00  0.00    -0.389 OA
BRANCH  14  15
HETATM   15  C9  UNL     1      48.227  24.319  61.340  1.00  0.00     0.197 C 
BRANCH  15  16
HETATM   16  C10 UNL     1      48.416  22.845  61.334  1.00  0.00     0.287 C 
BRANCH  16  17
HETATM   17  N3  UNL     1      47.172  22.173  61.810  1.00  0.00     0.021 N 
HETATM   18  C11 UNL     1      46.161  22.311  60.828  1.00  0.00     0.288 C 
HETATM   19  C12 UNL     1      45.042  21.305  60.930  1.00  0.00     0.262 C 
HETATM   20  N4  UNL     1      45.434  20.020  61.393  1.00  0.00    -0.071 N 
HETATM   21  C13 UNL     1      46.852  19.799  61.347  1.00  0.00     0.268 C 
ATOM     22  H42 UNL     1      45.073  19.850  62.331  1.00  0.00     0.277 HD
ATOM     23  H41 UNL     1      44.939  19.288  60.884  1.00  0.00     0.277 HD
HETATM   24  C14 UNL     1      47.493  20.857  62.241  1.00  0.00     0.253 C 
HETATM   25  C15 UNL     1      46.687  21.140  63.495  1.00  0.00     0.179 C 
HETATM   26  N5  UNL     1      46.843  22.542  63.111  1.00  0.00    -0.044 NA
ENDBRANCH  16  17
ENDBRANCH  15  16
ENDBRANCH  14  15
ENDBRANCH  13  14
ENDBRANCH  12  13
ENDBRANCH   9  12
ENDBRANCH   7   8
ENDBRANCH   6   7
ENDBRANCH   5   6
ENDBRANCH   2   5
ENDBRANCH   1   2
BRANCH   1  27
HETATM   27  C17 UNL     1      44.176  22.778  65.851  1.00  0.00     0.151 C 
BRANCH  27  28
HETATM   28  N6  UNL     1      43.212  21.904  66.535  1.00  0.00    -0.355 N 
HETATM   29  C18 UNL     1      42.060  21.402  65.910  1.00  0.00     0.252 C 
HETATM   30  O3  UNL     1      41.778  21.667  64.726  1.00  0.00    -0.268 OA
ATOM     31  H6  UNL     1      43.387  21.651  67.508  1.00  0.00     0.162 HD
BRANCH  29  32
HETATM   32  C19 UNL     1      41.151  20.523  66.659  1.00  0.00     0.038 A 
HETATM   33  C20 UNL     1      39.964  21.112  67.117  1.00  0.00     0.017 A 
HETATM   34  C21 UNL     1      39.030  20.362  67.749  1.00  0.00     0.001 A 
HETATM   35  C22 UNL     1      39.247  19.024  67.942  1.00  0.00     0.001 A 
HETATM   36  C23 UNL     1      40.402  18.443  67.499  1.00  0.00     0.008 A 
HETATM   37  C24 UNL     1      41.388  19.190  66.844  1.00  0.00    -0.035 A 
BRANCH  37  38
HETATM   38  C25 UNL     1      42.648  18.526  66.405  1.00  0.00     0.115 C 
BRANCH  38  39
HETATM   39  C26 UNL     1      42.695  18.173  64.977  1.00  0.00     0.074 C 
HETATM   40  N7  UNL     1      43.757  18.569  64.297  1.00  0.00    -0.389 N 
ATOM     41  H72 UNL     1      44.453  19.082  64.838  1.00  0.00     0.157 HD
ATOM     42  H71 UNL     1      43.789  18.324  63.307  1.00  0.00     0.157 HD
BRANCH  39  43
HETATM   43  N8  UNL     1      41.746  17.474  64.239  1.00  0.00    -0.378 N 
ATOM     44  H8  UNL     1      41.535  16.513  64.509  1.00  0.00     0.160 HD
BRANCH  43  45
HETATM   45  C27 UNL     1      41.052  18.031  63.124  1.00  0.00     0.140 C 
BRANCH  45  46
HETATM   46  C28 UNL     1      39.595  17.559  63.077  1.00  0.00     0.141 C 
BRANCH  46  47
HETATM   47  N9  UNL     1      39.621  16.266  62.418  1.00  0.00    -0.365 N 
HETATM   48  C29 UNL     1      39.352  15.175  63.063  1.00  0.00     0.197 C 
HETATM   49  N10 UNL     1      39.358  13.890  62.490  1.00  0.00    -0.067 NA
HETATM   50  N11 UNL     1      39.035  15.297  64.457  1.00  0.00    -0.067 NA
ATOM     51  H9  UNL     1      39.855  16.215  61.427  1.00  0.00     0.161 HD
ENDBRANCH  46  47
ENDBRANCH  45  46
ENDBRANCH  43  45
ENDBRANCH  39  43
ENDBRANCH  38  39
ENDBRANCH  37  38
ENDBRANCH  29  32
ENDBRANCH  27  28
ENDBRANCH   1  27
TORSDOF 20
ENDMDL
MODEL 3
REMARK VINA RESULT: -8.062437450      2.631      9.718
REMARK  20 active torsions:
REMARK  status: ('A' for Active; 'I' for Inactive)
REMARK    1  A    between atoms: N1_2  and  C3_4 
REMARK    2  A    between atoms: N1_2  and  C16_26 
REMARK    3  A    between atoms: C3_4  and  C4_5 
REMARK    4  A    between atoms: C4_5  and  C5_6 
REMARK    5  A    between atoms: C5_6  and  N2_7 
REMARK       I    between atoms: N2_7  and  C6_9 
REMARK    6  A    between atoms: C6_9  and  C7_11 
REMARK    7  A    between atoms: C7_11  and  C8_12 
REMARK    8  A    between atoms: C8_12  and  O2_13 
REMARK    9  A    between atoms: O2_13  and  C9_14 
REMARK   10  A    between atoms: C9_14  and  C10_15 
REMARK   11  A    between atoms: C10_15  and  N3_16 
REMARK   12  A    between atoms: C16_26  and  C17_27 
REMARK   13  A    between atoms: C17_27  and  N6_28 
REMARK       I    between atoms: N6_28  and  C18_30 
REMARK   14  A    between atoms: C18_30  and  C19_32 
REMARK   15  A    between atoms: C24_37  and  C25_38 
REMARK   16  A    between atoms: C25_38  and  C26_39 
REMARK   17  A    between atoms: C26_39  and  N8_43 
REMARK   18  A    between atoms: N8_43  and  C27_45 
REMARK   19  A    between atoms: C27_45  and  C28_46 
REMARK   20  A    between atoms: C28_46  and  N9_47 
ROOT
HETATM    1  C16 UNL     1      42.967  19.484  64.479  1.00  0.00     0.256 C 
ENDROOT
BRANCH   1   2
HETATM    2  N1  UNL     1      44.298  20.027  64.821  1.00  0.00    -0.073 N 
HETATM    3  C1  UNL     1      44.063  21.232  65.592  1.00  0.00     0.272 C 
HETATM    4  C2  UNL     1      44.913  19.040  65.684  1.00  0.00     0.272 C 
BRANCH   2   5
HETATM    5  C3  UNL     1      45.001  20.190  63.612  1.00  0.00     0.238 C 
BRANCH   5   6
HETATM    6  C4  UNL     1      45.329  21.564  63.135  1.00  0.00     0.047 C 
BRANCH   6   7
HETATM    7  C5  UNL     1      46.804  21.799  63.164  1.00  0.00     0.124 C 
BRANCH   7   8
HETATM    8  N2  UNL     1      47.105  23.081  62.559  1.00  0.00    -0.361 N 
HETATM    9  C6  UNL     1      48.157  23.239  61.660  1.00  0.00     0.219 C 
HETATM   10  O1  UNL     1      48.958  22.368  61.253  1.00  0.00    -0.274 OA
ATOM     11  H2  UNL     1      46.531  23.889  62.798  1.00  0.00     0.162 HD
BRANCH   9  12
HETATM   12  C7  UNL     1      48.376  24.624  61.096  1.00  0.00     0.129 C 
BRANCH  12  13
HETATM   13  C8  UNL     1      49.002  25.523  62.114  1.00  0.00     0.176 C 
BRANCH  13  14
HETATM   14  O2  UNL     1      48.887  25.209  63.377  1.00  0.00    -0.389 OA
BRANCH  14  15
HETATM   15  C9  UNL     1      49.236  25.832  64.480  1.00  0.00     0.197 C 
BRANCH  15  16
HETATM   16  C10 UNL     1      48.170  26.306  65.401  1.00  0.00     0.287 C 
BRANCH  16  17
HETATM   17  N3  UNL     1      47.867  25.252  66.412  1.00  0.00     0.021 N 
HETATM   18  C11 UNL     1      47.870  25.830  67.705  1.00  0.00     0.288 C 
HETATM   19  C12 UNL     1      47.124  25.040  68.750  1.00  0.00     0.262 C 
HETATM   20  N4  UNL     1      45.984  24.341  68.270  1.00  0.00    -0.071 N 
HETATM   21  C13 UNL     1      45.541  24.779  66.977  1.00  0.00     0.268 C 
ATOM     22  H42 UNL     1      46.152  23.335  68.271  1.00  0.00     0.277 HD
ATOM     23  H41 UNL     1      45.222  24.387  68.947  1.00  0.00     0.277 HD
HETATM   24  C14 UNL     1      46.699  24.547  66.011  1.00  0.00     0.253 C 
HETATM   25  C15 UNL     1      47.457  23.263  66.292  1.00  0.00     0.179 C 
HETATM   26  N5  UNL     1      48.644  24.113  66.229  1.00  0.00    -0.044 NA
ENDBRANCH  16  17
ENDBRANCH  15  16
ENDBRANCH  14  15
ENDBRANCH  13  14
ENDBRANCH  12  13
ENDBRANCH   9  12
ENDBRANCH   7   8
ENDBRANCH   6   7
ENDBRANCH   5   6
ENDBRANCH   2   5
ENDBRANCH   1   2
BRANCH   1  27
HETATM   27  C17 UNL     1      42.596  18.317  65.324  1.00  0.00     0.151 C 
BRANCH  27  28
HETATM   28  N6  UNL     1      41.838  17.345  64.523  1.00  0.00    -0.355 N 
HETATM   29  C18 UNL     1      40.473  17.494  64.234  1.00  0.00     0.252 C 
HETATM   30  O3  UNL     1      39.810  18.467  64.641  1.00  0.00    -0.268 OA
ATOM     31  H6  UNL     1      42.326  16.525  64.161  1.00  0.00     0.162 HD
BRANCH  29  32
HETATM   32  C19 UNL     1      39.789  16.483  63.416  1.00  0.00     0.038 A 
HETATM   33  C20 UNL     1      40.084  16.499  62.044  1.00  0.00     0.017 A 
HETATM   34  C21 UNL     1      39.562  15.557  61.224  1.00  0.00     0.001 A 
HETATM   35  C22 UNL     1      38.742  14.587  61.735  1.00  0.00     0.001 A 
HETATM   36  C23 UNL     1      38.448  14.566  63.069  1.00  0.00     0.008 A 
HETATM   37  C24 UNL     1      38.970  15.525  63.945  1.00  0.00    -0.035 A 
BRANCH  37  38
HETATM   38  C25 UNL     1      38.601  15.487  65.388  1.00  0.00     0.115 C 
BRANCH  38  39
HETATM   39  C26 UNL     1      37.329  16.150  65.717  1.00  0.00     0.074 C 
HETATM   40  N7  UNL     1      36.231  15.418  65.628  1.00  0.00    -0.389 N 
ATOM     41  H72 UNL     1      36.377  14.450  65.343  1.00  0.00     0.157 HD
ATOM     42  H71 UNL     1      35.350  15.878  65.856  1.00  0.00     0.157 HD
BRANCH  39  43
HETATM   43  N8  UNL     1      37.130  17.470  66.105  1.00  0.00    -0.378 N 
ATOM     44  H8  UNL     1      36.773  18.129  65.413  1.00  0.00     0.160 HD
BRANCH  43  45
HETATM   45  C27 UNL     1      37.401  17.952  67.421  1.00  0.00     0.140 C 
BRANCH  45  46
HETATM   46  C28 UNL     1      37.410  19.484  67.467  1.00  0.00     0.141 C 
BRANCH  46  47
HETATM   47  N9  UNL     1      38.623  19.891  66.782  1.00  0.00    -0.365 N 
HETATM   48  C29 UNL     1      39.420  20.775  67.292  1.00  0.00     0.197 C 
HETATM   49  N10 UNL     1      40.611  21.217  66.686  1.00  0.00    -0.067 NA
HETATM   50  N11 UNL     1      39.052  21.339  68.559  1.00  0.00    -0.067 NA
ATOM     51  H9  UNL     1      38.852  19.472  65.881  1.00  0.00     0.161 HD
ENDBRANCH  46  47
ENDBRANCH  45  46
ENDBRANCH  43  45
ENDBRANCH  39  43
ENDBRANCH  38  39
ENDBRANCH  37  38
ENDBRANCH  29  32
ENDBRANCH  27  28
ENDBRANCH   1  27
TORSDOF 20
ENDMDL
MODEL 4
REMARK VINA RESULT: -8.035994048      2.680      9.638
REMARK  20 active torsions:
REMARK  status: ('A' for Active; 'I' for Inactive)
REMARK    1  A    between atoms: N1_2  and  C3_4 
REMARK    2  A    between atoms: N1_2  and  C16_26 
REMARK    3  A    between atoms: C3_4  and  C4_5 
REMARK    4  A    between atoms: C4_5  and  C5_6 
REMARK    5  A    between atoms: C5_6  and  N2_7 
REMARK       I    between atoms: N2_7  and  C6_9 
REMARK    6  A    between atoms: C6_9  and  C7_11 
REMARK    7  A    between atoms: C7_11  and  C8_12 
REMARK    8  A    between atoms: C8_12  and  O2_13 
REMARK    9  A    between atoms: O2_13  and  C9_14 
REMARK   10  A    between atoms: C9_14  and  C10_15 
REMARK   11  A    between atoms: C10_15  and  N3_16 
REMARK   12  A    between atoms: C16_26  and  C17_27 
REMARK   13  A    between atoms: C17_27  and  N6_28 
REMARK       I    between atoms: N6_28  and  C18_30 
REMARK   14  A    between atoms: C18_30  and  C19_32 
REMARK   15  A    between atoms: C24_37  and  C25_38 
REMARK   16  A    between atoms: C25_38  and  C26_39 
REMARK   17  A    between atoms: C26_39  and  N8_43 
REMARK   18  A    between atoms: N8_43  and  C27_45 
REMARK   19  A    between atoms: C27_45  and  C28_46 
REMARK   20  A    between atoms: C28_46  and  N9_47 
ROOT
HETATM    1  C16 UNL     1      42.773  19.437  65.856  1.00  0.00     0.256 C 
ENDROOT
BRANCH   1   2
HETATM    2  N1  UNL     1      42.276  20.828  65.913  1.00  0.00    -0.073 N 
HETATM    3  C1  UNL     1      41.845  21.164  64.571  1.00  0.00     0.272 C 
HETATM    4  C2  UNL     1      41.113  20.792  66.775  1.00  0.00     0.272 C 
BRANCH   2   5
HETATM    5  C3  UNL     1      43.313  21.615  66.450  1.00  0.00     0.238 C 
BRANCH   5   6
HETATM    6  C4  UNL     1      43.748  22.845  65.727  1.00  0.00     0.047 C 
BRANCH   6   7
HETATM    7  C5  UNL     1      44.817  23.559  66.488  1.00  0.00     0.124 C 
BRANCH   7   8
HETATM    8  N2  UNL     1      46.054  23.529  65.734  1.00  0.00    -0.361 N 
HETATM    9  C6  UNL     1      47.282  23.808  66.328  1.00  0.00     0.219 C 
HETATM   10  O1  UNL     1      47.508  24.108  67.522  1.00  0.00    -0.274 OA
ATOM     11  H2  UNL     1      46.025  23.297  64.742  1.00  0.00     0.162 HD
BRANCH   9  12
HETATM   12  C7  UNL     1      48.504  23.748  65.441  1.00  0.00     0.129 C 
BRANCH  12  13
HETATM   13  C8  UNL     1      48.266  22.857  64.263  1.00  0.00     0.176 C 
BRANCH  13  14
HETATM   14  O2  UNL     1      47.982  23.409  63.113  1.00  0.00    -0.389 OA
BRANCH  14  15
HETATM   15  C9  UNL     1      47.671  22.904  61.941  1.00  0.00     0.197 C 
BRANCH  15  16
HETATM   16  C10 UNL     1      46.236  22.737  61.592  1.00  0.00     0.287 C 
BRANCH  16  17
HETATM   17  N3  UNL     1      45.859  21.295  61.669  1.00  0.00     0.021 N 
HETATM   18  C11 UNL     1      47.017  20.500  61.486  1.00  0.00     0.288 C 
HETATM   19  C12 UNL     1      46.902  19.090  62.008  1.00  0.00     0.262 C 
HETATM   20  N4  UNL     1      46.100  18.947  63.172  1.00  0.00    -0.071 N 
HETATM   21  C13 UNL     1      45.832  20.188  63.843  1.00  0.00     0.268 C 
ATOM     22  H42 UNL     1      45.231  18.461  62.953  1.00  0.00     0.277 HD
ATOM     23  H41 UNL     1      46.515  18.273  63.815  1.00  0.00     0.277 HD
HETATM   24  C14 UNL     1      45.094  21.079  62.847  1.00  0.00     0.253 C 
HETATM   25  C15 UNL     1      44.106  20.313  61.987  1.00  0.00     0.179 C 
HETATM   26  N5  UNL     1      44.758  20.998  60.873  1.00  0.00    -0.044 NA
ENDBRANCH  16  17
ENDBRANCH  15  16
ENDBRANCH  14  15
ENDBRANCH  13  14
ENDBRANCH  12  13
ENDBRANCH   9  12
ENDBRANCH   7   8
ENDBRANCH   6   7
ENDBRANCH   5   6
ENDBRANCH   2   5
ENDBRANCH   1   2
BRANCH   1  27
HETATM   27  C17 UNL     1      41.808  18.466  66.438  1.00  0.00     0.151 C 
BRANCH  27  28
HETATM   28  N6  UNL     1      41.467  17.445  65.436  1.00  0.00    -0.355 N 
HETATM   29  C18 UNL     1      40.337  17.536  64.610  1.00  0.00     0.252 C 
HETATM   30  O3  UNL     1      39.544  18.494  64.672  1.00  0.00    -0.268 OA
ATOM     31  H6  UNL     1      42.078  16.634  65.338  1.00  0.00     0.162 HD
BRANCH  29  32
HETATM   32  C19 UNL     1      40.071  16.479  63.624  1.00  0.00     0.038 A 
HETATM   33  C20 UNL     1      40.864  16.502  62.467  1.00  0.00     0.017 A 
HETATM   34  C21 UNL     1      40.744  15.524  61.539  1.00  0.00     0.001 A 
HETATM   35  C22 UNL     1      39.845  14.509  61.730  1.00  0.00     0.001 A 
HETATM   36  C23 UNL     1      39.068  14.480  62.854  1.00  0.00     0.008 A 
HETATM   37  C24 UNL     1      39.165  15.476  63.832  1.00  0.00    -0.035 A 
BRANCH  37  38
HETATM   38  C25 UNL     1      38.277  15.426  65.028  1.00  0.00     0.115 C 
BRANCH  38  39
HETATM   39  C26 UNL     1      36.847  15.626  64.744  1.00  0.00     0.074 C 
HETATM   40  N7  UNL     1      36.543  16.286  63.639  1.00  0.00    -0.389 N 
ATOM     41  H72 UNL     1      37.340  16.590  63.081  1.00  0.00     0.157 HD
ATOM     42  H71 UNL     1      35.551  16.425  63.443  1.00  0.00     0.157 HD
BRANCH  39  43
HETATM   43  N8  UNL     1      35.760  15.213  65.505  1.00  0.00    -0.378 N 
ATOM     44  H8  UNL     1      35.603  14.211  65.620  1.00  0.00     0.160 HD
BRANCH  43  45
HETATM   45  C27 UNL     1      34.852  16.116  66.134  1.00  0.00     0.140 C 
BRANCH  45  46
HETATM   46  C28 UNL     1      35.593  17.169  66.965  1.00  0.00     0.141 C 
BRANCH  46  47
HETATM   47  N9  UNL     1      36.180  16.448  68.080  1.00  0.00    -0.365 N 
HETATM   48  C29 UNL     1      37.381  16.704  68.491  1.00  0.00     0.197 C 
HETATM   49  N10 UNL     1      38.013  16.047  69.563  1.00  0.00    -0.067 NA
HETATM   50  N11 UNL     1      38.110  17.725  67.795  1.00  0.00    -0.067 NA
ATOM     51  H9  UNL     1      35.635  15.725  68.550  1.00  0.00     0.161 HD
ENDBRANCH  46  47
ENDBRANCH  45  46
ENDBRANCH  43  45
ENDBRANCH  39  43
ENDBRANCH  38  39
ENDBRANCH  37  38
ENDBRANCH  29  32
ENDBRANCH  27  28
ENDBRANCH   1  27
TORSDOF 20
ENDMDL
MODEL 5
REMARK VINA RESULT: -7.971712582      1.603      3.903
REMARK  20 active torsions:
REMARK  status: ('A' for Active; 'I' for Inactive)
REMARK    1  A    between atoms: N1_2  and  C3_4 
REMARK    2  A    between atoms: N1_2  and  C16_26 
REMARK    3  A    between atoms: C3_4  and  C4_5 
REMARK    4  A    between atoms: C4_5  and  C5_6 
REMARK    5  A    between atoms: C5_6  and  N2_7 
REMARK       I    between atoms: N2_7  and  C6_9 
REMARK    6  A    between atoms: C6_9  and  C7_11 
REMARK    7  A    between atoms: C7_11  and  C8_12 
REMARK    8  A    between atoms: C8_12  and  O2_13 
REMARK    9  A    between atoms: O2_13  and  C9_14 
REMARK   10  A    between atoms: C9_14  and  C10_15 
REMARK   11  A    between atoms: C10_15  and  N3_16 
REMARK   12  A    between atoms: C16_26  and  C17_27 
REMARK   13  A    between atoms: C17_27  and  N6_28 
REMARK       I    between atoms: N6_28  and  C18_30 
REMARK   14  A    between atoms: C18_30  and  C19_32 
REMARK   15  A    between atoms: C24_37  and  C25_38 
REMARK   16  A    between atoms: C25_38  and  C26_39 
REMARK   17  A    between atoms: C26_39  and  N8_43 
REMARK   18  A    between atoms: N8_43  and  C27_45 
REMARK   19  A    between atoms: C27_45  and  C28_46 
REMARK   20  A    between atoms: C28_46  and  N9_47 
ROOT
HETATM    1  C16 UNL     1      41.498  19.066  65.475  1.00  0.00     0.256 C 
ENDROOT
BRANCH   1   2
HETATM    2  N1  UNL     1      40.524  19.494  66.502  1.00  0.00    -0.073 N 
HETATM    3  C1  UNL     1      40.807  20.888  66.779  1.00  0.00     0.272 C 
HETATM    4  C2  UNL     1      39.225  19.404  65.869  1.00  0.00     0.272 C 
BRANCH   2   5
HETATM    5  C3  UNL     1      40.651  18.604  67.587  1.00  0.00     0.238 C 
BRANCH   5   6
HETATM    6  C4  UNL     1      39.566  18.536  68.608  1.00  0.00     0.047 C 
BRANCH   6   7
HETATM    7  C5  UNL     1      39.081  17.133  68.775  1.00  0.00     0.124 C 
BRANCH   7   8
HETATM    8  N2  UNL     1      37.919  16.917  67.937  1.00  0.00    -0.361 N 
HETATM    9  C6  UNL     1      36.689  16.538  68.471  1.00  0.00     0.219 C 
HETATM   10  O1  UNL     1      36.402  16.338  69.672  1.00  0.00    -0.274 OA
ATOM     11  H2  UNL     1      38.003  17.044  66.929  1.00  0.00     0.162 HD
BRANCH   9  12
HETATM   12  C7  UNL     1      35.550  16.340  67.498  1.00  0.00     0.129 C 
BRANCH  12  13
HETATM   13  C8  UNL     1      35.823  17.040  66.205  1.00  0.00     0.176 C 
BRANCH  13  14
HETATM   14  O2  UNL     1      35.515  16.430  65.090  1.00  0.00    -0.389 OA
BRANCH  14  15
HETATM   15  C9  UNL     1      35.988  15.349  64.512  1.00  0.00     0.197 C 
BRANCH  15  16
HETATM   16  C10 UNL     1      36.636  15.476  63.180  1.00  0.00     0.287 C 
BRANCH  16  17
HETATM   17  N3  UNL     1      38.113  15.315  63.318  1.00  0.00     0.021 N 
HETATM   18  C11 UNL     1      38.593  14.502  62.263  1.00  0.00     0.288 C 
HETATM   19  C12 UNL     1      40.068  14.643  61.980  1.00  0.00     0.262 C 
HETATM   20  N4  UNL     1      40.595  15.946  62.190  1.00  0.00    -0.071 N 
HETATM   21  C13 UNL     1      39.588  16.965  62.290  1.00  0.00     0.268 C 
ATOM     22  H42 UNL     1      41.205  15.960  63.007  1.00  0.00     0.277 HD
ATOM     23  H41 UNL     1      41.273  16.180  61.466  1.00  0.00     0.277 HD
HETATM   24  C14 UNL     1      38.705  16.597  63.480  1.00  0.00     0.253 C 
HETATM   25  C15 UNL     1      39.488  16.017  64.643  1.00  0.00     0.179 C 
HETATM   26  N5  UNL     1      38.482  14.957  64.610  1.00  0.00    -0.044 NA
ENDBRANCH  16  17
ENDBRANCH  15  16
ENDBRANCH  14  15
ENDBRANCH  13  14
ENDBRANCH  12  13
ENDBRANCH   9  12
ENDBRANCH   7   8
ENDBRANCH   6   7
ENDBRANCH   5   6
ENDBRANCH   2   5
ENDBRANCH   1   2
BRANCH   1  27
HETATM   27  C17 UNL     1      41.258  19.719  64.160  1.00  0.00     0.151 C 
BRANCH  27  28
HETATM   28  N6  UNL     1      42.532  20.201  63.606  1.00  0.00    -0.355 N 
HETATM   29  C18 UNL     1      43.367  19.403  62.808  1.00  0.00     0.252 C 
HETATM   30  O3  UNL     1      43.080  18.227  62.516  1.00  0.00    -0.268 OA
ATOM     31  H6  UNL     1      42.822  21.157  63.810  1.00  0.00     0.162 HD
BRANCH  29  32
HETATM   32  C19 UNL     1      44.619  19.963  62.282  1.00  0.00     0.038 A 
HETATM   33  C20 UNL     1      44.499  20.785  61.151  1.00  0.00     0.017 A 
HETATM   34  C21 UNL     1      45.589  21.407  60.642  1.00  0.00     0.001 A 
HETATM   35  C22 UNL     1      46.812  21.232  61.233  1.00  0.00     0.001 A 
HETATM   36  C23 UNL     1      46.937  20.433  62.333  1.00  0.00     0.008 A 
HETATM   37  C24 UNL     1      45.832  19.774  62.884  1.00  0.00    -0.035 A 
BRANCH  37  38
HETATM   38  C25 UNL     1      46.015  18.884  64.066  1.00  0.00     0.115 C 
BRANCH  38  39
HETATM   39  C26 UNL     1      45.521  19.437  65.338  1.00  0.00     0.074 C 
HETATM   40  N7  UNL     1      44.849  18.616  66.126  1.00  0.00    -0.389 N 
ATOM     41  H72 UNL     1      44.743  17.665  65.775  1.00  0.00     0.157 HD
ATOM     42  H71 UNL     1      44.506  19.000  67.007  1.00  0.00     0.157 HD
BRANCH  39  43
HETATM   43  N8  UNL     1      45.664  20.734  65.817  1.00  0.00    -0.378 N 
ATOM     44  H8  UNL     1      46.607  21.108  65.924  1.00  0.00     0.160 HD
BRANCH  43  45
HETATM   45  C27 UNL     1      44.561  21.569  66.166  1.00  0.00     0.140 C 
BRANCH  45  46
HETATM   46  C28 UNL     1      44.897  23.052  65.974  1.00  0.00     0.141 C 
BRANCH  46  47
HETATM   47  N9  UNL     1      46.339  23.150  66.105  1.00  0.00    -0.365 N 
HETATM   48  C29 UNL     1      46.888  24.046  66.861  1.00  0.00     0.197 C 
HETATM   49  N10 UNL     1      48.277  24.199  67.036  1.00  0.00    -0.067 NA
HETATM   50  N11 UNL     1      46.012  24.943  67.559  1.00  0.00    -0.067 NA
ATOM     51  H9  UNL     1      46.933  22.498  65.591  1.00  0.00     0.161 HD
ENDBRANCH  46  47
ENDBRANCH  45  46
ENDBRANCH  43  45
ENDBRANCH  39  43
ENDBRANCH  38  39
ENDBRANCH  37  38
ENDBRANCH  29  32
ENDBRANCH  27  28
ENDBRANCH   1  27
TORSDOF 20
ENDMDL
