MODEL 1
REMARK VINA RESULT: -8.624487602      0.000      0.000
REMARK  21 active torsions:
REMARK  status: ('A' for Active; 'I' for Inactive)
REMARK    1  A    between atoms: C2_2  and  C3_3 
REMARK    2  A    between atoms: C3_3  and  N1_4 
REMARK       I    between atoms: C4_6  and  N2_7 
REMARK       I    between atoms: C4_6  and  N6_29 
REMARK    3  A    between atoms: N2_7  and  C5_9 
REMARK    4  A    between atoms: C5_9  and  C6_10 
REMARK    5  A    between atoms: C6_10  and  C7_11 
REMARK    6  A    between atoms: C7_11  and  N3_12 
REMARK       I    between atoms: N3_12  and  C8_14 
REMARK    7  A    between atoms: C8_14  and  C9_16 
REMARK    8  A    between atoms: C9_16  and  C10_17 
REMARK    9  A    between atoms: C10_17  and  C11_18 
REMARK   10  A    between atoms: C11_18  and  C12_19 
REMARK   11  A    between atoms: C12_19  and  C13_20 
REMARK   12  A    between atoms: C13_20  and  N4_21 
REMARK   13  A    between atoms: N4_21  and  S1_23 
REMARK   14  A    between atoms: S1_23  and  N5_24 
REMARK   15  A    between atoms: N6_29  and  N7_31 
REMARK   16  A    between atoms: C14_33  and  C15_35 
REMARK   17  A    between atoms: C17_39  and  C18_40 
REMARK   18  A    between atoms: C18_40  and  C19_41 
REMARK       I    between atoms: C19_41  and  N10_43 
REMARK   19  A    between atoms: N10_43  and  C20_44 
REMARK   20  A    between atoms: C20_44  and  C21_45 
REMARK   21  A    between atoms: C21_45  and  N11_46 
ROOT
HETATM    1  N1  UNL     1      45.877  20.906  65.118  1.00  0.00    -0.222 N 
ATOM      2  H1  UNL     1      46.533  21.638  64.845  1.00  0.00     0.178 HD
HETATM    3  C4  UNL     1      45.659  19.938  64.326  1.00  0.00     0.688 C 
HETATM    4  N2  UNL     1      46.319  19.909  63.089  1.00  0.00    -0.225 N 
ATOM      5  H2  UNL     1      46.020  19.200  62.419  1.00  0.00     0.177 HD
HETATM    6  N6  UNL     1      44.815  18.855  64.712  1.00  0.00    -0.131 N 
ATOM      7  H6  UNL     1      45.165  18.215  65.426  1.00  0.00     0.205 HD
ENDROOT
BRANCH   1   8
HETATM    8  C3  UNL     1      45.203  20.990  66.424  1.00  0.00     0.164 C 
BRANCH   8   9
HETATM    9  C2  UNL     1      44.147  22.011  66.285  1.00  0.00    -0.017 C 
HETATM   10  C1  UNL     1      44.239  23.186  65.723  1.00  0.00     0.008 C 
ENDBRANCH   8   9
ENDBRANCH   1   8
BRANCH   4  11
HETATM   11  C5  UNL     1      47.381  20.793  62.682  1.00  0.00     0.139 C 
BRANCH  11  12
HETATM   12  C6  UNL     1      47.073  21.363  61.301  1.00  0.00     0.040 C 
BRANCH  12  13
HETATM   13  C7  UNL     1      46.404  22.710  61.498  1.00  0.00     0.124 C 
BRANCH  13  14
HETATM   14  N3  UNL     1      47.463  23.637  61.912  1.00  0.00    -0.361 N 
HETATM   15  C8  UNL     1      48.175  24.373  61.009  1.00  0.00     0.217 C 
HETATM   16  O1  UNL     1      47.992  24.288  59.769  1.00  0.00    -0.274 OA
ATOM     17  H3  UNL     1      47.673  23.736  62.905  1.00  0.00     0.162 HD
BRANCH  15  18
HETATM   18  C9  UNL     1      49.223  25.353  61.421  1.00  0.00     0.103 C 
BRANCH  18  19
HETATM   19  C10 UNL     1      48.999  25.836  62.804  1.00  0.00     0.009 C 
BRANCH  19  20
HETATM   20  C11 UNL     1      50.013  26.717  63.418  1.00  0.00     0.002 C 
BRANCH  20  21
HETATM   21  C12 UNL     1      49.665  27.765  64.377  1.00  0.00     0.020 C 
BRANCH  21  22
HETATM   22  C13 UNL     1      49.072  27.405  65.686  1.00  0.00     0.133 C 
BRANCH  22  23
HETATM   23  N4  UNL     1      49.739  26.260  66.295  1.00  0.00    -0.303 N 
ATOM     24  H4  UNL     1      50.724  26.219  66.558  1.00  0.00     0.173 HD
BRANCH  23  25
HETATM   25  S1  UNL     1      48.596  24.994  66.499  1.00  0.00     0.312 S 
HETATM   26  O2  UNL     1      49.049  23.729  65.793  1.00  0.00    -0.183 OA
HETATM   27  O3  UNL     1      48.388  24.610  67.938  1.00  0.00    -0.183 OA
BRANCH  25  28
HETATM   28  N5  UNL     1      47.026  25.455  65.902  1.00  0.00    -0.312 N 
ATOM     29  H52 UNL     1      46.802  25.537  64.910  1.00  0.00     0.170 HD
ATOM     30  H51 UNL     1      46.374  25.628  66.668  1.00  0.00     0.170 HD
ENDBRANCH  25  28
ENDBRANCH  23  25
ENDBRANCH  22  23
ENDBRANCH  21  22
ENDBRANCH  20  21
ENDBRANCH  19  20
ENDBRANCH  18  19
ENDBRANCH  15  18
ENDBRANCH  13  14
ENDBRANCH  12  13
ENDBRANCH  11  12
ENDBRANCH   4  11
BRANCH   6  31
HETATM   31  N7  UNL     1      43.605  18.616  64.212  1.00  0.00    -0.273 N 
HETATM   32  C14 UNL     1      42.626  19.118  63.724  1.00  0.00     0.142 C 
HETATM   33  N8  UNL     1      42.527  20.531  63.503  1.00  0.00    -0.080 NA
ATOM     34  H7  UNL     1      43.444  17.610  64.260  1.00  0.00     0.188 HD
BRANCH  32  35
HETATM   35  C15 UNL     1      41.483  18.261  63.321  1.00  0.00     0.024 A 
HETATM   36  C16 UNL     1      40.216  18.648  63.140  1.00  0.00     0.103 A 
HETATM   37  N9  UNL     1      39.451  17.569  62.746  1.00  0.00    -0.368 N 
HETATM   38  C17 UNL     1      40.350  16.505  62.705  1.00  0.00     0.019 A 
ATOM     39  H9  UNL     1      38.454  17.554  62.532  1.00  0.00     0.165 HD
HETATM   40  C25 UNL     1      41.557  16.915  63.047  1.00  0.00     0.041 A 
BRANCH  38  41
HETATM   41  C18 UNL     1      39.935  15.130  62.269  1.00  0.00     0.176 C 
BRANCH  41  42
HETATM   42  C19 UNL     1      38.605  14.755  62.869  1.00  0.00     0.296 C 
HETATM   43  O4  UNL     1      37.768  14.229  62.144  1.00  0.00    -0.257 OA
HETATM   44  N10 UNL     1      38.482  15.071  64.256  1.00  0.00    -0.382 NA
BRANCH  44  45
HETATM   45  C20 UNL     1      38.361  15.361  65.539  1.00  0.00     0.211 C 
BRANCH  45  46
HETATM   46  C21 UNL     1      38.366  16.853  65.896  1.00  0.00     0.232 C 
BRANCH  46  47
HETATM   47  N11 UNL     1      37.859  17.168  67.171  1.00  0.00    -0.056 N 
HETATM   48  C22 UNL     1      37.478  15.928  67.874  1.00  0.00     0.277 C 
HETATM   49  C23 UNL     1      36.669  17.997  67.180  1.00  0.00     0.277 C 
HETATM   50  C24 UNL     1      38.877  17.785  68.011  1.00  0.00     0.277 C 
ENDBRANCH  46  47
ENDBRANCH  45  46
ENDBRANCH  44  45
ENDBRANCH  41  42
ENDBRANCH  38  41
ENDBRANCH  32  35
ENDBRANCH   6  31
TORSDOF 21
ENDMDL
MODEL 2
REMARK VINA RESULT: -8.547717814      2.590      9.146
REMARK  21 active torsions:
REMARK  status: ('A' for Active; 'I' for Inactive)
REMARK    1  A    between atoms: C2_2  and  C3_3 
REMARK    2  A    between atoms: C3_3  and  N1_4 
REMARK       I    between atoms: C4_6  and  N2_7 
REMARK       I    between atoms: C4_6  and  N6_29 
REMARK    3  A    between atoms: N2_7  and  C5_9 
REMARK    4  A    between atoms: C5_9  and  C6_10 
REMARK    5  A    between atoms: C6_10  and  C7_11 
REMARK    6  A    between atoms: C7_11  and  N3_12 
REMARK       I    between atoms: N3_12  and  C8_14 
REMARK    7  A    between atoms: C8_14  and  C9_16 
REMARK    8  A    between atoms: C9_16  and  C10_17 
REMARK    9  A    between atoms: C10_17  and  C11_18 
REMARK   10  A    between atoms: C11_18  and  C12_19 
REMARK   11  A    between atoms: C12_19  and  C13_20 
REMARK   12  A    between atoms: C13_20  and  N4_21 
REMARK   13  A    between atoms: N4_21  and  S1_23 
REMARK   14  A    between atoms: S1_23  and  N5_24 
REMARK   15  A    between atoms: N6_29  and  N7_31 
REMARK   16  A    between atoms: C14_33  and  C15_35 
REMARK   17  A    between atoms: C17_39  and  C18_40 
REMARK   18  A    between atoms: C18_40  and  C19_41 
REMARK       I    between atoms: C19_41  and  N10_43 
REMARK   19  A    between atoms: N10_43  and  C20_44 
REMARK   20  A    between atoms: C20_44  and  C21_45 
REMARK   21  A    between atoms: C21_45  and  N11_46 
ROOT
HETATM    1  N1  UNL     1      37.189  16.715  66.756  1.00  0.00    -0.222 N 
ATOM      2  H1  UNL     1      36.883  15.757  66.586  1.00  0.00     0.178 HD
HETATM    3  C4  UNL     1      37.820  17.338  65.848  1.00  0.00     0.688 C 
HETATM    4  N2  UNL     1      38.088  16.686  64.635  1.00  0.00    -0.225 N 
ATOM      5  H2  UNL     1      38.713  17.157  63.982  1.00  0.00     0.177 HD
HETATM    6  N6  UNL     1      38.187  18.706  66.020  1.00  0.00    -0.131 N 
ATOM      7  H6  UNL     1      37.440  19.401  66.004  1.00  0.00     0.205 HD
ENDROOT
BRANCH   1   8
HETATM    8  C3  UNL     1      36.892  17.349  68.051  1.00  0.00     0.164 C 
BRANCH   8   9
HETATM    9  C2  UNL     1      37.310  16.392  69.092  1.00  0.00    -0.017 C 
HETATM   10  C1  UNL     1      38.463  16.322  69.701  1.00  0.00     0.008 C 
ENDBRANCH   8   9
ENDBRANCH   1   8
BRANCH   4  11
HETATM   11  C5  UNL     1      37.556  15.409  64.232  1.00  0.00     0.139 C 
BRANCH  11  12
HETATM   12  C6  UNL     1      38.372  14.858  63.067  1.00  0.00     0.040 C 
BRANCH  12  13
HETATM   13  C7  UNL     1      38.696  16.017  62.143  1.00  0.00     0.124 C 
BRANCH  13  14
HETATM   14  N3  UNL     1      40.144  16.229  62.242  1.00  0.00    -0.361 N 
HETATM   15  C8  UNL     1      40.674  17.361  62.790  1.00  0.00     0.217 C 
HETATM   16  O1  UNL     1      39.965  18.303  63.221  1.00  0.00    -0.274 OA
ATOM     17  H3  UNL     1      40.774  15.508  61.891  1.00  0.00     0.162 HD
BRANCH  15  18
HETATM   18  C9  UNL     1      42.146  17.568  62.937  1.00  0.00     0.103 C 
BRANCH  18  19
HETATM   19  C10 UNL     1      42.485  19.008  63.018  1.00  0.00     0.009 C 
BRANCH  19  20
HETATM   20  C11 UNL     1      43.758  19.469  62.429  1.00  0.00     0.002 C 
BRANCH  20  21
HETATM   21  C12 UNL     1      45.044  19.297  63.103  1.00  0.00     0.020 C 
BRANCH  21  22
HETATM   22  C13 UNL     1      46.283  19.817  62.480  1.00  0.00     0.133 C 
BRANCH  22  23
HETATM   23  N4  UNL     1      47.091  20.584  63.420  1.00  0.00    -0.303 N 
ATOM     24  H4  UNL     1      47.346  20.287  64.363  1.00  0.00     0.173 HD
BRANCH  23  25
HETATM   25  S1  UNL     1      47.545  22.068  62.682  1.00  0.00     0.312 S 
HETATM   26  O2  UNL     1      48.000  23.079  63.719  1.00  0.00    -0.183 OA
HETATM   27  O3  UNL     1      48.691  21.923  61.719  1.00  0.00    -0.183 OA
BRANCH  25  28
HETATM   28  N5  UNL     1      46.234  22.743  61.756  1.00  0.00    -0.312 N 
ATOM     29  H52 UNL     1      46.327  23.046  60.786  1.00  0.00     0.170 HD
ATOM     30  H51 UNL     1      45.377  22.793  62.307  1.00  0.00     0.170 HD
ENDBRANCH  25  28
ENDBRANCH  23  25
ENDBRANCH  22  23
ENDBRANCH  21  22
ENDBRANCH  20  21
ENDBRANCH  19  20
ENDBRANCH  18  19
ENDBRANCH  15  18
ENDBRANCH  13  14
ENDBRANCH  12  13
ENDBRANCH  11  12
ENDBRANCH   4  11
BRANCH   6  31
HETATM   31  N7  UNL     1      39.431  19.143  66.201  1.00  0.00    -0.273 N 
HETATM   32  C14 UNL     1      40.103  20.050  66.615  1.00  0.00     0.142 C 
HETATM   33  N8  UNL     1      39.520  21.227  67.192  1.00  0.00    -0.080 NA
ATOM     34  H7  UNL     1      40.064  18.425  65.850  1.00  0.00     0.188 HD
BRANCH  32  35
HETATM   35  C15 UNL     1      41.584  19.960  66.547  1.00  0.00     0.024 A 
HETATM   36  C16 UNL     1      42.319  18.843  66.518  1.00  0.00     0.103 A 
HETATM   37  N9  UNL     1      43.657  19.169  66.432  1.00  0.00    -0.368 N 
HETATM   38  C17 UNL     1      43.674  20.562  66.414  1.00  0.00     0.019 A 
ATOM     39  H9  UNL     1      44.454  18.533  66.390  1.00  0.00     0.165 HD
HETATM   40  C25 UNL     1      42.442  21.033  66.482  1.00  0.00     0.041 A 
BRANCH  38  41
HETATM   41  C18 UNL     1      44.950  21.340  66.277  1.00  0.00     0.176 C 
BRANCH  41  42
HETATM   42  C19 UNL     1      44.746  22.559  65.415  1.00  0.00     0.296 C 
HETATM   43  O4  UNL     1      44.444  22.395  64.238  1.00  0.00    -0.257 OA
HETATM   44  N10 UNL     1      44.936  23.796  66.101  1.00  0.00    -0.382 NA
BRANCH  44  45
HETATM   45  C20 UNL     1      45.112  24.945  66.730  1.00  0.00     0.211 C 
BRANCH  45  46
HETATM   46  C21 UNL     1      46.420  25.686  66.426  1.00  0.00     0.232 C 
BRANCH  46  47
HETATM   47  N11 UNL     1      47.493  25.389  67.289  1.00  0.00    -0.056 N 
HETATM   48  C22 UNL     1      48.248  24.236  66.763  1.00  0.00     0.277 C 
HETATM   49  C23 UNL     1      47.121  25.021  68.641  1.00  0.00     0.277 C 
HETATM   50  C24 UNL     1      48.454  26.483  67.339  1.00  0.00     0.277 C 
ENDBRANCH  46  47
ENDBRANCH  45  46
ENDBRANCH  44  45
ENDBRANCH  41  42
ENDBRANCH  38  41
ENDBRANCH  32  35
ENDBRANCH   6  31
TORSDOF 21
ENDMDL
MODEL 3
REMARK VINA RESULT: -8.510261068      3.373     11.937
REMARK  21 active torsions:
REMARK  status: ('A' for Active; 'I' for Inactive)
REMARK    1  A    between atoms: C2_2  and  C3_3 
REMARK    2  A    between atoms: C3_3  and  N1_4 
REMARK       I    between atoms: C4_6  and  N2_7 
REMARK       I    between atoms: C4_6  and  N6_29 
REMARK    3  A    between atoms: N2_7  and  C5_9 
REMARK    4  A    between atoms: C5_9  and  C6_10 
REMARK    5  A    between atoms: C6_10  and  C7_11 
REMARK    6  A    between atoms: C7_11  and  N3_12 
REMARK       I    between atoms: N3_12  and  C8_14 
REMARK    7  A    between atoms: C8_14  and  C9_16 
REMARK    8  A    between atoms: C9_16  and  C10_17 
REMARK    9  A    between atoms: C10_17  and  C11_18 
REMARK   10  A    between atoms: C11_18  and  C12_19 
REMARK   11  A    between atoms: C12_19  and  C13_20 
REMARK   12  A    between atoms: C13_20  and  N4_21 
REMARK   13  A    between atoms: N4_21  and  S1_23 
REMARK   14  A    between atoms: S1_23  and  N5_24 
REMARK   15  A    between atoms: N6_29  and  N7_31 
REMARK   16  A    between atoms: C14_33  and  C15_35 
REMARK   17  A    between atoms: C17_39  and  C18_40 
REMARK   18  A    between atoms: C18_40  and  C19_41 
REMARK       I    between atoms: C19_41  and  N10_43 
REMARK   19  A    between atoms: N10_43  and  C20_44 
REMARK   20  A    between atoms: C20_44  and  C21_45 
REMARK   21  A    between atoms: C21_45  and  N11_46 
ROOT
HETATM    1  N1  UNL     1      41.281  17.631  65.580  1.00  0.00    -0.222 N 
ATOM      2  H1  UNL     1      40.314  17.308  65.567  1.00  0.00     0.178 HD
HETATM    3  C4  UNL     1      41.677  18.373  66.531  1.00  0.00     0.688 C 
HETATM    4  N2  UNL     1      40.766  18.738  67.534  1.00  0.00    -0.225 N 
ATOM      5  H2  UNL     1      41.070  19.444  68.205  1.00  0.00     0.177 HD
HETATM    6  N6  UNL     1      43.043  18.773  66.627  1.00  0.00    -0.131 N 
ATOM      7  H6  UNL     1      43.727  18.058  66.876  1.00  0.00     0.205 HD
ENDROOT
BRANCH   1   8
HETATM    8  C3  UNL     1      42.194  17.229  64.497  1.00  0.00     0.164 C 
BRANCH   8   9
HETATM    9  C2  UNL     1      41.602  17.730  63.243  1.00  0.00    -0.017 C 
HETATM   10  C1  UNL     1      40.610  18.568  63.104  1.00  0.00     0.008 C 
ENDBRANCH   8   9
ENDBRANCH   1   8
BRANCH   4  11
HETATM   11  C5  UNL     1      39.439  18.201  67.699  1.00  0.00     0.139 C 
BRANCH  11  12
HETATM   12  C6  UNL     1      39.264  17.697  69.128  1.00  0.00     0.040 C 
BRANCH  12  13
HETATM   13  C7  UNL     1      38.210  16.606  69.106  1.00  0.00     0.124 C 
BRANCH  13  14
HETATM   14  N3  UNL     1      37.075  17.148  68.351  1.00  0.00    -0.361 N 
HETATM   15  C8  UNL     1      36.348  16.382  67.486  1.00  0.00     0.217 C 
HETATM   16  O1  UNL     1      36.614  15.175  67.260  1.00  0.00    -0.274 OA
ATOM     17  H3  UNL     1      36.821  18.128  68.476  1.00  0.00     0.162 HD
BRANCH  15  18
HETATM   18  C9  UNL     1      35.164  16.910  66.747  1.00  0.00     0.103 C 
BRANCH  18  19
HETATM   19  C10 UNL     1      34.141  15.858  66.538  1.00  0.00     0.009 C 
BRANCH  19  20
HETATM   20  C11 UNL     1      33.864  15.404  65.161  1.00  0.00     0.002 C 
BRANCH  20  21
HETATM   21  C12 UNL     1      34.550  15.963  63.996  1.00  0.00     0.020 C 
BRANCH  21  22
HETATM   22  C13 UNL     1      35.568  15.159  63.280  1.00  0.00     0.133 C 
BRANCH  22  23
HETATM   23  N4  UNL     1      36.605  14.661  64.177  1.00  0.00    -0.303 N 
ATOM     24  H4  UNL     1      36.443  14.142  65.040  1.00  0.00     0.173 HD
BRANCH  23  25
HETATM   25  S1  UNL     1      38.143  15.091  63.541  1.00  0.00     0.312 S 
HETATM   26  O2  UNL     1      39.098  15.498  64.649  1.00  0.00    -0.183 OA
HETATM   27  O3  UNL     1      38.817  13.962  62.811  1.00  0.00    -0.183 OA
BRANCH  25  28
HETATM   28  N5  UNL     1      38.012  16.388  62.387  1.00  0.00    -0.312 N 
ATOM     29  H52 UNL     1      37.123  16.728  62.019  1.00  0.00     0.170 HD
ATOM     30  H51 UNL     1      38.930  16.754  62.133  1.00  0.00     0.170 HD
ENDBRANCH  25  28
ENDBRANCH  23  25
ENDBRANCH  22  23
ENDBRANCH  21  22
ENDBRANCH  20  21
ENDBRANCH  19  20
ENDBRANCH  18  19
ENDBRANCH  15  18
ENDBRANCH  13  14
ENDBRANCH  12  13
ENDBRANCH  11  12
ENDBRANCH   4  11
BRANCH   6  31
HETATM   31  N7  UNL     1      43.492  20.008  66.415  1.00  0.00    -0.273 N 
HETATM   32  C14 UNL     1      43.171  21.148  66.203  1.00  0.00     0.142 C 
HETATM   33  N8  UNL     1      41.795  21.545  66.112  1.00  0.00    -0.080 NA
ATOM     34  H7  UNL     1      44.511  19.974  66.443  1.00  0.00     0.188 HD
BRANCH  32  35
HETATM   35  C15 UNL     1      44.216  22.189  66.043  1.00  0.00     0.024 A 
HETATM   36  C16 UNL     1      44.028  23.466  65.690  1.00  0.00     0.103 A 
HETATM   37  N9  UNL     1      45.240  24.126  65.672  1.00  0.00    -0.368 N 
HETATM   38  C17 UNL     1      46.170  23.154  66.035  1.00  0.00     0.019 A 
ATOM     39  H9  UNL     1      45.416  25.105  65.443  1.00  0.00     0.165 HD
HETATM   40  C25 UNL     1      45.562  22.003  66.255  1.00  0.00     0.041 A 
BRANCH  38  41
HETATM   41  C18 UNL     1      47.630  23.467  66.186  1.00  0.00     0.176 C 
BRANCH  41  42
HETATM   42  C19 UNL     1      48.245  23.812  64.855  1.00  0.00     0.296 C 
HETATM   43  O4  UNL     1      49.027  24.756  64.803  1.00  0.00    -0.257 OA
HETATM   44  N10 UNL     1      47.827  22.967  63.782  1.00  0.00    -0.382 NA
BRANCH  44  45
HETATM   45  C20 UNL     1      47.444  22.189  62.786  1.00  0.00     0.211 C 
BRANCH  45  46
HETATM   46  C21 UNL     1      45.939  22.171  62.486  1.00  0.00     0.232 C 
BRANCH  46  47
HETATM   47  N11 UNL     1      45.444  20.957  61.972  1.00  0.00    -0.056 N 
HETATM   48  C22 UNL     1      46.455  19.896  62.141  1.00  0.00     0.277 C 
HETATM   49  C23 UNL     1      45.126  20.964  60.557  1.00  0.00     0.277 C 
HETATM   50  C24 UNL     1      44.281  20.498  62.720  1.00  0.00     0.277 C 
ENDBRANCH  46  47
ENDBRANCH  45  46
ENDBRANCH  44  45
ENDBRANCH  41  42
ENDBRANCH  38  41
ENDBRANCH  32  35
ENDBRANCH   6  31
TORSDOF 21
ENDMDL
MODEL 4
REMARK VINA RESULT: -8.384298886      3.311      7.310
REMARK  21 active torsions:
REMARK  status: ('A' for Active; 'I' for Inactive)
REMARK    1  A    between atoms: C2_2  and  C3_3 
REMARK    2  A    between atoms: C3_3  and  N1_4 
REMARK       I    between atoms: C4_6  and  N2_7 
REMARK       I    between atoms: C4_6  and  N6_29 
REMARK    3  A    between atoms: N2_7  and  C5_9 
REMARK    4  A    between atoms: C5_9  and  C6_10 
REMARK    5  A    between atoms: C6_10  and  C7_11 
REMARK    6  A    between atoms: C7_11  and  N3_12 
REMARK       I    between atoms: N3_12  and  C8_14 
REMARK    7  A    between atoms: C8_14  and  C9_16 
REMARK    8  A    between atoms: C9_16  and  C10_17 
REMARK    9  A    between atoms: C10_17  and  C11_18 
REMARK   10  A    between atoms: C11_18  and  C12_19 
REMARK   11  A    between atoms: C12_19  and  C13_20 
REMARK   12  A    between atoms: C13_20  and  N4_21 
REMARK   13  A    between atoms: N4_21  and  S1_23 
REMARK   14  A    between atoms: S1_23  and  N5_24 
REMARK   15  A    between atoms: N6_29  and  N7_31 
REMARK   16  A    between atoms: C14_33  and  C15_35 
REMARK   17  A    between atoms: C17_39  and  C18_40 
REMARK   18  A    between atoms: C18_40  and  C19_41 
REMARK       I    between atoms: C19_41  and  N10_43 
REMARK   19  A    between atoms: N10_43  and  C20_44 
REMARK   20  A    between atoms: C20_44  and  C21_45 
REMARK   21  A    between atoms: C21_45  and  N11_46 
ROOT
HETATM    1  N1  UNL     1      48.227  24.392  64.582  1.00  0.00    -0.222 N 
ATOM      2  H1  UNL     1      48.538  24.979  63.808  1.00  0.00     0.178 HD
HETATM    3  C4  UNL     1      47.725  23.252  64.337  1.00  0.00     0.688 C 
HETATM    4  N2  UNL     1      47.602  22.834  63.003  1.00  0.00    -0.225 N 
ATOM      5  H2  UNL     1      47.070  21.982  62.830  1.00  0.00     0.177 HD
HETATM    6  N6  UNL     1      47.360  22.371  65.398  1.00  0.00    -0.131 N 
ATOM      7  H6  UNL     1      48.113  21.944  65.938  1.00  0.00     0.205 HD
ENDROOT
BRANCH   1   8
HETATM    8  C3  UNL     1      48.369  24.882  65.963  1.00  0.00     0.164 C 
BRANCH   8   9
HETATM    9  C2  UNL     1      48.229  26.349  65.903  1.00  0.00    -0.017 C 
HETATM   10  C1  UNL     1      48.636  27.155  64.961  1.00  0.00     0.008 C 
ENDBRANCH   8   9
ENDBRANCH   1   8
BRANCH   4  11
HETATM   11  C5  UNL     1      48.161  23.506  61.858  1.00  0.00     0.139 C 
BRANCH  11  12
HETATM   12  C6  UNL     1      47.469  23.017  60.589  1.00  0.00     0.040 C 
BRANCH  12  13
HETATM   13  C7  UNL     1      45.972  23.144  60.802  1.00  0.00     0.124 C 
BRANCH  13  14
HETATM   14  N3  UNL     1      45.431  21.783  60.734  1.00  0.00    -0.361 N 
HETATM   15  C8  UNL     1      44.870  21.172  61.818  1.00  0.00     0.217 C 
HETATM   16  O1  UNL     1      44.802  21.719  62.946  1.00  0.00    -0.274 OA
ATOM     17  H3  UNL     1      45.474  21.278  59.849  1.00  0.00     0.162 HD
BRANCH  15  18
HETATM   18  C9  UNL     1      44.274  19.804  61.749  1.00  0.00     0.103 C 
BRANCH  18  19
HETATM   19  C10 UNL     1      43.608  19.439  63.021  1.00  0.00     0.009 C 
BRANCH  19  20
HETATM   20  C11 UNL     1      42.471  18.498  62.979  1.00  0.00     0.002 C 
BRANCH  20  21
HETATM   21  C12 UNL     1      41.103  18.903  63.302  1.00  0.00     0.020 C 
BRANCH  21  22
HETATM   22  C13 UNL     1      40.046  17.878  63.465  1.00  0.00     0.133 C 
BRANCH  22  23
HETATM   23  N4  UNL     1      40.464  16.573  62.968  1.00  0.00    -0.303 N 
ATOM     24  H4  UNL     1      41.362  16.365  62.530  1.00  0.00     0.173 HD
BRANCH  23  25
HETATM   25  S1  UNL     1      39.198  15.442  63.240  1.00  0.00     0.312 S 
HETATM   26  O2  UNL     1      39.516  14.101  62.603  1.00  0.00    -0.183 OA
HETATM   27  O3  UNL     1      38.962  15.159  64.698  1.00  0.00    -0.183 OA
BRANCH  25  28
HETATM   28  N5  UNL     1      37.680  16.029  62.622  1.00  0.00    -0.312 N 
ATOM     29  H52 UNL     1      37.502  16.196  61.631  1.00  0.00     0.170 HD
ATOM     30  H51 UNL     1      37.006  16.179  63.373  1.00  0.00     0.170 HD
ENDBRANCH  25  28
ENDBRANCH  23  25
ENDBRANCH  22  23
ENDBRANCH  21  22
ENDBRANCH  20  21
ENDBRANCH  19  20
ENDBRANCH  18  19
ENDBRANCH  15  18
ENDBRANCH  13  14
ENDBRANCH  12  13
ENDBRANCH  11  12
ENDBRANCH   4  11
BRANCH   6  31
HETATM   31  N7  UNL     1      46.109  22.067  65.738  1.00  0.00    -0.273 N 
HETATM   32  C14 UNL     1      45.174  22.378  66.427  1.00  0.00     0.142 C 
HETATM   33  N8  UNL     1      45.221  23.512  67.305  1.00  0.00    -0.080 NA
ATOM     34  H7  UNL     1      45.836  21.243  65.202  1.00  0.00     0.188 HD
BRANCH  32  35
HETATM   35  C15 UNL     1      43.920  21.586  66.369  1.00  0.00     0.024 A 
HETATM   36  C16 UNL     1      42.719  22.012  65.963  1.00  0.00     0.103 A 
HETATM   37  N9  UNL     1      41.810  20.977  66.033  1.00  0.00    -0.368 N 
HETATM   38  C17 UNL     1      42.550  19.898  66.513  1.00  0.00     0.019 A 
ATOM     39  H9  UNL     1      40.820  20.996  65.788  1.00  0.00     0.165 HD
HETATM   40  C25 UNL     1      43.803  20.259  66.713  1.00  0.00     0.041 A 
BRANCH  38  41
HETATM   41  C18 UNL     1      41.944  18.537  66.695  1.00  0.00     0.176 C 
BRANCH  41  42
HETATM   42  C19 UNL     1      40.940  18.542  67.817  1.00  0.00     0.296 C 
HETATM   43  O4  UNL     1      41.336  18.310  68.954  1.00  0.00    -0.257 OA
HETATM   44  N10 UNL     1      39.603  18.828  67.402  1.00  0.00    -0.382 NA
BRANCH  44  45
HETATM   45  C20 UNL     1      38.365  19.090  67.025  1.00  0.00     0.211 C 
BRANCH  45  46
HETATM   46  C21 UNL     1      37.600  17.933  66.370  1.00  0.00     0.232 C 
BRANCH  46  47
HETATM   47  N11 UNL     1      36.494  17.455  67.099  1.00  0.00    -0.056 N 
HETATM   48  C22 UNL     1      36.942  16.448  68.080  1.00  0.00     0.277 C 
HETATM   49  C23 UNL     1      35.468  16.798  66.313  1.00  0.00     0.277 C 
HETATM   50  C24 UNL     1      35.882  18.514  67.892  1.00  0.00     0.277 C 
ENDBRANCH  46  47
ENDBRANCH  45  46
ENDBRANCH  44  45
ENDBRANCH  41  42
ENDBRANCH  38  41
ENDBRANCH  32  35
ENDBRANCH   6  31
TORSDOF 21
ENDMDL
MODEL 5
REMARK VINA RESULT: -8.369696726      3.719     12.060
REMARK  21 active torsions:
REMARK  status: ('A' for Active; 'I' for Inactive)
REMARK    1  A    between atoms: C2_2  and  C3_3 
REMARK    2  A    between atoms: C3_3  and  N1_4 
REMARK       I    between atoms: C4_6  and  N2_7 
REMARK       I    between atoms: C4_6  and  N6_29 
REMARK    3  A    between atoms: N2_7  and  C5_9 
REMARK    4  A    between atoms: C5_9  and  C6_10 
REMARK    5  A    between atoms: C6_10  and  C7_11 
REMARK    6  A    between atoms: C7_11  and  N3_12 
REMARK       I    between atoms: N3_12  and  C8_14 
REMARK    7  A    between atoms: C8_14  and  C9_16 
REMARK    8  A    between atoms: C9_16  and  C10_17 
REMARK    9  A    between atoms: C10_17  and  C11_18 
REMARK   10  A    between atoms: C11_18  and  C12_19 
REMARK   11  A    between atoms: C12_19  and  C13_20 
REMARK   12  A    between atoms: C13_20  and  N4_21 
REMARK   13  A    between atoms: N4_21  and  S1_23 
REMARK   14  A    between atoms: S1_23  and  N5_24 
REMARK   15  A    between atoms: N6_29  and  N7_31 
REMARK   16  A    between atoms: C14_33  and  C15_35 
REMARK   17  A    between atoms: C17_39  and  C18_40 
REMARK   18  A    between atoms: C18_40  and  C19_41 
REMARK       I    between atoms: C19_41  and  N10_43 
REMARK   19  A    between atoms: N10_43  and  C20_44 
REMARK   20  A    between atoms: C20_44  and  C21_45 
REMARK   21  A    between atoms: C21_45  and  N11_46 
ROOT
HETATM    1  N1  UNL     1      41.016  17.978  65.938  1.00  0.00    -0.222 N 
ATOM      2  H1  UNL     1      40.031  17.716  65.933  1.00  0.00     0.178 HD
HETATM    3  C4  UNL     1      41.439  18.798  66.811  1.00  0.00     0.688 C 
HETATM    4  N2  UNL     1      40.532  19.330  67.739  1.00  0.00    -0.225 N 
ATOM      5  H2  UNL     1      40.866  20.088  68.334  1.00  0.00     0.177 HD
HETATM    6  N6  UNL     1      42.825  19.121  66.900  1.00  0.00    -0.131 N 
ATOM      7  H6  UNL     1      43.457  18.399  67.247  1.00  0.00     0.205 HD
ENDROOT
BRANCH   1   8
HETATM    8  C3  UNL     1      41.924  17.399  64.934  1.00  0.00     0.164 C 
BRANCH   8   9
HETATM    9  C2  UNL     1      41.341  17.708  63.615  1.00  0.00    -0.017 C 
HETATM   10  C1  UNL     1      40.277  18.419  63.356  1.00  0.00     0.008 C 
ENDBRANCH   8   9
ENDBRANCH   1   8
BRANCH   4  11
HETATM   11  C5  UNL     1      39.170  18.900  67.926  1.00  0.00     0.139 C 
BRANCH  11  12
HETATM   12  C6  UNL     1      38.218  20.024  67.532  1.00  0.00     0.040 C 
BRANCH  12  13
HETATM   13  C7  UNL     1      36.842  19.416  67.334  1.00  0.00     0.124 C 
BRANCH  13  14
HETATM   14  N3  UNL     1      37.019  17.963  67.427  1.00  0.00    -0.361 N 
HETATM   15  C8  UNL     1      36.292  17.095  66.664  1.00  0.00     0.217 C 
HETATM   16  O1  UNL     1      35.410  17.477  65.855  1.00  0.00    -0.274 OA
ATOM     17  H3  UNL     1      37.706  17.589  68.080  1.00  0.00     0.162 HD
BRANCH  15  18
HETATM   18  C9  UNL     1      36.495  15.617  66.716  1.00  0.00     0.103 C 
BRANCH  18  19
HETATM   19  C10 UNL     1      37.799  15.228  66.131  1.00  0.00     0.009 C 
BRANCH  19  20
HETATM   20  C11 UNL     1      38.169  15.764  64.806  1.00  0.00     0.002 C 
BRANCH  20  21
HETATM   21  C12 UNL     1      37.902  15.041  63.564  1.00  0.00     0.020 C 
BRANCH  21  22
HETATM   22  C13 UNL     1      36.508  14.718  63.180  1.00  0.00     0.133 C 
BRANCH  22  23
HETATM   23  N4  UNL     1      35.646  15.895  63.198  1.00  0.00    -0.303 N 
ATOM     24  H4  UNL     1      35.964  16.863  63.163  1.00  0.00     0.173 HD
BRANCH  23  25
HETATM   25  S1  UNL     1      34.008  15.382  63.288  1.00  0.00     0.312 S 
HETATM   26  O2  UNL     1      33.084  16.385  62.621  1.00  0.00    -0.183 OA
HETATM   27  O3  UNL     1      33.760  14.071  62.595  1.00  0.00    -0.183 OA
BRANCH  25  28
HETATM   28  N5  UNL     1      33.507  15.146  64.939  1.00  0.00    -0.312 N 
ATOM     29  H52 UNL     1      33.149  15.896  65.532  1.00  0.00     0.170 HD
ATOM     30  H51 UNL     1      33.619  14.173  65.226  1.00  0.00     0.170 HD
ENDBRANCH  25  28
ENDBRANCH  23  25
ENDBRANCH  22  23
ENDBRANCH  21  22
ENDBRANCH  20  21
ENDBRANCH  19  20
ENDBRANCH  18  19
ENDBRANCH  15  18
ENDBRANCH  13  14
ENDBRANCH  12  13
ENDBRANCH  11  12
ENDBRANCH   4  11
BRANCH   6  31
HETATM   31  N7  UNL     1      43.357  20.294  66.563  1.00  0.00    -0.273 N 
HETATM   32  C14 UNL     1      43.141  21.361  66.051  1.00  0.00     0.142 C 
HETATM   33  N8  UNL     1      41.848  21.709  65.537  1.00  0.00    -0.080 NA
ATOM     34  H7  UNL     1      44.335  20.283  66.853  1.00  0.00     0.188 HD
BRANCH  32  35
HETATM   35  C15 UNL     1      44.230  22.364  65.952  1.00  0.00     0.024 A 
HETATM   36  C16 UNL     1      44.096  23.672  65.706  1.00  0.00     0.103 A 
HETATM   37  N9  UNL     1      45.336  24.277  65.715  1.00  0.00    -0.368 N 
HETATM   38  C17 UNL     1      46.226  23.238  65.982  1.00  0.00     0.019 A 
ATOM     39  H9  UNL     1      45.553  25.262  65.561  1.00  0.00     0.165 HD
HETATM   40  C25 UNL     1      45.569  22.102  66.123  1.00  0.00     0.041 A 
BRANCH  38  41
HETATM   41  C18 UNL     1      47.701  23.473  66.127  1.00  0.00     0.176 C 
BRANCH  41  42
HETATM   42  C19 UNL     1      48.317  23.853  64.807  1.00  0.00     0.296 C 
HETATM   43  O4  UNL     1      49.081  24.812  64.775  1.00  0.00    -0.257 OA
HETATM   44  N10 UNL     1      47.921  23.019  63.717  1.00  0.00    -0.382 NA
BRANCH  44  45
HETATM   45  C20 UNL     1      47.558  22.252  62.705  1.00  0.00     0.211 C 
BRANCH  45  46
HETATM   46  C21 UNL     1      46.062  22.245  62.368  1.00  0.00     0.232 C 
BRANCH  46  47
HETATM   47  N11 UNL     1      45.548  21.006  61.941  1.00  0.00    -0.056 N 
HETATM   48  C22 UNL     1      45.067  21.120  60.550  1.00  0.00     0.277 C 
HETATM   49  C23 UNL     1      44.417  20.507  62.699  1.00  0.00     0.277 C 
HETATM   50  C24 UNL     1      46.586  19.984  61.903  1.00  0.00     0.277 C 
ENDBRANCH  46  47
ENDBRANCH  45  46
ENDBRANCH  44  45
ENDBRANCH  41  42
ENDBRANCH  38  41
ENDBRANCH  32  35
ENDBRANCH   6  31
TORSDOF 21
ENDMDL
