MODEL 1
REMARK VINA RESULT: -5.162368942      0.000      0.000
REMARK  2 active torsions:
REMARK  status: ('A' for Active; 'I' for Inactive)
REMARK    1  A    between atoms: C4_5  and  O2_6 
REMARK    2  A    between atoms: C6_9  and  O3_10 
ROOT
HETATM    1  C1  UNL     1      20.934  89.189  76.992  1.00  0.00     0.042 C 
HETATM    2  C2  UNL     1      20.227  89.293  75.681  1.00  0.00     0.146 C 
HETATM    3  O1  UNL     1      21.149  89.177  74.617  1.00  0.00    -0.381 OA
HETATM    4  C3  UNL     1      20.588  89.842  73.546  1.00  0.00     0.200 C 
HETATM    5  C4  UNL     1      19.171  89.525  73.274  1.00  0.00     0.144 C 
HETATM    6  C5  UNL     1      18.540  88.494  74.121  1.00  0.00     0.068 C 
HETATM    7  C6  UNL     1      19.195  88.249  75.443  1.00  0.00     0.149 C 
ENDROOT
BRANCH   5   8
HETATM    8  O2  UNL     1      19.061  89.188  71.905  1.00  0.00    -0.393 OA
ATOM      9  H2  UNL     1      18.580  88.371  71.847  1.00  0.00     0.210 HD
ENDBRANCH   5   8
BRANCH   7  10
HETATM   10  O3  UNL     1      18.288  88.155  76.497  1.00  0.00    -0.393 OA
ATOM     11  H3  UNL     1      17.403  88.374  76.229  1.00  0.00     0.210 HD
ENDBRANCH   7  10
TORSDOF 2
ENDMDL
MODEL 2
REMARK VINA RESULT: -5.095801235      4.471      6.042
REMARK  2 active torsions:
REMARK  status: ('A' for Active; 'I' for Inactive)
REMARK    1  A    between atoms: C4_5  and  O2_6 
REMARK    2  A    between atoms: C6_9  and  O3_10 
ROOT
HETATM    1  C1  UNL     1      23.175  92.939  74.672  1.00  0.00     0.042 C 
HETATM    2  C2  UNL     1      23.870  91.683  74.265  1.00  0.00     0.146 C 
HETATM    3  O1  UNL     1      23.064  90.945  73.370  1.00  0.00    -0.381 OA
HETATM    4  C3  UNL     1      23.446  89.626  73.503  1.00  0.00     0.200 C 
HETATM    5  C4  UNL     1      24.904  89.384  73.486  1.00  0.00     0.144 C 
HETATM    6  C5  UNL     1      25.776  90.553  73.261  1.00  0.00     0.068 C 
HETATM    7  C6  UNL     1      25.171  91.885  73.573  1.00  0.00     0.149 C 
ENDROOT
BRANCH   5   8
HETATM    8  O2  UNL     1      25.160  88.373  72.531  1.00  0.00    -0.393 OA
ATOM      9  H2  UNL     1      25.753  87.745  72.927  1.00  0.00     0.210 HD
ENDBRANCH   5   8
BRANCH   7  10
HETATM   10  O3  UNL     1      26.024  92.721  74.289  1.00  0.00    -0.393 OA
ATOM     11  H3  UNL     1      26.622  92.234  74.844  1.00  0.00     0.210 HD
ENDBRANCH   7  10
TORSDOF 2
ENDMDL
MODEL 3
REMARK VINA RESULT: -4.970156683      3.955      5.298
REMARK  2 active torsions:
REMARK  status: ('A' for Active; 'I' for Inactive)
REMARK    1  A    between atoms: C4_5  and  O2_6 
REMARK    2  A    between atoms: C6_9  and  O3_10 
ROOT
HETATM    1  C1  UNL     1      24.849  88.806  72.876  1.00  0.00     0.042 C 
HETATM    2  C2  UNL     1      24.377  90.083  73.487  1.00  0.00     0.146 C 
HETATM    3  O1  UNL     1      25.039  91.183  72.894  1.00  0.00    -0.381 OA
HETATM    4  C3  UNL     1      25.028  92.193  73.834  1.00  0.00     0.200 C 
HETATM    5  C4  UNL     1      23.726  92.435  74.490  1.00  0.00     0.144 C 
HETATM    6  C5  UNL     1      22.580  91.632  74.022  1.00  0.00     0.068 C 
HETATM    7  C6  UNL     1      22.922  90.350  73.333  1.00  0.00     0.149 C 
ENDROOT
BRANCH   5   8
HETATM    8  O2  UNL     1      23.446  93.819  74.389  1.00  0.00    -0.393 OA
ATOM      9  H2  UNL     1      22.871  94.049  75.109  1.00  0.00     0.210 HD
ENDBRANCH   5   8
BRANCH   7  10
HETATM   10  O3  UNL     1      22.143  89.275  73.754  1.00  0.00    -0.393 OA
ATOM     11  H3  UNL     1      21.896  88.706  73.034  1.00  0.00     0.210 HD
ENDBRANCH   7  10
TORSDOF 2
ENDMDL
MODEL 4
REMARK VINA RESULT: -4.796378453      4.054      5.414
REMARK  2 active torsions:
REMARK  status: ('A' for Active; 'I' for Inactive)
REMARK    1  A    between atoms: C4_5  and  O2_6 
REMARK    2  A    between atoms: C6_9  and  O3_10 
ROOT
HETATM    1  C1  UNL     1      26.384  92.011  73.724  1.00  0.00     0.042 C 
HETATM    2  C2  UNL     1      25.030  91.393  73.828  1.00  0.00     0.146 C 
HETATM    3  O1  UNL     1      24.073  92.195  73.166  1.00  0.00    -0.381 OA
HETATM    4  C3  UNL     1      22.861  91.928  73.769  1.00  0.00     0.200 C 
HETATM    5  C4  UNL     1      22.552  90.496  73.964  1.00  0.00     0.144 C 
HETATM    6  C5  UNL     1      23.525  89.522  73.436  1.00  0.00     0.068 C 
HETATM    7  C6  UNL     1      24.913  90.038  73.226  1.00  0.00     0.149 C 
ENDROOT
BRANCH   5   8
HETATM    8  O2  UNL     1      21.262  90.260  73.432  1.00  0.00    -0.393 OA
ATOM      9  H2  UNL     1      21.337  89.556  72.798  1.00  0.00     0.210 HD
ENDBRANCH   5   8
BRANCH   7  10
HETATM   10  O3  UNL     1      25.898  89.169  73.690  1.00  0.00    -0.393 OA
ATOM     11  H3  UNL     1      25.709  88.844  74.563  1.00  0.00     0.210 HD
ENDBRANCH   7  10
TORSDOF 2
ENDMDL
MODEL 5
REMARK VINA RESULT: -4.775696433      3.792      5.160
REMARK  2 active torsions:
REMARK  status: ('A' for Active; 'I' for Inactive)
REMARK    1  A    between atoms: C4_5  and  O2_6 
REMARK    2  A    between atoms: C6_9  and  O3_10 
ROOT
HETATM    1  C1  UNL     1      26.033  92.155  73.820  1.00  0.00     0.042 C 
HETATM    2  C2  UNL     1      24.683  91.537  73.667  1.00  0.00     0.146 C 
HETATM    3  O1  UNL     1      24.701  90.200  74.125  1.00  0.00    -0.381 OA
HETATM    4  C3  UNL     1      23.693  89.545  73.449  1.00  0.00     0.200 C 
HETATM    5  C4  UNL     1      22.394  90.249  73.410  1.00  0.00     0.144 C 
HETATM    6  C5  UNL     1      22.299  91.522  74.150  1.00  0.00     0.068 C 
HETATM    7  C6  UNL     1      23.596  92.214  74.423  1.00  0.00     0.149 C 
ENDROOT
BRANCH   5   8
HETATM    8  O2  UNL     1      21.400  89.340  73.842  1.00  0.00    -0.393 OA
ATOM      9  H2  UNL     1      21.021  88.939  73.069  1.00  0.00     0.210 HD
ENDBRANCH   5   8
BRANCH   7  10
HETATM   10  O3  UNL     1      23.553  93.583  74.171  1.00  0.00    -0.393 OA
ATOM     11  H3  UNL     1      22.901  94.026  74.701  1.00  0.00     0.210 HD
ENDBRANCH   7  10
TORSDOF 2
ENDMDL
