MODEL 1
REMARK VINA RESULT: -8.588870244      0.000      0.000
REMARK  17 active torsions:
REMARK  status: ('A' for Active; 'I' for Inactive)
REMARK    1  A    between atoms: C2_2  and  C3_3 
REMARK    2  A    between atoms: C3_3  and  C4_4 
REMARK    3  A    between atoms: C6_9  and  C7_10 
REMARK    4  A    between atoms: C7_10  and  C8_11 
REMARK    5  A    between atoms: C8_11  and  C9_12 
REMARK    6  A    between atoms: C9_12  and  C10_13 
REMARK    7  A    between atoms: C10_13  and  N2_14 
REMARK    8  A    between atoms: N2_14  and  C11_15 
REMARK    9  A    between atoms: N2_14  and  C12_17 
REMARK   10  A    between atoms: C12_17  and  C13_18 
REMARK   11  A    between atoms: C13_18  and  C14_19 
REMARK   12  A    between atoms: C14_19  and  N3_20 
REMARK       I    between atoms: N3_20  and  C15_21 
REMARK   13  A    between atoms: C15_21  and  C16_23 
REMARK   14  A    between atoms: C16_23  and  C17_24 
REMARK   15  A    between atoms: C17_24  and  C18_25 
REMARK   16  A    between atoms: C18_25  and  N4_26 
REMARK   17  A    between atoms: C18_25  and  C19_30 
ROOT
HETATM    1  C4  UNL     1      -5.601  19.167  -2.080  1.00  0.00     0.077 C 
HETATM    2  N1  UNL     1      -5.405  17.862  -1.530  1.00  0.00    -0.323 N 
ATOM      3  H1  UNL     1      -4.828  17.235  -2.091  1.00  0.00     0.169 HD
HETATM    4  C5  UNL     1      -5.895  17.314  -0.321  1.00  0.00     0.245 C 
HETATM    5  O1  UNL     1      -4.951  16.905   0.443  1.00  0.00    -0.271 OA
HETATM    6  C6  UNL     1      -7.245  17.161   0.141  1.00  0.00     0.177 C 
HETATM    7  N5  UNL     1      -8.234  18.128  -0.293  1.00  0.00    -0.346 N 
ATOM      8  H5  UNL     1      -8.146  19.078   0.065  1.00  0.00     0.163 HD
HETATM    9  C20 UNL     1      -9.314  17.867  -1.174  1.00  0.00     0.249 C 
HETATM   10  O6  UNL     1     -10.483  18.304  -0.886  1.00  0.00    -0.271 OA
HETATM   11  C21 UNL     1      -9.241  17.116  -2.443  1.00  0.00     0.277 C 
HETATM   12  C22 UNL     1     -10.168  15.934  -2.535  1.00  0.00     0.043 C 
HETATM   13  C23 UNL     1      -9.817  15.282  -3.883  1.00  0.00     0.003 C 
HETATM   14  C24 UNL     1      -9.664  16.284  -4.974  1.00  0.00     0.002 C 
HETATM   15  C25 UNL     1      -8.303  16.802  -5.233  1.00  0.00     0.033 C 
HETATM   16  C26 UNL     1      -7.483  17.221  -4.068  1.00  0.00     0.194 C 
HETATM   17  C27 UNL     1      -7.349  18.723  -3.934  1.00  0.00     0.118 C 
HETATM   18  C28 UNL     1      -5.931  19.105  -3.498  1.00  0.00     0.177 C 
HETATM   19  O7  UNL     1      -5.203  19.328  -4.440  1.00  0.00    -0.291 OA
HETATM   20  N6  UNL     1      -7.941  16.663  -2.812  1.00  0.00    -0.058 N 
ATOM     21  H61 UNL     1      -7.902  15.644  -2.829  1.00  0.00     0.278 HD
ATOM     22  H62 UNL     1      -7.268  16.843  -2.066  1.00  0.00     0.278 HD
ENDROOT
BRANCH   6  23
HETATM   23  C7  UNL     1      -7.330  16.988   1.630  1.00  0.00     0.035 C 
BRANCH  23  24
HETATM   24  C8  UNL     1      -8.465  17.569   2.361  1.00  0.00     0.004 C 
BRANCH  24  25
HETATM   25  C9  UNL     1      -8.836  16.612   3.506  1.00  0.00     0.020 C 
BRANCH  25  26
HETATM   26  C10 UNL     1      -9.013  17.379   4.761  1.00  0.00     0.125 C 
BRANCH  26  27
HETATM   27  N2  UNL     1      -9.781  16.517   5.727  1.00  0.00    -0.359 N 
BRANCH  27  28
HETATM   28  C11 UNL     1      -9.266  16.455   7.022  1.00  0.00     0.350 C 
HETATM   29  O2  UNL     1      -9.624  17.233   7.926  1.00  0.00    -0.284 OA
ENDBRANCH  27  28
BRANCH  27  30
HETATM   30  C12 UNL     1     -10.965  15.893   5.220  1.00  0.00     0.131 C 
BRANCH  30  31
HETATM   31  C13 UNL     1     -12.106  15.782   6.174  1.00  0.00     0.079 C 
BRANCH  31  32
HETATM   32  C14 UNL     1     -12.859  14.481   6.154  1.00  0.00     0.160 C 
BRANCH  32  33
HETATM   33  N3  UNL     1     -13.500  14.210   4.929  1.00  0.00    -0.388 NA
HETATM   34  C15 UNL     1     -14.103  13.955   3.777  1.00  0.00     0.290 C 
HETATM   35  O3  UNL     1     -14.289  12.795   3.261  1.00  0.00    -0.257 OA
BRANCH  34  36
HETATM   36  C16 UNL     1     -14.673  15.089   2.886  1.00  0.00     0.122 C 
BRANCH  36  37
HETATM   37  C17 UNL     1     -13.839  15.183   1.648  1.00  0.00     0.054 C 
BRANCH  37  38
HETATM   38  C18 UNL     1     -12.420  15.571   1.892  1.00  0.00     0.283 C 
BRANCH  38  39
HETATM   39  N4  UNL     1     -12.232  16.900   1.258  1.00  0.00    -0.065 N 
ATOM     40  H43 UNL     1     -12.312  16.878   0.241  1.00  0.00     0.275 HD
ATOM     41  H42 UNL     1     -13.004  17.543   1.432  1.00  0.00     0.275 HD
ATOM     42  H41 UNL     1     -11.332  17.251   1.584  1.00  0.00     0.275 HD
ENDBRANCH  38  39
BRANCH  38  43
HETATM   43  C19 UNL     1     -11.469  14.646   1.298  1.00  0.00     0.204 C 
HETATM   44  O4  UNL     1     -10.403  15.101   0.779  1.00  0.00    -0.646 OA
HETATM   45  O5  UNL     1     -11.678  13.280   1.277  1.00  0.00    -0.646 OA
ENDBRANCH  38  43
ENDBRANCH  37  38
ENDBRANCH  36  37
ENDBRANCH  34  36
ENDBRANCH  32  33
ENDBRANCH  31  32
ENDBRANCH  30  31
ENDBRANCH  27  30
ENDBRANCH  26  27
ENDBRANCH  25  26
ENDBRANCH  24  25
ENDBRANCH  23  24
ENDBRANCH   6  23
BRANCH   1  46
HETATM   46  C3  UNL     1      -4.627  20.184  -1.630  1.00  0.00     0.006 C 
BRANCH  46  47
HETATM   47  C2  UNL     1      -3.213  19.875  -1.436  1.00  0.00     0.025 C 
HETATM   48  C1  UNL     1      -2.309  19.604  -2.581  1.00  0.00     0.009 C 
ENDBRANCH  46  47
ENDBRANCH   1  46
TORSDOF 17
ENDMDL
MODEL 2
REMARK VINA RESULT: -8.555428561      2.096      9.601
REMARK  17 active torsions:
REMARK  status: ('A' for Active; 'I' for Inactive)
REMARK    1  A    between atoms: C2_2  and  C3_3 
REMARK    2  A    between atoms: C3_3  and  C4_4 
REMARK    3  A    between atoms: C6_9  and  C7_10 
REMARK    4  A    between atoms: C7_10  and  C8_11 
REMARK    5  A    between atoms: C8_11  and  C9_12 
REMARK    6  A    between atoms: C9_12  and  C10_13 
REMARK    7  A    between atoms: C10_13  and  N2_14 
REMARK    8  A    between atoms: N2_14  and  C11_15 
REMARK    9  A    between atoms: N2_14  and  C12_17 
REMARK   10  A    between atoms: C12_17  and  C13_18 
REMARK   11  A    between atoms: C13_18  and  C14_19 
REMARK   12  A    between atoms: C14_19  and  N3_20 
REMARK       I    between atoms: N3_20  and  C15_21 
REMARK   13  A    between atoms: C15_21  and  C16_23 
REMARK   14  A    between atoms: C16_23  and  C17_24 
REMARK   15  A    between atoms: C17_24  and  C18_25 
REMARK   16  A    between atoms: C18_25  and  N4_26 
REMARK   17  A    between atoms: C18_25  and  C19_30 
ROOT
HETATM    1  C4  UNL     1     -13.755  14.417   4.495  1.00  0.00     0.077 C 
HETATM    2  N1  UNL     1     -12.736  13.618   3.890  1.00  0.00    -0.323 N 
ATOM      3  H1  UNL     1     -12.444  12.802   4.429  1.00  0.00     0.169 HD
HETATM    4  C5  UNL     1     -12.074  13.792   2.652  1.00  0.00     0.245 C 
HETATM    5  O1  UNL     1     -12.211  12.776   1.881  1.00  0.00    -0.271 OA
HETATM    6  C6  UNL     1     -11.306  14.903   2.166  1.00  0.00     0.177 C 
HETATM    7  N5  UNL     1     -11.649  16.232   2.630  1.00  0.00    -0.346 N 
ATOM      8  H5  UNL     1     -12.538  16.620   2.315  1.00  0.00     0.163 HD
HETATM    9  C20 UNL     1     -10.857  17.040   3.484  1.00  0.00     0.249 C 
HETATM   10  O6  UNL     1     -10.684  18.277   3.202  1.00  0.00    -0.271 OA
HETATM   11  C21 UNL     1     -10.180  16.597   4.720  1.00  0.00     0.277 C 
HETATM   12  C22 UNL     1      -8.693  16.833   4.746  1.00  0.00     0.043 C 
HETATM   13  C23 UNL     1      -8.234  16.195   6.068  1.00  0.00     0.003 C 
HETATM   14  C24 UNL     1      -9.133  16.536   7.205  1.00  0.00     0.002 C 
HETATM   15  C25 UNL     1     -10.235  15.596   7.504  1.00  0.00     0.033 C 
HETATM   16  C26 UNL     1     -11.052  15.095   6.370  1.00  0.00     0.194 C 
HETATM   17  C27 UNL     1     -12.433  15.709   6.305  1.00  0.00     0.118 C 
HETATM   18  C28 UNL     1     -13.476  14.660   5.905  1.00  0.00     0.177 C 
HETATM   19  O7  UNL     1     -13.982  14.122   6.865  1.00  0.00    -0.291 OA
HETATM   20  N6  UNL     1     -10.399  15.238   5.084  1.00  0.00    -0.058 N 
ATOM     21  H61 UNL     1      -9.528  14.708   5.056  1.00  0.00     0.278 HD
ATOM     22  H62 UNL     1     -10.916  14.745   4.356  1.00  0.00     0.278 HD
ENDROOT
BRANCH   6  23
HETATM   23  C7  UNL     1     -11.181  14.909   0.669  1.00  0.00     0.035 C 
BRANCH  23  24
HETATM   24  C8  UNL     1     -11.356  16.170  -0.064  1.00  0.00     0.004 C 
BRANCH  24  25
HETATM   25  C9  UNL     1     -10.008  16.538  -0.710  1.00  0.00     0.020 C 
BRANCH  25  26
HETATM   26  C10 UNL     1      -9.487  17.783  -0.101  1.00  0.00     0.125 C 
BRANCH  26  27
HETATM   27  N2  UNL     1      -8.291  17.423   0.739  1.00  0.00    -0.359 N 
BRANCH  27  28
HETATM   28  C11 UNL     1      -7.822  16.117   0.595  1.00  0.00     0.350 C 
HETATM   29  O2  UNL     1      -7.810  15.299   1.534  1.00  0.00    -0.284 OA
ENDBRANCH  27  28
BRANCH  27  30
HETATM   30  C12 UNL     1      -7.751  18.466   1.557  1.00  0.00     0.131 C 
BRANCH  30  31
HETATM   31  C13 UNL     1      -7.199  19.646   0.833  1.00  0.00     0.079 C 
BRANCH  31  32
HETATM   32  C14 UNL     1      -5.828  19.474   0.239  1.00  0.00     0.160 C 
BRANCH  32  33
HETATM   33  N3  UNL     1      -5.828  18.878  -1.038  1.00  0.00    -0.388 NA
HETATM   34  C15 UNL     1      -5.829  18.317  -2.239  1.00  0.00     0.290 C 
HETATM   35  O3  UNL     1      -4.793  17.961  -2.908  1.00  0.00    -0.257 OA
BRANCH  34  36
HETATM   36  C16 UNL     1      -7.147  18.021  -2.999  1.00  0.00     0.122 C 
BRANCH  36  37
HETATM   37  C17 UNL     1      -7.063  18.648  -4.354  1.00  0.00     0.054 C 
BRANCH  37  38
HETATM   38  C18 UNL     1      -7.256  17.695  -5.484  1.00  0.00     0.283 C 
BRANCH  38  39
HETATM   39  N4  UNL     1      -6.783  18.390  -6.708  1.00  0.00    -0.065 N 
ATOM     40  H43 UNL     1      -6.481  19.350  -6.536  1.00  0.00     0.275 HD
ATOM     41  H42 UNL     1      -5.890  18.037  -7.053  1.00  0.00     0.275 HD
ATOM     42  H41 UNL     1      -7.537  18.320  -7.390  1.00  0.00     0.275 HD
ENDBRANCH  38  39
BRANCH  38  43
HETATM   43  C19 UNL     1      -8.647  17.323  -5.683  1.00  0.00     0.204 C 
HETATM   44  O4  UNL     1      -9.416  18.114  -6.312  1.00  0.00    -0.646 OA
HETATM   45  O5  UNL     1      -9.170  16.134  -5.213  1.00  0.00    -0.646 OA
ENDBRANCH  38  43
ENDBRANCH  37  38
ENDBRANCH  36  37
ENDBRANCH  34  36
ENDBRANCH  32  33
ENDBRANCH  31  32
ENDBRANCH  30  31
ENDBRANCH  27  30
ENDBRANCH  26  27
ENDBRANCH  25  26
ENDBRANCH  24  25
ENDBRANCH  23  24
ENDBRANCH   6  23
BRANCH   1  46
HETATM   46  C3  UNL     1     -15.136  14.064   4.104  1.00  0.00     0.006 C 
BRANCH  46  47
HETATM   47  C2  UNL     1     -15.535  12.691   3.809  1.00  0.00     0.025 C 
HETATM   48  C1  UNL     1     -15.607  11.654   4.868  1.00  0.00     0.009 C 
ENDBRANCH  46  47
ENDBRANCH   1  46
TORSDOF 17
ENDMDL
MODEL 3
REMARK VINA RESULT: -8.421602965      1.847      9.888
REMARK  17 active torsions:
REMARK  status: ('A' for Active; 'I' for Inactive)
REMARK    1  A    between atoms: C2_2  and  C3_3 
REMARK    2  A    between atoms: C3_3  and  C4_4 
REMARK    3  A    between atoms: C6_9  and  C7_10 
REMARK    4  A    between atoms: C7_10  and  C8_11 
REMARK    5  A    between atoms: C8_11  and  C9_12 
REMARK    6  A    between atoms: C9_12  and  C10_13 
REMARK    7  A    between atoms: C10_13  and  N2_14 
REMARK    8  A    between atoms: N2_14  and  C11_15 
REMARK    9  A    between atoms: N2_14  and  C12_17 
REMARK   10  A    between atoms: C12_17  and  C13_18 
REMARK   11  A    between atoms: C13_18  and  C14_19 
REMARK   12  A    between atoms: C14_19  and  N3_20 
REMARK       I    between atoms: N3_20  and  C15_21 
REMARK   13  A    between atoms: C15_21  and  C16_23 
REMARK   14  A    between atoms: C16_23  and  C17_24 
REMARK   15  A    between atoms: C17_24  and  C18_25 
REMARK   16  A    between atoms: C18_25  and  N4_26 
REMARK   17  A    between atoms: C18_25  and  C19_30 
ROOT
HETATM    1  C4  UNL     1     -13.657  14.410   4.269  1.00  0.00     0.077 C 
HETATM    2  N1  UNL     1     -12.613  13.637   3.672  1.00  0.00    -0.323 N 
ATOM      3  H1  UNL     1     -12.306  12.828   4.212  1.00  0.00     0.169 HD
HETATM    4  C5  UNL     1     -11.942  13.833   2.442  1.00  0.00     0.245 C 
HETATM    5  O1  UNL     1     -12.046  12.816   1.667  1.00  0.00    -0.271 OA
HETATM    6  C6  UNL     1     -11.196  14.963   1.968  1.00  0.00     0.177 C 
HETATM    7  N5  UNL     1     -11.576  16.282   2.433  1.00  0.00    -0.346 N 
ATOM      8  H5  UNL     1     -12.471  16.650   2.110  1.00  0.00     0.163 HD
HETATM    9  C20 UNL     1     -10.812  17.106   3.298  1.00  0.00     0.249 C 
HETATM   10  O6  UNL     1     -10.666  18.347   3.022  1.00  0.00    -0.271 OA
HETATM   11  C21 UNL     1     -10.137  16.675   4.539  1.00  0.00     0.277 C 
HETATM   12  C22 UNL     1      -8.658  16.946   4.582  1.00  0.00     0.043 C 
HETATM   13  C23 UNL     1      -8.197  16.314   5.906  1.00  0.00     0.003 C 
HETATM   14  C24 UNL     1      -9.116  16.630   7.035  1.00  0.00     0.002 C 
HETATM   15  C25 UNL     1     -10.198  15.663   7.319  1.00  0.00     0.033 C 
HETATM   16  C26 UNL     1     -10.990  15.146   6.175  1.00  0.00     0.194 C 
HETATM   17  C27 UNL     1     -12.385  15.727   6.097  1.00  0.00     0.118 C 
HETATM   18  C28 UNL     1     -13.399  14.655   5.683  1.00  0.00     0.177 C 
HETATM   19  O7  UNL     1     -13.901  14.101   6.636  1.00  0.00    -0.291 OA
HETATM   20  N6  UNL     1     -10.328  15.309   4.896  1.00  0.00    -0.058 N 
ATOM     21  H61 UNL     1      -9.444  14.801   4.876  1.00  0.00     0.278 HD
ATOM     22  H62 UNL     1     -10.826  14.807   4.161  1.00  0.00     0.278 HD
ENDROOT
BRANCH   6  23
HETATM   23  C7  UNL     1     -11.056  14.978   0.473  1.00  0.00     0.035 C 
BRANCH  23  24
HETATM   24  C8  UNL     1     -10.570  16.193  -0.195  1.00  0.00     0.004 C 
BRANCH  24  25
HETATM   25  C9  UNL     1      -9.679  15.766  -1.375  1.00  0.00     0.020 C 
BRANCH  25  26
HETATM   26  C10 UNL     1      -9.384  16.940  -2.228  1.00  0.00     0.125 C 
BRANCH  26  27
HETATM   27  N2  UNL     1      -9.219  16.454  -3.643  1.00  0.00    -0.359 N 
BRANCH  27  28
HETATM   28  C11 UNL     1      -9.879  15.264  -3.954  1.00  0.00     0.350 C 
HETATM   29  O2  UNL     1      -9.370  14.379  -4.669  1.00  0.00    -0.284 OA
ENDBRANCH  27  28
BRANCH  27  30
HETATM   30  C12 UNL     1      -8.441  17.281  -4.513  1.00  0.00     0.131 C 
BRANCH  30  31
HETATM   31  C13 UNL     1      -7.732  18.423  -3.868  1.00  0.00     0.079 C 
BRANCH  31  32
HETATM   32  C14 UNL     1      -6.229  18.375  -3.907  1.00  0.00     0.160 C 
BRANCH  32  33
HETATM   33  N3  UNL     1      -5.611  18.813  -2.720  1.00  0.00    -0.388 NA
HETATM   34  C15 UNL     1      -5.029  19.226  -1.603  1.00  0.00     0.290 C 
HETATM   35  O3  UNL     1      -3.850  18.915  -1.204  1.00  0.00    -0.257 OA
BRANCH  34  36
HETATM   36  C16 UNL     1      -5.752  20.173  -0.610  1.00  0.00     0.122 C 
BRANCH  36  37
HETATM   37  C17 UNL     1      -6.092  19.398   0.622  1.00  0.00     0.054 C 
BRANCH  37  38
HETATM   38  C18 UNL     1      -7.084  18.306   0.406  1.00  0.00     0.283 C 
BRANCH  38  39
HETATM   39  N4  UNL     1      -8.287  18.667   1.195  1.00  0.00    -0.065 N 
ATOM     40  H43 UNL     1      -8.168  18.531   2.199  1.00  0.00     0.275 HD
ATOM     41  H42 UNL     1      -8.465  19.671   1.224  1.00  0.00     0.275 HD
ATOM     42  H41 UNL     1      -9.062  18.130   0.805  1.00  0.00     0.275 HD
ENDBRANCH  38  39
BRANCH  38  43
HETATM   43  C19 UNL     1      -6.611  17.010   0.865  1.00  0.00     0.204 C 
HETATM   44  O4  UNL     1      -5.366  16.761   0.843  1.00  0.00    -0.646 OA
HETATM   45  O5  UNL     1      -7.468  16.032   1.331  1.00  0.00    -0.646 OA
ENDBRANCH  38  43
ENDBRANCH  37  38
ENDBRANCH  36  37
ENDBRANCH  34  36
ENDBRANCH  32  33
ENDBRANCH  31  32
ENDBRANCH  30  31
ENDBRANCH  27  30
ENDBRANCH  26  27
ENDBRANCH  25  26
ENDBRANCH  24  25
ENDBRANCH  23  24
ENDBRANCH   6  23
BRANCH   1  46
HETATM   46  C3  UNL     1     -15.025  14.026   3.863  1.00  0.00     0.006 C 
BRANCH  46  47
HETATM   47  C2  UNL     1     -15.396  12.639   3.592  1.00  0.00     0.025 C 
HETATM   48  C1  UNL     1     -15.740  11.696   4.685  1.00  0.00     0.009 C 
ENDBRANCH  46  47
ENDBRANCH   1  46
TORSDOF 17
ENDMDL
MODEL 4
REMARK VINA RESULT: -8.233166718      1.875     10.071
REMARK  17 active torsions:
REMARK  status: ('A' for Active; 'I' for Inactive)
REMARK    1  A    between atoms: C2_2  and  C3_3 
REMARK    2  A    between atoms: C3_3  and  C4_4 
REMARK    3  A    between atoms: C6_9  and  C7_10 
REMARK    4  A    between atoms: C7_10  and  C8_11 
REMARK    5  A    between atoms: C8_11  and  C9_12 
REMARK    6  A    between atoms: C9_12  and  C10_13 
REMARK    7  A    between atoms: C10_13  and  N2_14 
REMARK    8  A    between atoms: N2_14  and  C11_15 
REMARK    9  A    between atoms: N2_14  and  C12_17 
REMARK   10  A    between atoms: C12_17  and  C13_18 
REMARK   11  A    between atoms: C13_18  and  C14_19 
REMARK   12  A    between atoms: C14_19  and  N3_20 
REMARK       I    between atoms: N3_20  and  C15_21 
REMARK   13  A    between atoms: C15_21  and  C16_23 
REMARK   14  A    between atoms: C16_23  and  C17_24 
REMARK   15  A    between atoms: C17_24  and  C18_25 
REMARK   16  A    between atoms: C18_25  and  N4_26 
REMARK   17  A    between atoms: C18_25  and  C19_30 
ROOT
HETATM    1  C4  UNL     1     -13.911  14.513   4.401  1.00  0.00     0.077 C 
HETATM    2  N1  UNL     1     -12.862  13.665   3.931  1.00  0.00    -0.323 N 
ATOM      3  H1  UNL     1     -12.692  12.829   4.492  1.00  0.00     0.169 HD
HETATM    4  C5  UNL     1     -12.023  13.815   2.801  1.00  0.00     0.245 C 
HETATM    5  O1  UNL     1     -12.105  12.816   2.002  1.00  0.00    -0.271 OA
HETATM    6  C6  UNL     1     -11.137  14.886   2.447  1.00  0.00     0.177 C 
HETATM    7  N5  UNL     1     -11.470  16.228   2.883  1.00  0.00    -0.346 N 
ATOM      8  H5  UNL     1     -12.284  16.668   2.453  1.00  0.00     0.163 HD
HETATM    9  C20 UNL     1     -10.764  16.982   3.853  1.00  0.00     0.249 C 
HETATM   10  O6  UNL     1     -10.487  18.209   3.620  1.00  0.00    -0.271 OA
HETATM   11  C21 UNL     1     -10.292  16.490   5.163  1.00  0.00     0.277 C 
HETATM   12  C22 UNL     1      -8.814  16.642   5.402  1.00  0.00     0.043 C 
HETATM   13  C23 UNL     1      -8.579  15.966   6.763  1.00  0.00     0.003 C 
HETATM   14  C24 UNL     1      -9.610  16.346   7.769  1.00  0.00     0.002 C 
HETATM   15  C25 UNL     1     -10.792  15.465   7.895  1.00  0.00     0.033 C 
HETATM   16  C26 UNL     1     -11.467  15.021   6.649  1.00  0.00     0.194 C 
HETATM   17  C27 UNL     1     -12.790  15.712   6.401  1.00  0.00     0.118 C 
HETATM   18  C28 UNL     1     -13.821  14.727   5.841  1.00  0.00     0.177 C 
HETATM   19  O7  UNL     1     -14.485  14.208   6.711  1.00  0.00    -0.291 OA
HETATM   20  N6  UNL     1     -10.633  15.141   5.469  1.00  0.00    -0.058 N 
ATOM     21  H61 UNL     1      -9.796  14.564   5.554  1.00  0.00     0.278 HD
ATOM     22  H62 UNL     1     -11.068  14.685   4.667  1.00  0.00     0.278 HD
ENDROOT
BRANCH   6  23
HETATM   23  C7  UNL     1     -10.802  14.900   0.983  1.00  0.00     0.035 C 
BRANCH  23  24
HETATM   24  C8  UNL     1      -9.404  14.749   0.561  1.00  0.00     0.004 C 
BRANCH  24  25
HETATM   25  C9  UNL     1      -8.650  16.038   0.932  1.00  0.00     0.020 C 
BRANCH  25  26
HETATM   26  C10 UNL     1      -9.218  17.182   0.183  1.00  0.00     0.125 C 
BRANCH  26  27
HETATM   27  N2  UNL     1      -8.588  17.199  -1.184  1.00  0.00    -0.359 N 
BRANCH  27  28
HETATM   28  C11 UNL     1      -7.193  17.235  -1.206  1.00  0.00     0.350 C 
HETATM   29  O2  UNL     1      -6.542  18.263  -0.938  1.00  0.00    -0.284 OA
ENDBRANCH  27  28
BRANCH  27  30
HETATM   30  C12 UNL     1      -9.483  17.140  -2.298  1.00  0.00     0.131 C 
BRANCH  30  31
HETATM   31  C13 UNL     1      -9.881  15.774  -2.746  1.00  0.00     0.079 C 
BRANCH  31  32
HETATM   32  C14 UNL     1      -9.416  15.367  -4.117  1.00  0.00     0.160 C 
BRANCH  32  33
HETATM   33  N3  UNL     1      -8.917  16.433  -4.892  1.00  0.00    -0.388 NA
HETATM   34  C15 UNL     1      -8.448  17.436  -5.620  1.00  0.00     0.290 C 
HETATM   35  O3  UNL     1      -9.139  18.212  -6.373  1.00  0.00    -0.257 OA
BRANCH  34  36
HETATM   36  C16 UNL     1      -6.939  17.792  -5.641  1.00  0.00     0.122 C 
BRANCH  36  37
HETATM   37  C17 UNL     1      -6.650  18.699  -4.488  1.00  0.00     0.054 C 
BRANCH  37  38
HETATM   38  C18 UNL     1      -5.198  18.934  -4.241  1.00  0.00     0.283 C 
BRANCH  38  39
HETATM   39  N4  UNL     1      -4.697  17.744  -3.508  1.00  0.00    -0.065 N 
ATOM     40  H43 UNL     1      -5.119  16.869  -3.821  1.00  0.00     0.275 HD
ATOM     41  H42 UNL     1      -3.732  17.507  -3.736  1.00  0.00     0.275 HD
ATOM     42  H41 UNL     1      -4.845  17.931  -2.517  1.00  0.00     0.275 HD
ENDBRANCH  38  39
BRANCH  38  43
HETATM   43  C19 UNL     1      -4.944  20.109  -3.425  1.00  0.00     0.204 C 
HETATM   44  O4  UNL     1      -3.826  20.225  -2.835  1.00  0.00    -0.646 OA
HETATM   45  O5  UNL     1      -5.877  21.116  -3.266  1.00  0.00    -0.646 OA
ENDBRANCH  38  43
ENDBRANCH  37  38
ENDBRANCH  36  37
ENDBRANCH  34  36
ENDBRANCH  32  33
ENDBRANCH  31  32
ENDBRANCH  30  31
ENDBRANCH  27  30
ENDBRANCH  26  27
ENDBRANCH  25  26
ENDBRANCH  24  25
ENDBRANCH  23  24
ENDBRANCH   6  23
BRANCH   1  46
HETATM   46  C3  UNL     1     -15.240  14.242   3.815  1.00  0.00     0.006 C 
BRANCH  46  47
HETATM   47  C2  UNL     1     -15.696  12.888   3.513  1.00  0.00     0.025 C 
HETATM   48  C1  UNL     1     -15.666  11.809   4.531  1.00  0.00     0.009 C 
ENDBRANCH  46  47
ENDBRANCH   1  46
TORSDOF 17
ENDMDL
MODEL 5
REMARK VINA RESULT: -8.152249261      1.583      2.718
REMARK  17 active torsions:
REMARK  status: ('A' for Active; 'I' for Inactive)
REMARK    1  A    between atoms: C2_2  and  C3_3 
REMARK    2  A    between atoms: C3_3  and  C4_4 
REMARK    3  A    between atoms: C6_9  and  C7_10 
REMARK    4  A    between atoms: C7_10  and  C8_11 
REMARK    5  A    between atoms: C8_11  and  C9_12 
REMARK    6  A    between atoms: C9_12  and  C10_13 
REMARK    7  A    between atoms: C10_13  and  N2_14 
REMARK    8  A    between atoms: N2_14  and  C11_15 
REMARK    9  A    between atoms: N2_14  and  C12_17 
REMARK   10  A    between atoms: C12_17  and  C13_18 
REMARK   11  A    between atoms: C13_18  and  C14_19 
REMARK   12  A    between atoms: C14_19  and  N3_20 
REMARK       I    between atoms: N3_20  and  C15_21 
REMARK   13  A    between atoms: C15_21  and  C16_23 
REMARK   14  A    between atoms: C16_23  and  C17_24 
REMARK   15  A    between atoms: C17_24  and  C18_25 
REMARK   16  A    between atoms: C18_25  and  N4_26 
REMARK   17  A    between atoms: C18_25  and  C19_30 
ROOT
HETATM    1  C4  UNL     1      -5.561  19.136  -2.142  1.00  0.00     0.077 C 
HETATM    2  N1  UNL     1      -5.380  17.837  -1.576  1.00  0.00    -0.323 N 
ATOM      3  H1  UNL     1      -4.819  17.192  -2.133  1.00  0.00     0.169 HD
HETATM    4  C5  UNL     1      -5.865  17.314  -0.354  1.00  0.00     0.245 C 
HETATM    5  O1  UNL     1      -4.918  16.901   0.407  1.00  0.00    -0.271 OA
HETATM    6  C6  UNL     1      -7.211  17.191   0.126  1.00  0.00     0.177 C 
HETATM    7  N5  UNL     1      -8.190  18.167  -0.312  1.00  0.00    -0.346 N 
ATOM      8  H5  UNL     1      -8.082  19.120   0.032  1.00  0.00     0.163 HD
HETATM    9  C20 UNL     1      -9.284  17.910  -1.176  1.00  0.00     0.249 C 
HETATM   10  O6  UNL     1     -10.442  18.371  -0.882  1.00  0.00    -0.271 OA
HETATM   11  C21 UNL     1      -9.237  17.140  -2.435  1.00  0.00     0.277 C 
HETATM   12  C22 UNL     1     -10.184  15.972  -2.498  1.00  0.00     0.043 C 
HETATM   13  C23 UNL     1      -9.859  15.295  -3.840  1.00  0.00     0.003 C 
HETATM   14  C24 UNL     1      -9.702  16.277  -4.948  1.00  0.00     0.002 C 
HETATM   15  C25 UNL     1      -8.337  16.770  -5.230  1.00  0.00     0.033 C 
HETATM   16  C26 UNL     1      -7.496  17.192  -4.081  1.00  0.00     0.194 C 
HETATM   17  C27 UNL     1      -7.337  18.693  -3.970  1.00  0.00     0.118 C 
HETATM   18  C28 UNL     1      -5.908  19.059  -3.556  1.00  0.00     0.177 C 
HETATM   19  O7  UNL     1      -5.186  19.256  -4.509  1.00  0.00    -0.291 OA
HETATM   20  N6  UNL     1      -7.949  16.661  -2.811  1.00  0.00    -0.058 N 
ATOM     21  H61 UNL     1      -7.926  15.641  -2.814  1.00  0.00     0.278 HD
ATOM     22  H62 UNL     1      -7.265  16.840  -2.076  1.00  0.00     0.278 HD
ENDROOT
BRANCH   6  23
HETATM   23  C7  UNL     1      -7.283  17.041   1.619  1.00  0.00     0.035 C 
BRANCH  23  24
HETATM   24  C8  UNL     1      -8.317  17.766   2.368  1.00  0.00     0.004 C 
BRANCH  24  25
HETATM   25  C9  UNL     1      -8.683  16.930   3.607  1.00  0.00     0.020 C 
BRANCH  25  26
HETATM   26  C10 UNL     1      -9.007  15.545   3.197  1.00  0.00     0.125 C 
BRANCH  26  27
HETATM   27  N2  UNL     1     -10.500  15.370   3.292  1.00  0.00    -0.359 N 
BRANCH  27  28
HETATM   28  C11 UNL     1     -11.010  15.221   4.582  1.00  0.00     0.350 C 
HETATM   29  O2  UNL     1     -11.585  16.145   5.189  1.00  0.00    -0.284 OA
ENDBRANCH  27  28
BRANCH  27  30
HETATM   30  C12 UNL     1     -11.224  15.414   2.059  1.00  0.00     0.131 C 
BRANCH  30  31
HETATM   31  C13 UNL     1     -11.565  14.095   1.453  1.00  0.00     0.079 C 
BRANCH  31  32
HETATM   32  C14 UNL     1     -12.932  13.556   1.772  1.00  0.00     0.160 C 
BRANCH  32  33
HETATM   33  N3  UNL     1     -12.993  12.825   2.975  1.00  0.00    -0.388 NA
HETATM   34  C15 UNL     1     -13.050  12.137   4.106  1.00  0.00     0.290 C 
HETATM   35  O3  UNL     1     -12.665  10.925   4.275  1.00  0.00    -0.257 OA
BRANCH  34  36
HETATM   36  C16 UNL     1     -13.619  12.757   5.408  1.00  0.00     0.122 C 
BRANCH  36  37
HETATM   37  C17 UNL     1     -14.910  13.438   5.084  1.00  0.00     0.054 C 
BRANCH  37  38
HETATM   38  C18 UNL     1     -14.780  14.896   4.800  1.00  0.00     0.283 C 
BRANCH  38  39
HETATM   39  N4  UNL     1     -14.376  15.539   6.075  1.00  0.00    -0.065 N 
ATOM     40  H43 UNL     1     -14.468  16.556   6.062  1.00  0.00     0.275 HD
ATOM     41  H42 UNL     1     -15.027  15.364   6.840  1.00  0.00     0.275 HD
ATOM     42  H41 UNL     1     -13.427  15.223   6.271  1.00  0.00     0.275 HD
ENDBRANCH  38  39
BRANCH  38  43
HETATM   43  C19 UNL     1     -16.027  15.502   4.361  1.00  0.00     0.204 C 
HETATM   44  O4  UNL     1     -16.379  16.620   4.851  1.00  0.00    -0.646 OA
HETATM   45  O5  UNL     1     -16.849  14.908   3.423  1.00  0.00    -0.646 OA
ENDBRANCH  38  43
ENDBRANCH  37  38
ENDBRANCH  36  37
ENDBRANCH  34  36
ENDBRANCH  32  33
ENDBRANCH  31  32
ENDBRANCH  30  31
ENDBRANCH  27  30
ENDBRANCH  26  27
ENDBRANCH  25  26
ENDBRANCH  24  25
ENDBRANCH  23  24
ENDBRANCH   6  23
BRANCH   1  46
HETATM   46  C3  UNL     1      -4.565  20.143  -1.719  1.00  0.00     0.006 C 
BRANCH  46  47
HETATM   47  C2  UNL     1      -3.179  19.791  -1.424  1.00  0.00     0.025 C 
HETATM   48  C1  UNL     1      -2.130  19.805  -2.474  1.00  0.00     0.009 C 
ENDBRANCH  46  47
ENDBRANCH   1  46
TORSDOF 17
ENDMDL
