MODEL 1
REMARK VINA RESULT: -8.873577117      0.000      0.000
REMARK  17 active torsions:
REMARK  status: ('A' for Active; 'I' for Inactive)
REMARK    1  A    between atoms: C2_2  and  C3_3 
REMARK    2  A    between atoms: C3_3  and  C4_4 
REMARK    3  A    between atoms: C4_4  and  C5_5 
REMARK    4  A    between atoms: C7_10  and  C8_11 
REMARK    5  A    between atoms: C8_11  and  C9_12 
REMARK    6  A    between atoms: C9_12  and  C10_13 
REMARK    7  A    between atoms: C10_13  and  C11_14 
REMARK    8  A    between atoms: C11_14  and  C12_15 
REMARK       I    between atoms: C12_15  and  N2_17 
REMARK    9  A    between atoms: N2_17  and  C14_19 
REMARK   10  A    between atoms: C14_19  and  C15_20 
REMARK   11  A    between atoms: C15_20  and  C16_21 
REMARK   12  A    between atoms: C20_26  and  C21_27 
REMARK   13  A    between atoms: C22_32  and  O6_33 
REMARK   14  A    between atoms: C23_35  and  C24_36 
REMARK   15  A    between atoms: C24_36  and  C25_37 
REMARK   16  A    between atoms: C25_37  and  C26_38 
REMARK   17  A    between atoms: C26_38  and  N4_39 
ROOT
HETATM    1  C5  UNL     1      -8.334  17.544   2.127  1.00  0.00     0.080 C 
HETATM    2  N1  UNL     1      -8.182  16.120   1.895  1.00  0.00    -0.326 N 
ATOM      3  H1  UNL     1      -7.670  15.596   2.605  1.00  0.00     0.168 HD
HETATM    4  C6  UNL     1      -8.659  15.390   0.811  1.00  0.00     0.228 C 
HETATM    5  O1  UNL     1      -8.174  14.237   0.585  1.00  0.00    -0.273 OA
HETATM    6  C7  UNL     1      -9.718  15.823  -0.160  1.00  0.00     0.111 C 
HETATM    7  C20 UNL     1      -9.271  15.513  -1.539  1.00  0.00     0.197 C 
HETATM    8  N3  UNL     1      -8.079  16.202  -1.981  1.00  0.00    -0.357 N 
ATOM      9  H3  UNL     1      -7.775  15.903  -2.908  1.00  0.00     0.162 HD
HETATM   10  C22 UNL     1      -7.262  17.163  -1.445  1.00  0.00     0.135 C 
HETATM   11  C23 UNL     1      -6.148  17.120  -0.483  1.00  0.00     0.159 C 
HETATM   12  N7  UNL     1      -6.286  18.038   0.631  1.00  0.00    -0.344 N 
ATOM     13  H7  UNL     1      -5.421  18.489   0.928  1.00  0.00     0.163 HD
HETATM   14  C28 UNL     1      -7.415  18.397   1.357  1.00  0.00     0.264 C 
HETATM   15  O7  UNL     1      -7.720  19.658   1.365  1.00  0.00    -0.266 OA
ENDROOT
BRANCH   6  16
HETATM   16  C8  UNL     1     -11.052  15.280   0.257  1.00  0.00     0.017 C 
BRANCH  16  17
HETATM   17  C9  UNL     1     -11.789  16.091   1.252  1.00  0.00     0.001 C 
BRANCH  17  18
HETATM   18  C10 UNL     1     -13.284  15.806   1.202  1.00  0.00     0.009 C 
BRANCH  18  19
HETATM   19  C11 UNL     1     -13.435  14.397   1.756  1.00  0.00     0.103 C 
BRANCH  19  20
HETATM   20  C12 UNL     1     -14.179  14.347   3.014  1.00  0.00     0.219 C 
HETATM   21  O2  UNL     1     -15.029  15.192   3.302  1.00  0.00    -0.273 OA
HETATM   22  N2  UNL     1     -13.876  13.251   3.923  1.00  0.00    -0.356 N 
HETATM   23  C13 UNL     1     -12.888  12.274   3.564  1.00  0.00     0.152 C 
BRANCH  22  24
HETATM   24  C14 UNL     1     -14.633  13.200   5.138  1.00  0.00     0.132 C 
BRANCH  24  25
HETATM   25  C15 UNL     1     -13.844  13.008   6.366  1.00  0.00     0.084 C 
BRANCH  25  26
HETATM   26  C16 UNL     1     -12.981  14.096   6.836  1.00  0.00     0.054 A 
HETATM   27  C17 UNL     1     -12.610  15.286   6.269  1.00  0.00     0.034 A 
HETATM   28  C18 UNL     1     -11.782  15.938   7.153  1.00  0.00     0.027 A 
HETATM   29  C19 UNL     1     -11.692  15.090   8.233  1.00  0.00     0.142 A 
HETATM   30  O3  UNL     1     -12.393  14.028   8.029  1.00  0.00    -0.327 OA
ENDBRANCH  25  26
ENDBRANCH  24  25
ENDBRANCH  22  24
ENDBRANCH  19  20
ENDBRANCH  18  19
ENDBRANCH  17  18
ENDBRANCH  16  17
ENDBRANCH   6  16
BRANCH   7  31
HETATM   31  C21 UNL     1     -10.280  15.821  -2.608  1.00  0.00     0.197 C 
HETATM   32  O4  UNL     1     -11.056  16.811  -2.550  1.00  0.00    -0.646 OA
HETATM   33  O5  UNL     1     -10.401  15.025  -3.715  1.00  0.00    -0.646 OA
ENDBRANCH   7  31
BRANCH   1  34
HETATM   34  C4  UNL     1      -8.556  17.881   3.557  1.00  0.00     0.063 C 
BRANCH  34  35
HETATM   35  C3  UNL     1      -8.924  16.830   4.509  1.00  0.00     0.006 C 
BRANCH  35  36
HETATM   36  C2  UNL     1      -8.278  16.854   5.859  1.00  0.00    -0.004 C 
HETATM   37  C1  UNL     1      -8.175  15.449   6.404  1.00  0.00     0.005 C 
ENDBRANCH  35  36
ENDBRANCH  34  35
ENDBRANCH   1  34
BRANCH  10  38
HETATM   38  O6  UNL     1      -7.492  18.393  -1.858  1.00  0.00    -0.348 OA
ATOM     39  H6  UNL     1      -7.192  19.081  -1.274  1.00  0.00     0.219 HD
ENDBRANCH  10  38
BRANCH  11  40
HETATM   40  C24 UNL     1      -4.829  17.474  -1.235  1.00  0.00     0.035 C 
BRANCH  40  41
HETATM   41  C25 UNL     1      -4.130  18.646  -0.611  1.00  0.00     0.022 C 
BRANCH  41  42
HETATM   42  C26 UNL     1      -3.472  19.570  -1.575  1.00  0.00     0.122 C 
BRANCH  42  43
HETATM   43  N4  UNL     1      -4.263  20.723  -1.816  1.00  0.00    -0.367 N 
HETATM   44  C27 UNL     1      -5.223  20.994  -2.556  1.00  0.00     0.196 C 
HETATM   45  N5  UNL     1      -5.914  20.182  -3.488  1.00  0.00    -0.067 NA
HETATM   46  N6  UNL     1      -5.732  22.354  -2.470  1.00  0.00    -0.067 NA
ATOM     47  H4  UNL     1      -3.974  21.519  -1.247  1.00  0.00     0.161 HD
ENDBRANCH  42  43
ENDBRANCH  41  42
ENDBRANCH  40  41
ENDBRANCH  11  40
TORSDOF 17
ENDMDL
MODEL 2
REMARK VINA RESULT: -8.774350050      2.513     10.135
REMARK  17 active torsions:
REMARK  status: ('A' for Active; 'I' for Inactive)
REMARK    1  A    between atoms: C2_2  and  C3_3 
REMARK    2  A    between atoms: C3_3  and  C4_4 
REMARK    3  A    between atoms: C4_4  and  C5_5 
REMARK    4  A    between atoms: C7_10  and  C8_11 
REMARK    5  A    between atoms: C8_11  and  C9_12 
REMARK    6  A    between atoms: C9_12  and  C10_13 
REMARK    7  A    between atoms: C10_13  and  C11_14 
REMARK    8  A    between atoms: C11_14  and  C12_15 
REMARK       I    between atoms: C12_15  and  N2_17 
REMARK    9  A    between atoms: N2_17  and  C14_19 
REMARK   10  A    between atoms: C14_19  and  C15_20 
REMARK   11  A    between atoms: C15_20  and  C16_21 
REMARK   12  A    between atoms: C20_26  and  C21_27 
REMARK   13  A    between atoms: C22_32  and  O6_33 
REMARK   14  A    between atoms: C23_35  and  C24_36 
REMARK   15  A    between atoms: C24_36  and  C25_37 
REMARK   16  A    between atoms: C25_37  and  C26_38 
REMARK   17  A    between atoms: C26_38  and  N4_39 
ROOT
HETATM    1  C5  UNL     1     -10.958  15.988   0.075  1.00  0.00     0.080 C 
HETATM    2  N1  UNL     1      -9.791  15.161   0.317  1.00  0.00    -0.326 N 
ATOM      3  H1  UNL     1      -9.574  14.462  -0.394  1.00  0.00     0.168 HD
HETATM    4  C6  UNL     1      -8.934  15.217   1.412  1.00  0.00     0.228 C 
HETATM    5  O1  UNL     1      -8.166  14.232   1.642  1.00  0.00    -0.273 OA
HETATM    6  C7  UNL     1      -8.808  16.349   2.388  1.00  0.00     0.111 C 
HETATM    7  C20 UNL     1      -8.771  15.801   3.766  1.00  0.00     0.197 C 
HETATM    8  N3  UNL     1      -9.959  15.093   4.191  1.00  0.00    -0.357 N 
ATOM      9  H3  UNL     1      -9.857  14.678   5.118  1.00  0.00     0.162 HD
HETATM   10  C22 UNL     1     -11.189  14.850   3.639  1.00  0.00     0.135 C 
HETATM   11  C23 UNL     1     -11.682  13.860   2.667  1.00  0.00     0.159 C 
HETATM   12  N7  UNL     1     -12.404  14.432   1.547  1.00  0.00    -0.344 N 
ATOM     13  H7  UNL     1     -13.216  13.897   1.238  1.00  0.00     0.163 HD
HETATM   14  C28 UNL     1     -12.159  15.597   0.829  1.00  0.00     0.264 C 
HETATM   15  O7  UNL     1     -13.112  16.477   0.813  1.00  0.00    -0.266 OA
ENDROOT
BRANCH   6  16
HETATM   16  C8  UNL     1      -7.679  17.251   1.989  1.00  0.00     0.017 C 
BRANCH  16  17
HETATM   17  C9  UNL     1      -8.039  18.357   1.073  1.00  0.00     0.001 C 
BRANCH  17  18
HETATM   18  C10 UNL     1      -6.946  19.416   1.025  1.00  0.00     0.009 C 
BRANCH  18  19
HETATM   19  C11 UNL     1      -5.765  18.732   0.352  1.00  0.00     0.103 C 
BRANCH  19  20
HETATM   20  C12 UNL     1      -5.318  19.413  -0.862  1.00  0.00     0.219 C 
HETATM   21  O2  UNL     1      -5.618  20.585  -1.100  1.00  0.00    -0.273 OA
HETATM   22  N2  UNL     1      -4.499  18.647  -1.790  1.00  0.00    -0.356 N 
HETATM   23  C13 UNL     1      -4.155  17.287  -1.490  1.00  0.00     0.152 C 
BRANCH  22  24
HETATM   24  C14 UNL     1      -4.045  19.337  -2.961  1.00  0.00     0.132 C 
BRANCH  24  25
HETATM   25  C15 UNL     1      -4.232  18.615  -4.231  1.00  0.00     0.084 C 
BRANCH  25  26
HETATM   26  C16 UNL     1      -5.592  18.377  -4.722  1.00  0.00     0.054 A 
HETATM   27  C17 UNL     1      -6.823  18.698  -4.214  1.00  0.00     0.034 A 
HETATM   28  C18 UNL     1      -7.777  18.239  -5.091  1.00  0.00     0.027 A 
HETATM   29  C19 UNL     1      -7.059  17.651  -6.107  1.00  0.00     0.142 A 
HETATM   30  O3  UNL     1      -5.796  17.740  -5.874  1.00  0.00    -0.327 OA
ENDBRANCH  25  26
ENDBRANCH  24  25
ENDBRANCH  22  24
ENDBRANCH  19  20
ENDBRANCH  18  19
ENDBRANCH  17  18
ENDBRANCH  16  17
ENDBRANCH   6  16
BRANCH   7  31
HETATM   31  C21 UNL     1      -8.562  16.827   4.843  1.00  0.00     0.197 C 
HETATM   32  O4  UNL     1      -9.042  17.990   4.780  1.00  0.00    -0.646 OA
HETATM   33  O5  UNL     1      -7.829  16.538   5.961  1.00  0.00    -0.646 OA
ENDBRANCH   7  31
BRANCH   1  34
HETATM   34  C4  UNL     1     -11.127  16.353  -1.355  1.00  0.00     0.063 C 
BRANCH  34  35
HETATM   35  C3  UNL     1     -10.045  16.100  -2.309  1.00  0.00     0.006 C 
BRANCH  35  36
HETATM   36  C2  UNL     1     -10.419  15.748  -3.715  1.00  0.00    -0.004 C 
HETATM   37  C1  UNL     1      -9.340  14.894  -4.336  1.00  0.00     0.005 C 
ENDBRANCH  35  36
ENDBRANCH  34  35
ENDBRANCH   1  34
BRANCH  10  38
HETATM   38  O6  UNL     1     -12.157  15.648   4.044  1.00  0.00    -0.348 OA
ATOM     39  H6  UNL     1     -12.449  16.290   3.407  1.00  0.00     0.219 HD
ENDBRANCH  10  38
BRANCH  11  40
HETATM   40  C24 UNL     1     -12.643  12.877   3.403  1.00  0.00     0.035 C 
BRANCH  40  41
HETATM   41  C25 UNL     1     -14.020  12.892   2.807  1.00  0.00     0.022 C 
BRANCH  41  42
HETATM   42  C26 UNL     1     -15.131  12.825   3.794  1.00  0.00     0.122 C 
BRANCH  42  43
HETATM   43  N4  UNL     1     -15.680  14.108   4.053  1.00  0.00    -0.367 N 
HETATM   44  C27 UNL     1     -15.404  15.044   4.820  1.00  0.00     0.196 C 
HETATM   45  N5  UNL     1     -14.367  15.166   5.777  1.00  0.00    -0.067 NA
HETATM   46  N6  UNL     1     -16.272  16.210   4.743  1.00  0.00    -0.067 NA
ATOM     47  H4  UNL     1     -16.494  14.307   3.472  1.00  0.00     0.161 HD
ENDBRANCH  42  43
ENDBRANCH  41  42
ENDBRANCH  40  41
ENDBRANCH  11  40
TORSDOF 17
ENDMDL
MODEL 3
REMARK VINA RESULT: -8.689166028      1.159      1.925
REMARK  17 active torsions:
REMARK  status: ('A' for Active; 'I' for Inactive)
REMARK    1  A    between atoms: C2_2  and  C3_3 
REMARK    2  A    between atoms: C3_3  and  C4_4 
REMARK    3  A    between atoms: C4_4  and  C5_5 
REMARK    4  A    between atoms: C7_10  and  C8_11 
REMARK    5  A    between atoms: C8_11  and  C9_12 
REMARK    6  A    between atoms: C9_12  and  C10_13 
REMARK    7  A    between atoms: C10_13  and  C11_14 
REMARK    8  A    between atoms: C11_14  and  C12_15 
REMARK       I    between atoms: C12_15  and  N2_17 
REMARK    9  A    between atoms: N2_17  and  C14_19 
REMARK   10  A    between atoms: C14_19  and  C15_20 
REMARK   11  A    between atoms: C15_20  and  C16_21 
REMARK   12  A    between atoms: C20_26  and  C21_27 
REMARK   13  A    between atoms: C22_32  and  O6_33 
REMARK   14  A    between atoms: C23_35  and  C24_36 
REMARK   15  A    between atoms: C24_36  and  C25_37 
REMARK   16  A    between atoms: C25_37  and  C26_38 
REMARK   17  A    between atoms: C26_38  and  N4_39 
ROOT
HETATM    1  C5  UNL     1      -8.299  17.586   2.075  1.00  0.00     0.080 C 
HETATM    2  N1  UNL     1      -8.167  16.159   1.852  1.00  0.00    -0.326 N 
ATOM      3  H1  UNL     1      -7.662  15.632   2.566  1.00  0.00     0.168 HD
HETATM    4  C6  UNL     1      -8.654  15.428   0.772  1.00  0.00     0.228 C 
HETATM    5  O1  UNL     1      -8.185  14.268   0.554  1.00  0.00    -0.273 OA
HETATM    6  C7  UNL     1      -9.707  15.870  -0.201  1.00  0.00     0.111 C 
HETATM    7  C20 UNL     1      -9.264  15.544  -1.578  1.00  0.00     0.197 C 
HETATM    8  N3  UNL     1      -8.063  16.214  -2.025  1.00  0.00    -0.357 N 
ATOM      9  H3  UNL     1      -7.763  15.905  -2.950  1.00  0.00     0.162 HD
HETATM   10  C22 UNL     1      -7.233  17.167  -1.494  1.00  0.00     0.135 C 
HETATM   11  C23 UNL     1      -6.119  17.114  -0.533  1.00  0.00     0.159 C 
HETATM   12  N7  UNL     1      -6.244  18.041   0.576  1.00  0.00    -0.344 N 
ATOM     13  H7  UNL     1      -5.372  18.482   0.870  1.00  0.00     0.163 HD
HETATM   14  C28 UNL     1      -7.368  18.421   1.299  1.00  0.00     0.264 C 
HETATM   15  O7  UNL     1      -7.655  19.686   1.299  1.00  0.00    -0.266 OA
ENDROOT
BRANCH   6  16
HETATM   16  C8  UNL     1     -11.049  15.348   0.220  1.00  0.00     0.017 C 
BRANCH  16  17
HETATM   17  C9  UNL     1     -11.818  16.225   1.130  1.00  0.00     0.001 C 
BRANCH  17  18
HETATM   18  C10 UNL     1     -13.298  15.866   1.127  1.00  0.00     0.009 C 
BRANCH  18  19
HETATM   19  C11 UNL     1     -13.388  14.563   1.907  1.00  0.00     0.103 C 
BRANCH  19  20
HETATM   20  C12 UNL     1     -14.075  14.704   3.191  1.00  0.00     0.219 C 
HETATM   21  O2  UNL     1     -15.296  14.857   3.263  1.00  0.00    -0.273 OA
HETATM   22  N2  UNL     1     -13.253  14.659   4.392  1.00  0.00    -0.356 N 
HETATM   23  C13 UNL     1     -11.834  14.473   4.284  1.00  0.00     0.152 C 
BRANCH  22  24
HETATM   24  C14 UNL     1     -13.943  14.770   5.642  1.00  0.00     0.132 C 
BRANCH  24  25
HETATM   25  C15 UNL     1     -14.075  13.518   6.404  1.00  0.00     0.084 C 
BRANCH  25  26
HETATM   26  C16 UNL     1     -14.563  12.316   5.721  1.00  0.00     0.054 A 
HETATM   27  C17 UNL     1     -13.939  11.161   5.332  1.00  0.00     0.034 A 
HETATM   28  C18 UNL     1     -14.875  10.353   4.731  1.00  0.00     0.027 A 
HETATM   29  C19 UNL     1     -16.044  11.078   4.787  1.00  0.00     0.142 A 
HETATM   30  O3  UNL     1     -15.842  12.212   5.363  1.00  0.00    -0.327 OA
ENDBRANCH  25  26
ENDBRANCH  24  25
ENDBRANCH  22  24
ENDBRANCH  19  20
ENDBRANCH  18  19
ENDBRANCH  17  18
ENDBRANCH  16  17
ENDBRANCH   6  16
BRANCH   7  31
HETATM   31  C21 UNL     1     -10.269  15.860  -2.649  1.00  0.00     0.197 C 
HETATM   32  O4  UNL     1     -11.031  16.861  -2.598  1.00  0.00    -0.646 OA
HETATM   33  O5  UNL     1     -10.401  15.058  -3.751  1.00  0.00    -0.646 OA
ENDBRANCH   7  31
BRANCH   1  34
HETATM   34  C4  UNL     1      -8.516  17.936   3.502  1.00  0.00     0.063 C 
BRANCH  34  35
HETATM   35  C3  UNL     1      -8.926  16.902   4.456  1.00  0.00     0.006 C 
BRANCH  35  36
HETATM   36  C2  UNL     1      -8.422  17.007   5.861  1.00  0.00    -0.004 C 
HETATM   37  C1  UNL     1      -8.122  15.631   6.405  1.00  0.00     0.005 C 
ENDBRANCH  35  36
ENDBRANCH  34  35
ENDBRANCH   1  34
BRANCH  10  38
HETATM   38  O6  UNL     1      -7.445  18.398  -1.915  1.00  0.00    -0.348 OA
ATOM     39  H6  UNL     1      -6.992  19.078  -1.429  1.00  0.00     0.219 HD
ENDBRANCH  10  38
BRANCH  11  40
HETATM   40  C24 UNL     1      -4.795  17.445  -1.287  1.00  0.00     0.035 C 
BRANCH  40  41
HETATM   41  C25 UNL     1      -4.084  18.617  -0.676  1.00  0.00     0.022 C 
BRANCH  41  42
HETATM   42  C26 UNL     1      -3.455  19.546  -1.652  1.00  0.00     0.122 C 
BRANCH  42  43
HETATM   43  N4  UNL     1      -4.257  20.696  -1.874  1.00  0.00    -0.367 N 
HETATM   44  C27 UNL     1      -5.228  20.966  -2.599  1.00  0.00     0.196 C 
HETATM   45  N5  UNL     1      -5.924  20.156  -3.531  1.00  0.00    -0.067 NA
HETATM   46  N6  UNL     1      -5.747  22.321  -2.494  1.00  0.00    -0.067 NA
ATOM     47  H4  UNL     1      -3.967  21.488  -1.301  1.00  0.00     0.161 HD
ENDBRANCH  42  43
ENDBRANCH  41  42
ENDBRANCH  40  41
ENDBRANCH  11  40
TORSDOF 17
ENDMDL
MODEL 4
REMARK VINA RESULT: -8.635747969      2.499     10.271
REMARK  17 active torsions:
REMARK  status: ('A' for Active; 'I' for Inactive)
REMARK    1  A    between atoms: C2_2  and  C3_3 
REMARK    2  A    between atoms: C3_3  and  C4_4 
REMARK    3  A    between atoms: C4_4  and  C5_5 
REMARK    4  A    between atoms: C7_10  and  C8_11 
REMARK    5  A    between atoms: C8_11  and  C9_12 
REMARK    6  A    between atoms: C9_12  and  C10_13 
REMARK    7  A    between atoms: C10_13  and  C11_14 
REMARK    8  A    between atoms: C11_14  and  C12_15 
REMARK       I    between atoms: C12_15  and  N2_17 
REMARK    9  A    between atoms: N2_17  and  C14_19 
REMARK   10  A    between atoms: C14_19  and  C15_20 
REMARK   11  A    between atoms: C15_20  and  C16_21 
REMARK   12  A    between atoms: C20_26  and  C21_27 
REMARK   13  A    between atoms: C22_32  and  O6_33 
REMARK   14  A    between atoms: C23_35  and  C24_36 
REMARK   15  A    between atoms: C24_36  and  C25_37 
REMARK   16  A    between atoms: C25_37  and  C26_38 
REMARK   17  A    between atoms: C26_38  and  N4_39 
ROOT
HETATM    1  C5  UNL     1     -11.018  16.022   0.107  1.00  0.00     0.080 C 
HETATM    2  N1  UNL     1      -9.867  15.168   0.330  1.00  0.00    -0.326 N 
ATOM      3  H1  UNL     1      -9.665  14.481  -0.396  1.00  0.00     0.168 HD
HETATM    4  C6  UNL     1      -9.010  15.182   1.426  1.00  0.00     0.228 C 
HETATM    5  O1  UNL     1      -8.261  14.177   1.634  1.00  0.00    -0.273 OA
HETATM    6  C7  UNL     1      -8.861  16.289   2.428  1.00  0.00     0.111 C 
HETATM    7  C20 UNL     1      -8.835  15.709   3.793  1.00  0.00     0.197 C 
HETATM    8  N3  UNL     1     -10.036  15.016   4.202  1.00  0.00    -0.357 N 
ATOM      9  H3  UNL     1      -9.942  14.578   5.119  1.00  0.00     0.162 HD
HETATM   10  C22 UNL     1     -11.271  14.810   3.645  1.00  0.00     0.135 C 
HETATM   11  C23 UNL     1     -11.784  13.852   2.652  1.00  0.00     0.159 C 
HETATM   12  N7  UNL     1     -12.494  14.463   1.545  1.00  0.00    -0.344 N 
ATOM     13  H7  UNL     1     -13.316  13.951   1.224  1.00  0.00     0.163 HD
HETATM   14  C28 UNL     1     -12.226  15.638   0.854  1.00  0.00     0.264 C 
HETATM   15  O7  UNL     1     -13.162  16.537   0.858  1.00  0.00    -0.266 OA
ENDROOT
BRANCH   6  16
HETATM   16  C8  UNL     1      -7.715  17.178   2.048  1.00  0.00     0.017 C 
BRANCH  16  17
HETATM   17  C9  UNL     1      -8.011  18.195   1.014  1.00  0.00     0.001 C 
BRANCH  17  18
HETATM   18  C10 UNL     1      -6.984  19.319   1.032  1.00  0.00     0.009 C 
BRANCH  18  19
HETATM   19  C11 UNL     1      -5.739  18.725   0.389  1.00  0.00     0.103 C 
BRANCH  19  20
HETATM   20  C12 UNL     1      -5.337  19.415  -0.836  1.00  0.00     0.219 C 
HETATM   21  O2  UNL     1      -5.673  20.578  -1.069  1.00  0.00    -0.273 OA
HETATM   22  N2  UNL     1      -4.516  18.669  -1.779  1.00  0.00    -0.356 N 
HETATM   23  C13 UNL     1      -4.129  17.320  -1.483  1.00  0.00     0.152 C 
BRANCH  22  24
HETATM   24  C14 UNL     1      -4.106  19.368  -2.961  1.00  0.00     0.132 C 
BRANCH  24  25
HETATM   25  C15 UNL     1      -4.287  18.632  -4.223  1.00  0.00     0.084 C 
BRANCH  25  26
HETATM   26  C16 UNL     1      -5.645  18.391  -4.719  1.00  0.00     0.054 A 
HETATM   27  C17 UNL     1      -6.878  18.580  -4.153  1.00  0.00     0.034 A 
HETATM   28  C18 UNL     1      -7.829  18.190  -5.067  1.00  0.00     0.027 A 
HETATM   29  C19 UNL     1      -7.107  17.775  -6.162  1.00  0.00     0.142 A 
HETATM   30  O3  UNL     1      -5.844  17.898  -5.940  1.00  0.00    -0.327 OA
ENDBRANCH  25  26
ENDBRANCH  24  25
ENDBRANCH  22  24
ENDBRANCH  19  20
ENDBRANCH  18  19
ENDBRANCH  17  18
ENDBRANCH  16  17
ENDBRANCH   6  16
BRANCH   7  31
HETATM   31  C21 UNL     1      -8.606  16.707   4.892  1.00  0.00     0.197 C 
HETATM   32  O4  UNL     1      -9.070  17.878   4.860  1.00  0.00    -0.646 OA
HETATM   33  O5  UNL     1      -7.871  16.381   5.999  1.00  0.00    -0.646 OA
ENDBRANCH   7  31
BRANCH   1  34
HETATM   34  C4  UNL     1     -11.180  16.423  -1.314  1.00  0.00     0.063 C 
BRANCH  34  35
HETATM   35  C3  UNL     1     -10.092  16.196  -2.268  1.00  0.00     0.006 C 
BRANCH  35  36
HETATM   36  C2  UNL     1     -10.458  15.861  -3.679  1.00  0.00    -0.004 C 
HETATM   37  C1  UNL     1      -9.430  14.925  -4.269  1.00  0.00     0.005 C 
ENDBRANCH  35  36
ENDBRANCH  34  35
ENDBRANCH   1  34
BRANCH  10  38
HETATM   38  O6  UNL     1     -12.224  15.617   4.069  1.00  0.00    -0.348 OA
ATOM     39  H6  UNL     1     -13.015  15.187   4.374  1.00  0.00     0.219 HD
ENDBRANCH  10  38
BRANCH  11  40
HETATM   40  C24 UNL     1     -12.764  12.871   3.366  1.00  0.00     0.035 C 
BRANCH  40  41
HETATM   41  C25 UNL     1     -14.196  13.272   3.168  1.00  0.00     0.022 C 
BRANCH  41  42
HETATM   42  C26 UNL     1     -14.962  13.499   4.423  1.00  0.00     0.122 C 
BRANCH  42  43
HETATM   43  N4  UNL     1     -14.102  13.722   5.529  1.00  0.00    -0.367 N 
HETATM   44  C27 UNL     1     -14.024  13.283   6.688  1.00  0.00     0.196 C 
HETATM   45  N5  UNL     1     -14.833  12.333   7.359  1.00  0.00    -0.067 NA
HETATM   46  N6  UNL     1     -12.943  13.815   7.503  1.00  0.00    -0.067 NA
ATOM     47  H4  UNL     1     -13.374  14.407   5.323  1.00  0.00     0.161 HD
ENDBRANCH  42  43
ENDBRANCH  41  42
ENDBRANCH  40  41
ENDBRANCH  11  40
TORSDOF 17
ENDMDL
MODEL 5
REMARK VINA RESULT: -8.563538434      0.840      1.080
REMARK  17 active torsions:
REMARK  status: ('A' for Active; 'I' for Inactive)
REMARK    1  A    between atoms: C2_2  and  C3_3 
REMARK    2  A    between atoms: C3_3  and  C4_4 
REMARK    3  A    between atoms: C4_4  and  C5_5 
REMARK    4  A    between atoms: C7_10  and  C8_11 
REMARK    5  A    between atoms: C8_11  and  C9_12 
REMARK    6  A    between atoms: C9_12  and  C10_13 
REMARK    7  A    between atoms: C10_13  and  C11_14 
REMARK    8  A    between atoms: C11_14  and  C12_15 
REMARK       I    between atoms: C12_15  and  N2_17 
REMARK    9  A    between atoms: N2_17  and  C14_19 
REMARK   10  A    between atoms: C14_19  and  C15_20 
REMARK   11  A    between atoms: C15_20  and  C16_21 
REMARK   12  A    between atoms: C20_26  and  C21_27 
REMARK   13  A    between atoms: C22_32  and  O6_33 
REMARK   14  A    between atoms: C23_35  and  C24_36 
REMARK   15  A    between atoms: C24_36  and  C25_37 
REMARK   16  A    between atoms: C25_37  and  C26_38 
REMARK   17  A    between atoms: C26_38  and  N4_39 
ROOT
HETATM    1  C5  UNL     1      -8.421  17.619   2.142  1.00  0.00     0.080 C 
HETATM    2  N1  UNL     1      -8.247  16.191   1.954  1.00  0.00    -0.326 N 
ATOM      3  H1  UNL     1      -7.767  15.690   2.701  1.00  0.00     0.168 HD
HETATM    4  C6  UNL     1      -8.662  15.430   0.865  1.00  0.00     0.228 C 
HETATM    5  O1  UNL     1      -8.158  14.277   0.693  1.00  0.00    -0.273 OA
HETATM    6  C7  UNL     1      -9.675  15.830  -0.167  1.00  0.00     0.111 C 
HETATM    7  C20 UNL     1      -9.156  15.490  -1.514  1.00  0.00     0.197 C 
HETATM    8  N3  UNL     1      -7.949  16.178  -1.914  1.00  0.00    -0.357 N 
ATOM      9  H3  UNL     1      -7.596  15.860  -2.816  1.00  0.00     0.162 HD
HETATM   10  C22 UNL     1      -7.168  17.159  -1.361  1.00  0.00     0.135 C 
HETATM   11  C23 UNL     1      -6.103  17.150  -0.344  1.00  0.00     0.159 C 
HETATM   12  N7  UNL     1      -6.304  18.094   0.739  1.00  0.00    -0.344 N 
ATOM     13  H7  UNL     1      -5.458  18.560   1.067  1.00  0.00     0.163 HD
HETATM   14  C28 UNL     1      -7.472  18.461   1.397  1.00  0.00     0.264 C 
HETATM   15  O7  UNL     1      -7.786  19.719   1.359  1.00  0.00    -0.266 OA
ENDROOT
BRANCH   6  16
HETATM   16  C8  UNL     1     -11.024  15.285   0.196  1.00  0.00     0.017 C 
BRANCH  16  17
HETATM   17  C9  UNL     1     -11.760  16.042   1.232  1.00  0.00     0.001 C 
BRANCH  17  18
HETATM   18  C10 UNL     1     -13.248  15.716   1.205  1.00  0.00     0.009 C 
BRANCH  18  19
HETATM   19  C11 UNL     1     -13.357  14.327   1.815  1.00  0.00     0.103 C 
BRANCH  19  20
HETATM   20  C12 UNL     1     -14.169  14.292   3.031  1.00  0.00     0.219 C 
HETATM   21  O2  UNL     1     -15.004  15.163   3.282  1.00  0.00    -0.273 OA
HETATM   22  N2  UNL     1     -13.951  13.178   3.943  1.00  0.00    -0.356 N 
HETATM   23  C13 UNL     1     -12.979  12.171   3.627  1.00  0.00     0.152 C 
BRANCH  22  24
HETATM   24  C14 UNL     1     -14.773  13.143   5.116  1.00  0.00     0.132 C 
BRANCH  24  25
HETATM   25  C15 UNL     1     -14.052  12.973   6.388  1.00  0.00     0.084 C 
BRANCH  25  26
HETATM   26  C16 UNL     1     -13.137  14.027   6.834  1.00  0.00     0.054 A 
HETATM   27  C17 UNL     1     -12.822  15.254   6.313  1.00  0.00     0.034 A 
HETATM   28  C18 UNL     1     -11.899  15.845   7.144  1.00  0.00     0.027 A 
HETATM   29  C19 UNL     1     -11.698  14.925   8.148  1.00  0.00     0.142 A 
HETATM   30  O3  UNL     1     -12.423  13.879   7.949  1.00  0.00    -0.327 OA
ENDBRANCH  25  26
ENDBRANCH  24  25
ENDBRANCH  22  24
ENDBRANCH  19  20
ENDBRANCH  18  19
ENDBRANCH  17  18
ENDBRANCH  16  17
ENDBRANCH   6  16
BRANCH   7  31
HETATM   31  C21 UNL     1     -10.112  15.762  -2.641  1.00  0.00     0.197 C 
HETATM   32  O4  UNL     1     -10.917  16.731  -2.634  1.00  0.00    -0.646 OA
HETATM   33  O5  UNL     1     -10.150  14.956  -3.746  1.00  0.00    -0.646 OA
ENDBRANCH   7  31
BRANCH   1  34
HETATM   34  C4  UNL     1      -8.718  17.989   3.550  1.00  0.00     0.063 C 
BRANCH  34  35
HETATM   35  C3  UNL     1      -9.093  16.954   4.516  1.00  0.00     0.006 C 
BRANCH  35  36
HETATM   36  C2  UNL     1      -8.473  17.012   5.877  1.00  0.00    -0.004 C 
HETATM   37  C1  UNL     1      -8.128  15.618   6.345  1.00  0.00     0.005 C 
ENDBRANCH  35  36
ENDBRANCH  34  35
ENDBRANCH   1  34
BRANCH  10  38
HETATM   38  O6  UNL     1      -7.386  18.377  -1.816  1.00  0.00    -0.348 OA
ATOM     39  H6  UNL     1      -8.182  18.792  -1.503  1.00  0.00     0.219 HD
ENDBRANCH  10  38
BRANCH  11  40
HETATM   40  C24 UNL     1      -4.750  17.498  -1.037  1.00  0.00     0.035 C 
BRANCH  40  41
HETATM   41  C25 UNL     1      -4.343  18.919  -0.782  1.00  0.00     0.022 C 
BRANCH  41  42
HETATM   42  C26 UNL     1      -4.163  19.749  -2.004  1.00  0.00     0.122 C 
BRANCH  42  43
HETATM   43  N4  UNL     1      -4.763  19.145  -3.140  1.00  0.00    -0.367 N 
HETATM   44  C27 UNL     1      -4.406  18.913  -4.306  1.00  0.00     0.196 C 
HETATM   45  N5  UNL     1      -3.179  19.192  -4.957  1.00  0.00    -0.067 NA
HETATM   46  N6  UNL     1      -5.386  18.253  -5.155  1.00  0.00    -0.067 NA
ATOM     47  H4  UNL     1      -5.715  18.828  -2.954  1.00  0.00     0.161 HD
ENDBRANCH  42  43
ENDBRANCH  41  42
ENDBRANCH  40  41
ENDBRANCH  11  40
TORSDOF 17
ENDMDL
