MODEL 1
REMARK VINA RESULT: -8.331720326      0.000      0.000
REMARK  17 active torsions:
REMARK  status: ('A' for Active; 'I' for Inactive)
REMARK    1  A    between atoms: N1_2  and  C2_3 
REMARK       I    between atoms: N1_2  and  C9_14 
REMARK    2  A    between atoms: C2_3  and  C3_4 
REMARK    3  A    between atoms: C3_4  and  C4_5 
REMARK    4  A    between atoms: C4_5  and  C5_6 
REMARK    5  A    between atoms: C5_6  and  C6_7 
REMARK    6  A    between atoms: C6_7  and  C7_8 
REMARK    7  A    between atoms: C7_8  and  C8_9 
REMARK    8  A    between atoms: C8_9  and  N2_10 
REMARK    9  A    between atoms: C9_14  and  C10_16 
REMARK   10  A    between atoms: C10_16  and  C11_17 
REMARK   11  A    between atoms: C10_16  and  N6_26 
REMARK   12  A    between atoms: C11_17  and  C12_18 
REMARK   13  A    between atoms: C12_18  and  C13_19 
REMARK   14  A    between atoms: C13_19  and  C14_20 
REMARK   15  A    between atoms: C14_20  and  N3_21 
REMARK   16  A    between atoms: N6_26  and  S1_28 
REMARK   17  A    between atoms: S1_28  and  C16_31 
ROOT
HETATM    1  C10 UNL     1      -8.544  17.130   1.497  1.00  0.00     0.185 C 
ENDROOT
BRANCH   1   2
HETATM    2  C9  UNL     1      -9.446  17.562   0.408  1.00  0.00     0.242 C 
HETATM    3  N1  UNL     1      -9.652  16.905  -0.815  1.00  0.00    -0.355 N 
HETATM    4  C1  UNL     1     -10.568  17.523  -1.787  1.00  0.00     0.152 C 
HETATM    5  O1  UNL     1     -10.102  18.647   0.616  1.00  0.00    -0.271 OA
BRANCH   3   6
HETATM    6  C2  UNL     1      -9.069  15.645  -1.208  1.00  0.00     0.125 C 
BRANCH   6   7
HETATM    7  C3  UNL     1      -8.551  15.734  -2.630  1.00  0.00     0.020 C 
BRANCH   7   8
HETATM    8  C4  UNL     1      -9.504  14.959  -3.576  1.00  0.00     0.002 C 
BRANCH   8   9
HETATM    9  C5  UNL     1      -9.178  15.439  -4.948  1.00  0.00     0.000 C 
BRANCH   9  10
HETATM   10  C6  UNL     1      -9.471  16.813  -5.339  1.00  0.00     0.002 C 
BRANCH  10  11
HETATM   11  C7  UNL     1      -8.474  17.716  -5.935  1.00  0.00     0.027 C 
BRANCH  11  12
HETATM   12  C8  UNL     1      -7.502  18.357  -5.028  1.00  0.00     0.229 C 
BRANCH  12  13
HETATM   13  N2  UNL     1      -6.226  17.674  -5.128  1.00  0.00    -0.079 N 
ATOM     14  H23 UNL     1      -5.977  17.194  -4.263  1.00  0.00     0.274 HD
ATOM     15  H22 UNL     1      -6.271  16.859  -5.739  1.00  0.00     0.274 HD
ATOM     16  H21 UNL     1      -5.508  18.336  -5.421  1.00  0.00     0.274 HD
ENDBRANCH  12  13
ENDBRANCH  11  12
ENDBRANCH  10  11
ENDBRANCH   9  10
ENDBRANCH   8   9
ENDBRANCH   7   8
ENDBRANCH   6   7
ENDBRANCH   3   6
ENDBRANCH   1   2
BRANCH   1  17
HETATM   17  C11 UNL     1      -7.227  17.911   1.401  1.00  0.00     0.035 C 
BRANCH  17  18
HETATM   18  C12 UNL     1      -6.180  17.234   0.599  1.00  0.00     0.004 C 
BRANCH  18  19
HETATM   19  C13 UNL     1      -5.346  18.262  -0.114  1.00  0.00     0.020 C 
BRANCH  19  20
HETATM   20  C14 UNL     1      -5.750  18.461  -1.556  1.00  0.00     0.122 C 
BRANCH  20  21
HETATM   21  N3  UNL     1      -5.956  19.878  -1.770  1.00  0.00    -0.367 N 
HETATM   22  C15 UNL     1      -5.356  20.504  -2.710  1.00  0.00     0.196 C 
HETATM   23  N4  UNL     1      -4.454  19.841  -3.593  1.00  0.00    -0.067 NA
HETATM   24  N5  UNL     1      -5.564  21.889  -2.911  1.00  0.00    -0.067 NA
ATOM     25  H3  UNL     1      -6.592  20.388  -1.158  1.00  0.00     0.161 HD
ENDBRANCH  20  21
ENDBRANCH  19  20
ENDBRANCH  18  19
ENDBRANCH  17  18
ENDBRANCH   1  17
BRANCH   1  26
HETATM   26  N6  UNL     1      -9.083  17.582   2.805  1.00  0.00    -0.302 N 
ATOM     27  H6  UNL     1      -8.908  18.500   3.213  1.00  0.00     0.173 HD
BRANCH  26  28
HETATM   28  S1  UNL     1     -10.037  16.362   3.542  1.00  0.00     0.260 S 
HETATM   29  O2  UNL     1     -11.450  16.505   2.972  1.00  0.00    -0.200 OA
HETATM   30  O3  UNL     1      -9.618  14.981   3.104  1.00  0.00    -0.200 OA
BRANCH  28  31
HETATM   31  C16 UNL     1     -10.052  16.559   5.249  1.00  0.00     0.091 A 
HETATM   32  C17 UNL     1      -9.061  17.389   5.794  1.00  0.00     0.026 A 
HETATM   33  C18 UNL     1      -8.950  17.594   7.142  1.00  0.00     0.004 A 
HETATM   34  C19 UNL     1      -9.844  16.961   7.961  1.00  0.00     0.037 A 
HETATM   35  C20 UNL     1     -10.810  16.153   7.428  1.00  0.00     0.079 A 
HETATM   36  C21 UNL     1     -10.950  15.921   6.046  1.00  0.00     0.029 A 
HETATM   37  O5  UNL     1     -11.791  15.441   8.121  1.00  0.00    -0.348 OA
HETATM   38  C22 UNL     1     -12.097  15.069   5.890  1.00  0.00     0.089 C 
HETATM   39  C23 UNL     1     -13.361  15.904   5.763  1.00  0.00     0.058 C 
HETATM   40  N8  UNL     1     -12.063  13.971   4.997  1.00  0.00    -0.327 N 
HETATM   41  C26 UNL     1     -12.226  14.411   7.293  1.00  0.00     0.212 C 
HETATM   42  C24 UNL     1     -14.587  15.088   5.546  1.00  0.00     0.127 C 
HETATM   43  N7  UNL     1     -14.441  14.240   4.380  1.00  0.00    -0.343 N 
HETATM   44  C25 UNL     1     -13.123  13.779   4.069  1.00  0.00     0.317 C 
ATOM     45  H7  UNL     1     -15.244  13.982   3.806  1.00  0.00     0.164 HD
HETATM   46  O4  UNL     1     -12.961  13.211   2.962  1.00  0.00    -0.247 OA
ATOM     47  H8  UNL     1     -11.280  13.318   5.020  1.00  0.00     0.165 HD
ENDBRANCH  28  31
ENDBRANCH  26  28
ENDBRANCH   1  26
TORSDOF 17
ENDMDL
MODEL 2
REMARK VINA RESULT: -8.164644196      2.398     10.490
REMARK  17 active torsions:
REMARK  status: ('A' for Active; 'I' for Inactive)
REMARK    1  A    between atoms: N1_2  and  C2_3 
REMARK       I    between atoms: N1_2  and  C9_14 
REMARK    2  A    between atoms: C2_3  and  C3_4 
REMARK    3  A    between atoms: C3_4  and  C4_5 
REMARK    4  A    between atoms: C4_5  and  C5_6 
REMARK    5  A    between atoms: C5_6  and  C6_7 
REMARK    6  A    between atoms: C6_7  and  C7_8 
REMARK    7  A    between atoms: C7_8  and  C8_9 
REMARK    8  A    between atoms: C8_9  and  N2_10 
REMARK    9  A    between atoms: C9_14  and  C10_16 
REMARK   10  A    between atoms: C10_16  and  C11_17 
REMARK   11  A    between atoms: C10_16  and  N6_26 
REMARK   12  A    between atoms: C11_17  and  C12_18 
REMARK   13  A    between atoms: C12_18  and  C13_19 
REMARK   14  A    between atoms: C13_19  and  C14_20 
REMARK   15  A    between atoms: C14_20  and  N3_21 
REMARK   16  A    between atoms: N6_26  and  S1_28 
REMARK   17  A    between atoms: S1_28  and  C16_31 
ROOT
HETATM    1  C10 UNL     1     -10.319  15.966   0.515  1.00  0.00     0.185 C 
ENDROOT
BRANCH   1   2
HETATM    2  C9  UNL     1     -10.382  16.943   1.623  1.00  0.00     0.242 C 
HETATM    3  N1  UNL     1      -9.796  16.803   2.891  1.00  0.00    -0.355 N 
HETATM    4  C1  UNL     1     -10.009  17.878   3.873  1.00  0.00     0.152 C 
HETATM    5  O1  UNL     1     -11.038  18.021   1.388  1.00  0.00    -0.271 OA
BRANCH   3   6
HETATM    6  C2  UNL     1      -8.965  15.706   3.325  1.00  0.00     0.125 C 
BRANCH   6   7
HETATM    7  C3  UNL     1      -9.362  15.275   4.723  1.00  0.00     0.020 C 
BRANCH   7   8
HETATM    8  C4  UNL     1      -8.217  15.615   5.712  1.00  0.00     0.002 C 
BRANCH   8   9
HETATM    9  C5  UNL     1      -8.834  15.556   7.067  1.00  0.00     0.000 C 
BRANCH   9  10
HETATM   10  C6  UNL     1      -9.702  16.633   7.532  1.00  0.00     0.002 C 
BRANCH  10  11
HETATM   11  C7  UNL     1     -10.900  16.409   8.355  1.00  0.00     0.027 C 
BRANCH  11  12
HETATM   12  C8  UNL     1     -11.756  15.255   8.021  1.00  0.00     0.229 C 
BRANCH  12  13
HETATM   13  N2  UNL     1     -12.684  15.629   6.970  1.00  0.00    -0.079 N 
ATOM     14  H23 UNL     1     -13.490  16.139   7.332  1.00  0.00     0.274 HD
ATOM     15  H22 UNL     1     -12.309  16.360   6.367  1.00  0.00     0.274 HD
ATOM     16  H21 UNL     1     -12.957  14.798   6.446  1.00  0.00     0.274 HD
ENDBRANCH  12  13
ENDBRANCH  11  12
ENDBRANCH  10  11
ENDBRANCH   9  10
ENDBRANCH   8   9
ENDBRANCH   7   8
ENDBRANCH   6   7
ENDBRANCH   3   6
ENDBRANCH   1   2
BRANCH   1  17
HETATM   17  C11 UNL     1     -11.600  15.120   0.515  1.00  0.00     0.035 C 
BRANCH  17  18
HETATM   18  C12 UNL     1     -11.599  14.025   1.514  1.00  0.00     0.004 C 
BRANCH  18  19
HETATM   19  C13 UNL     1     -12.988  13.844   2.065  1.00  0.00     0.020 C 
BRANCH  19  20
HETATM   20  C14 UNL     1     -13.138  14.349   3.480  1.00  0.00     0.122 C 
BRANCH  20  21
HETATM   21  N3  UNL     1     -14.337  15.158   3.540  1.00  0.00    -0.367 N 
HETATM   22  C15 UNL     1     -15.169  15.046   4.504  1.00  0.00     0.196 C 
HETATM   23  N4  UNL     1     -14.960  14.119   5.568  1.00  0.00    -0.067 NA
HETATM   24  N5  UNL     1     -16.339  15.841   4.553  1.00  0.00    -0.067 NA
ATOM     25  H3  UNL     1     -14.523  15.831   2.796  1.00  0.00     0.161 HD
ENDBRANCH  20  21
ENDBRANCH  19  20
ENDBRANCH  18  19
ENDBRANCH  17  18
ENDBRANCH   1  17
BRANCH   1  26
HETATM   26  N6  UNL     1     -10.412  16.676  -0.787  1.00  0.00    -0.302 N 
ATOM     27  H6  UNL     1     -11.288  16.961  -1.225  1.00  0.00     0.173 HD
BRANCH  26  28
HETATM   28  S1  UNL     1      -8.859  16.957  -1.457  1.00  0.00     0.260 S 
HETATM   29  O2  UNL     1      -8.361  18.281  -0.873  1.00  0.00    -0.200 OA
HETATM   30  O3  UNL     1      -7.846  15.952  -0.966  1.00  0.00    -0.200 OA
BRANCH  28  31
HETATM   31  C16 UNL     1      -8.951  17.047  -3.171  1.00  0.00     0.091 A 
HETATM   32  C17 UNL     1     -10.110  16.529  -3.766  1.00  0.00     0.026 A 
HETATM   33  C18 UNL     1     -10.281  16.514  -5.122  1.00  0.00     0.004 A 
HETATM   34  C19 UNL     1      -9.279  17.025  -5.900  1.00  0.00     0.037 A 
HETATM   35  C20 UNL     1      -8.149  17.531  -5.317  1.00  0.00     0.079 A 
HETATM   36  C21 UNL     1      -7.943  17.561  -3.925  1.00  0.00     0.029 A 
HETATM   37  O5  UNL     1      -7.043  18.086  -5.964  1.00  0.00    -0.348 OA
HETATM   38  C22 UNL     1      -6.676  18.206  -3.715  1.00  0.00     0.089 C 
HETATM   39  C23 UNL     1      -6.863  19.711  -3.605  1.00  0.00     0.058 C 
HETATM   40  N8  UNL     1      -5.751  17.691  -2.776  1.00  0.00    -0.327 N 
HETATM   41  C26 UNL     1      -5.966  18.019  -5.086  1.00  0.00     0.212 C 
HETATM   42  C24 UNL     1      -5.596  20.445  -3.335  1.00  0.00     0.127 C 
HETATM   43  N7  UNL     1      -4.956  19.942  -2.136  1.00  0.00    -0.343 N 
HETATM   44  C25 UNL     1      -5.148  18.558  -1.824  1.00  0.00     0.317 C 
ATOM     45  H7  UNL     1      -4.393  20.548  -1.539  1.00  0.00     0.164 HD
HETATM   46  O4  UNL     1      -4.763  18.166  -0.697  1.00  0.00    -0.247 OA
ATOM     47  H8  UNL     1      -5.517  16.698  -2.782  1.00  0.00     0.165 HD
ENDBRANCH  28  31
ENDBRANCH  26  28
ENDBRANCH   1  26
TORSDOF 17
ENDMDL
MODEL 3
REMARK VINA RESULT: -7.983171561      1.365      3.599
REMARK  17 active torsions:
REMARK  status: ('A' for Active; 'I' for Inactive)
REMARK    1  A    between atoms: N1_2  and  C2_3 
REMARK       I    between atoms: N1_2  and  C9_14 
REMARK    2  A    between atoms: C2_3  and  C3_4 
REMARK    3  A    between atoms: C3_4  and  C4_5 
REMARK    4  A    between atoms: C4_5  and  C5_6 
REMARK    5  A    between atoms: C5_6  and  C6_7 
REMARK    6  A    between atoms: C6_7  and  C7_8 
REMARK    7  A    between atoms: C7_8  and  C8_9 
REMARK    8  A    between atoms: C8_9  and  N2_10 
REMARK    9  A    between atoms: C9_14  and  C10_16 
REMARK   10  A    between atoms: C10_16  and  C11_17 
REMARK   11  A    between atoms: C10_16  and  N6_26 
REMARK   12  A    between atoms: C11_17  and  C12_18 
REMARK   13  A    between atoms: C12_18  and  C13_19 
REMARK   14  A    between atoms: C13_19  and  C14_20 
REMARK   15  A    between atoms: C14_20  and  N3_21 
REMARK   16  A    between atoms: N6_26  and  S1_28 
REMARK   17  A    between atoms: S1_28  and  C16_31 
ROOT
HETATM    1  C10 UNL     1     -10.085  16.656   0.208  1.00  0.00     0.185 C 
ENDROOT
BRANCH   1   2
HETATM    2  C9  UNL     1      -9.371  17.924   0.472  1.00  0.00     0.242 C 
HETATM    3  N1  UNL     1      -7.994  18.073   0.700  1.00  0.00    -0.355 N 
HETATM    4  C1  UNL     1      -7.482  19.423   0.984  1.00  0.00     0.152 C 
HETATM    5  O1  UNL     1     -10.094  18.985   0.490  1.00  0.00    -0.271 OA
BRANCH   3   6
HETATM    6  C2  UNL     1      -7.008  17.020   0.652  1.00  0.00     0.125 C 
BRANCH   6   7
HETATM    7  C3  UNL     1      -5.623  17.612   0.483  1.00  0.00     0.020 C 
BRANCH   7   8
HETATM    8  C4  UNL     1      -5.242  17.613  -1.020  1.00  0.00     0.002 C 
BRANCH   8   9
HETATM    9  C5  UNL     1      -4.098  18.560  -1.138  1.00  0.00     0.000 C 
BRANCH   9  10
HETATM   10  C6  UNL     1      -4.209  19.754  -1.969  1.00  0.00     0.002 C 
BRANCH  10  11
HETATM   11  C7  UNL     1      -4.926  20.969  -1.551  1.00  0.00     0.027 C 
BRANCH  11  12
HETATM   12  C8  UNL     1      -5.717  21.684  -2.571  1.00  0.00     0.229 C 
BRANCH  12  13
HETATM   13  N2  UNL     1      -6.218  20.735  -3.547  1.00  0.00    -0.079 N 
ATOM     14  H23 UNL     1      -6.953  21.134  -4.130  1.00  0.00     0.274 HD
ATOM     15  H22 UNL     1      -5.539  20.542  -4.282  1.00  0.00     0.274 HD
ATOM     16  H21 UNL     1      -6.522  19.886  -3.070  1.00  0.00     0.274 HD
ENDBRANCH  12  13
ENDBRANCH  11  12
ENDBRANCH  10  11
ENDBRANCH   9  10
ENDBRANCH   8   9
ENDBRANCH   7   8
ENDBRANCH   6   7
ENDBRANCH   3   6
ENDBRANCH   1   2
BRANCH   1  17
HETATM   17  C11 UNL     1      -9.609  16.079  -1.132  1.00  0.00     0.035 C 
BRANCH  17  18
HETATM   18  C12 UNL     1     -10.441  16.479  -2.291  1.00  0.00     0.004 C 
BRANCH  18  19
HETATM   19  C13 UNL     1     -10.285  15.471  -3.397  1.00  0.00     0.020 C 
BRANCH  19  20
HETATM   20  C14 UNL     1      -8.923  15.508  -4.050  1.00  0.00     0.122 C 
BRANCH  20  21
HETATM   21  N3  UNL     1      -8.988  16.433  -5.161  1.00  0.00    -0.367 N 
HETATM   22  C15 UNL     1      -8.362  17.548  -5.138  1.00  0.00     0.196 C 
HETATM   23  N4  UNL     1      -7.572  17.938  -4.016  1.00  0.00    -0.067 NA
HETATM   24  N5  UNL     1      -8.431  18.445  -6.229  1.00  0.00    -0.067 NA
ATOM     25  H3  UNL     1      -9.544  16.191  -5.981  1.00  0.00     0.161 HD
ENDBRANCH  20  21
ENDBRANCH  19  20
ENDBRANCH  18  19
ENDBRANCH  17  18
ENDBRANCH   1  17
BRANCH   1  26
HETATM   26  N6  UNL     1      -9.641  15.618   1.173  1.00  0.00    -0.302 N 
ATOM     27  H6  UNL     1      -8.722  15.176   1.160  1.00  0.00     0.173 HD
BRANCH  26  28
HETATM   28  S1  UNL     1     -10.869  15.259   2.314  1.00  0.00     0.260 S 
HETATM   29  O2  UNL     1     -12.133  15.980   1.840  1.00  0.00    -0.200 OA
HETATM   30  O3  UNL     1     -11.260  13.802   2.278  1.00  0.00    -0.200 OA
BRANCH  28  31
HETATM   31  C16 UNL     1     -10.414  15.802   3.880  1.00  0.00     0.091 A 
HETATM   32  C17 UNL     1      -9.239  16.563   3.964  1.00  0.00     0.026 A 
HETATM   33  C18 UNL     1      -8.758  17.022   5.158  1.00  0.00     0.004 A 
HETATM   34  C19 UNL     1      -9.462  16.716   6.291  1.00  0.00     0.037 A 
HETATM   35  C20 UNL     1     -10.608  15.973   6.207  1.00  0.00     0.079 A 
HETATM   36  C21 UNL     1     -11.129  15.488   4.993  1.00  0.00     0.029 A 
HETATM   37  O5  UNL     1     -11.436  15.579   7.260  1.00  0.00    -0.348 OA
HETATM   38  C22 UNL     1     -12.353  14.808   5.318  1.00  0.00     0.089 C 
HETATM   39  C23 UNL     1     -13.519  15.784   5.296  1.00  0.00     0.058 C 
HETATM   40  N8  UNL     1     -12.662  13.559   4.730  1.00  0.00    -0.327 N 
HETATM   41  C26 UNL     1     -12.171  14.480   6.827  1.00  0.00     0.212 C 
HETATM   42  C24 UNL     1     -14.832  15.139   5.573  1.00  0.00     0.127 C 
HETATM   43  N7  UNL     1     -15.081  14.057   4.642  1.00  0.00    -0.343 N 
HETATM   44  C25 UNL     1     -13.942  13.345   4.149  1.00  0.00     0.317 C 
ATOM     45  H7  UNL     1     -16.028  13.814   4.351  1.00  0.00     0.164 HD
HETATM   46  O4  UNL     1     -14.134  12.544   3.203  1.00  0.00    -0.247 OA
ATOM     47  H8  UNL     1     -11.967  12.812   4.722  1.00  0.00     0.165 HD
ENDBRANCH  28  31
ENDBRANCH  26  28
ENDBRANCH   1  26
TORSDOF 17
ENDMDL
MODEL 4
REMARK VINA RESULT: -7.958001538      2.107      4.865
REMARK  17 active torsions:
REMARK  status: ('A' for Active; 'I' for Inactive)
REMARK    1  A    between atoms: N1_2  and  C2_3 
REMARK       I    between atoms: N1_2  and  C9_14 
REMARK    2  A    between atoms: C2_3  and  C3_4 
REMARK    3  A    between atoms: C3_4  and  C4_5 
REMARK    4  A    between atoms: C4_5  and  C5_6 
REMARK    5  A    between atoms: C5_6  and  C6_7 
REMARK    6  A    between atoms: C6_7  and  C7_8 
REMARK    7  A    between atoms: C7_8  and  C8_9 
REMARK    8  A    between atoms: C8_9  and  N2_10 
REMARK    9  A    between atoms: C9_14  and  C10_16 
REMARK   10  A    between atoms: C10_16  and  C11_17 
REMARK   11  A    between atoms: C10_16  and  N6_26 
REMARK   12  A    between atoms: C11_17  and  C12_18 
REMARK   13  A    between atoms: C12_18  and  C13_19 
REMARK   14  A    between atoms: C13_19  and  C14_20 
REMARK   15  A    between atoms: C14_20  and  N3_21 
REMARK   16  A    between atoms: N6_26  and  S1_28 
REMARK   17  A    between atoms: S1_28  and  C16_31 
ROOT
HETATM    1  C10 UNL     1      -8.982  16.390   0.116  1.00  0.00     0.185 C 
ENDROOT
BRANCH   1   2
HETATM    2  C9  UNL     1      -7.626  16.544   0.685  1.00  0.00     0.242 C 
HETATM    3  N1  UNL     1      -6.603  17.369   0.192  1.00  0.00    -0.355 N 
HETATM    4  C1  UNL     1      -5.305  17.350   0.885  1.00  0.00     0.152 C 
HETATM    5  O1  UNL     1      -7.374  15.851   1.737  1.00  0.00    -0.271 OA
BRANCH   3   6
HETATM    6  C2  UNL     1      -6.708  18.272  -0.928  1.00  0.00     0.125 C 
BRANCH   6   7
HETATM    7  C3  UNL     1      -5.857  19.503  -0.686  1.00  0.00     0.020 C 
BRANCH   7   8
HETATM    8  C4  UNL     1      -5.219  19.960  -2.022  1.00  0.00     0.002 C 
BRANCH   8   9
HETATM    9  C5  UNL     1      -3.748  19.930  -1.789  1.00  0.00     0.000 C 
BRANCH   9  10
HETATM   10  C6  UNL     1      -3.027  18.662  -1.766  1.00  0.00     0.002 C 
BRANCH  10  11
HETATM   11  C7  UNL     1      -3.433  17.485  -2.549  1.00  0.00     0.027 C 
BRANCH  11  12
HETATM   12  C8  UNL     1      -3.182  17.509  -4.004  1.00  0.00     0.229 C 
BRANCH  12  13
HETATM   13  N2  UNL     1      -4.447  17.588  -4.710  1.00  0.00    -0.079 N 
ATOM     14  H23 UNL     1      -5.244  17.440  -4.092  1.00  0.00     0.274 HD
ATOM     15  H22 UNL     1      -4.666  18.540  -5.004  1.00  0.00     0.274 HD
ATOM     16  H21 UNL     1      -4.439  16.935  -5.493  1.00  0.00     0.274 HD
ENDBRANCH  12  13
ENDBRANCH  11  12
ENDBRANCH  10  11
ENDBRANCH   9  10
ENDBRANCH   8   9
ENDBRANCH   7   8
ENDBRANCH   6   7
ENDBRANCH   3   6
ENDBRANCH   1   2
BRANCH   1  17
HETATM   17  C11 UNL     1      -8.893  15.581  -1.185  1.00  0.00     0.035 C 
BRANCH  17  18
HETATM   18  C12 UNL     1      -9.503  16.253  -2.357  1.00  0.00     0.004 C 
BRANCH  18  19
HETATM   19  C13 UNL     1      -9.703  15.254  -3.464  1.00  0.00     0.020 C 
BRANCH  19  20
HETATM   20  C14 UNL     1      -9.033  15.657  -4.758  1.00  0.00     0.122 C 
BRANCH  20  21
HETATM   21  N3  UNL     1      -8.140  16.760  -4.473  1.00  0.00    -0.367 N 
HETATM   22  C15 UNL     1      -8.183  17.844  -5.150  1.00  0.00     0.196 C 
HETATM   23  N4  UNL     1      -9.109  18.020  -6.221  1.00  0.00    -0.067 NA
HETATM   24  N5  UNL     1      -7.306  18.916  -4.863  1.00  0.00    -0.067 NA
ATOM     25  H3  UNL     1      -7.463  16.672  -3.716  1.00  0.00     0.161 HD
ENDBRANCH  20  21
ENDBRANCH  19  20
ENDBRANCH  18  19
ENDBRANCH  17  18
ENDBRANCH   1  17
BRANCH   1  26
HETATM   26  N6  UNL     1      -9.794  15.500   0.984  1.00  0.00    -0.302 N 
ATOM     27  H6  UNL     1      -9.438  14.660   1.440  1.00  0.00     0.173 HD
BRANCH  26  28
HETATM   28  S1  UNL     1     -11.406  16.066   1.124  1.00  0.00     0.260 S 
HETATM   29  O2  UNL     1     -11.321  17.539   1.533  1.00  0.00    -0.200 OA
HETATM   30  O3  UNL     1     -12.103  16.111  -0.213  1.00  0.00    -0.200 OA
BRANCH  28  31
HETATM   31  C16 UNL     1     -12.262  15.160   2.307  1.00  0.00     0.091 A 
HETATM   32  C17 UNL     1     -13.335  14.382   1.847  1.00  0.00     0.026 A 
HETATM   33  C18 UNL     1     -14.111  13.645   2.697  1.00  0.00     0.004 A 
HETATM   34  C19 UNL     1     -13.813  13.684   4.031  1.00  0.00     0.037 A 
HETATM   35  C20 UNL     1     -12.766  14.443   4.479  1.00  0.00     0.079 A 
HETATM   36  C21 UNL     1     -11.948  15.212   3.629  1.00  0.00     0.029 A 
HETATM   37  O5  UNL     1     -12.334  14.589   5.798  1.00  0.00    -0.348 OA
HETATM   38  C22 UNL     1     -10.945  15.814   4.463  1.00  0.00     0.089 C 
HETATM   39  C23 UNL     1      -9.745  14.890   4.595  1.00  0.00     0.058 C 
HETATM   40  N8  UNL     1     -10.586  17.172   4.294  1.00  0.00    -0.327 N 
HETATM   41  C26 UNL     1     -11.603  15.771   5.872  1.00  0.00     0.212 C 
HETATM   42  C24 UNL     1      -8.640  15.471   5.407  1.00  0.00     0.127 C 
HETATM   43  N7  UNL     1      -8.219  16.747   4.864  1.00  0.00    -0.343 N 
HETATM   44  C25 UNL     1      -9.215  17.538   4.208  1.00  0.00     0.317 C 
ATOM     45  H7  UNL     1      -7.255  17.068   4.946  1.00  0.00     0.164 HD
HETATM   46  O4  UNL     1      -8.819  18.544   3.571  1.00  0.00    -0.247 OA
ATOM     47  H8  UNL     1     -11.310  17.888   4.233  1.00  0.00     0.165 HD
ENDBRANCH  28  31
ENDBRANCH  26  28
ENDBRANCH   1  26
TORSDOF 17
ENDMDL
MODEL 5
REMARK VINA RESULT: -7.822396460      2.628      9.857
REMARK  17 active torsions:
REMARK  status: ('A' for Active; 'I' for Inactive)
REMARK    1  A    between atoms: N1_2  and  C2_3 
REMARK       I    between atoms: N1_2  and  C9_14 
REMARK    2  A    between atoms: C2_3  and  C3_4 
REMARK    3  A    between atoms: C3_4  and  C4_5 
REMARK    4  A    between atoms: C4_5  and  C5_6 
REMARK    5  A    between atoms: C5_6  and  C6_7 
REMARK    6  A    between atoms: C6_7  and  C7_8 
REMARK    7  A    between atoms: C7_8  and  C8_9 
REMARK    8  A    between atoms: C8_9  and  N2_10 
REMARK    9  A    between atoms: C9_14  and  C10_16 
REMARK   10  A    between atoms: C10_16  and  C11_17 
REMARK   11  A    between atoms: C10_16  and  N6_26 
REMARK   12  A    between atoms: C11_17  and  C12_18 
REMARK   13  A    between atoms: C12_18  and  C13_19 
REMARK   14  A    between atoms: C13_19  and  C14_20 
REMARK   15  A    between atoms: C14_20  and  N3_21 
REMARK   16  A    between atoms: N6_26  and  S1_28 
REMARK   17  A    between atoms: S1_28  and  C16_31 
ROOT
HETATM    1  C10 UNL     1      -9.376  16.660   1.681  1.00  0.00     0.185 C 
ENDROOT
BRANCH   1   2
HETATM    2  C9  UNL     1     -10.845  16.788   1.577  1.00  0.00     0.242 C 
HETATM    3  N1  UNL     1     -11.760  15.745   1.368  1.00  0.00    -0.355 N 
HETATM    4  C1  UNL     1     -13.187  16.089   1.254  1.00  0.00     0.152 C 
HETATM    5  O1  UNL     1     -11.317  17.977   1.693  1.00  0.00    -0.271 OA
BRANCH   3   6
HETATM    6  C2  UNL     1     -11.440  14.341   1.282  1.00  0.00     0.125 C 
BRANCH   6   7
HETATM    7  C3  UNL     1     -12.644  13.508   1.675  1.00  0.00     0.020 C 
BRANCH   7   8
HETATM    8  C4  UNL     1     -12.508  13.074   3.157  1.00  0.00     0.002 C 
BRANCH   8   9
HETATM    9  C5  UNL     1     -13.867  12.618   3.563  1.00  0.00     0.000 C 
BRANCH   9  10
HETATM   10  C6  UNL     1     -15.014  13.512   3.445  1.00  0.00     0.002 C 
BRANCH  10  11
HETATM   11  C7  UNL     1     -15.162  14.747   4.231  1.00  0.00     0.027 C 
BRANCH  11  12
HETATM   12  C8  UNL     1     -14.678  14.735   5.625  1.00  0.00     0.229 C 
BRANCH  12  13
HETATM   13  N2  UNL     1     -14.324  16.084   6.026  1.00  0.00    -0.079 N 
ATOM     14  H23 UNL     1     -13.406  16.360   5.679  1.00  0.00     0.274 HD
ATOM     15  H22 UNL     1     -14.881  16.788   5.543  1.00  0.00     0.274 HD
ATOM     16  H21 UNL     1     -14.394  16.166   7.040  1.00  0.00     0.274 HD
ENDBRANCH  12  13
ENDBRANCH  11  12
ENDBRANCH  10  11
ENDBRANCH   9  10
ENDBRANCH   8   9
ENDBRANCH   7   8
ENDBRANCH   6   7
ENDBRANCH   3   6
ENDBRANCH   1   2
BRANCH   1  17
HETATM   17  C11 UNL     1      -9.034  15.682   2.813  1.00  0.00     0.035 C 
BRANCH  17  18
HETATM   18  C12 UNL     1      -9.578  16.075   4.135  1.00  0.00     0.004 C 
BRANCH  18  19
HETATM   19  C13 UNL     1      -8.533  15.858   5.195  1.00  0.00     0.020 C 
BRANCH  19  20
HETATM   20  C14 UNL     1      -9.015  16.201   6.586  1.00  0.00     0.122 C 
BRANCH  20  21
HETATM   21  N3  UNL     1     -10.101  15.304   6.915  1.00  0.00    -0.367 N 
HETATM   22  C15 UNL     1     -11.033  15.652   7.719  1.00  0.00     0.196 C 
HETATM   23  N4  UNL     1     -11.047  16.939   8.334  1.00  0.00    -0.067 NA
HETATM   24  N5  UNL     1     -12.091  14.767   8.035  1.00  0.00    -0.067 NA
ATOM     25  H3  UNL     1     -10.125  14.374   6.497  1.00  0.00     0.161 HD
ENDBRANCH  20  21
ENDBRANCH  19  20
ENDBRANCH  18  19
ENDBRANCH  17  18
ENDBRANCH   1  17
BRANCH   1  26
HETATM   26  N6  UNL     1      -8.847  15.954   0.486  1.00  0.00    -0.302 N 
ATOM     27  H6  UNL     1      -9.010  14.968   0.281  1.00  0.00     0.173 HD
BRANCH  26  28
HETATM   28  S1  UNL     1      -7.928  17.008  -0.506  1.00  0.00     0.260 S 
HETATM   29  O2  UNL     1      -8.112  18.417   0.061  1.00  0.00    -0.200 OA
HETATM   30  O3  UNL     1      -6.446  16.762  -0.364  1.00  0.00    -0.200 OA
BRANCH  28  31
HETATM   31  C16 UNL     1      -8.476  16.934  -2.133  1.00  0.00     0.091 A 
HETATM   32  C17 UNL     1      -9.685  16.261  -2.358  1.00  0.00     0.026 A 
HETATM   33  C18 UNL     1     -10.205  16.107  -3.614  1.00  0.00     0.004 A 
HETATM   34  C19 UNL     1      -9.505  16.634  -4.664  1.00  0.00     0.037 A 
HETATM   35  C20 UNL     1      -8.325  17.291  -4.443  1.00  0.00     0.079 A 
HETATM   36  C21 UNL     1      -7.765  17.466  -3.163  1.00  0.00     0.029 A 
HETATM   37  O5  UNL     1      -7.497  17.883  -5.399  1.00  0.00    -0.348 OA
HETATM   38  C22 UNL     1      -6.568  18.239  -3.345  1.00  0.00     0.089 C 
HETATM   39  C23 UNL     1      -6.886  19.725  -3.284  1.00  0.00     0.058 C 
HETATM   40  N8  UNL     1      -5.377  17.897  -2.661  1.00  0.00    -0.327 N 
HETATM   41  C26 UNL     1      -6.227  17.994  -4.842  1.00  0.00     0.212 C 
HETATM   42  C24 UNL     1      -5.682  20.591  -3.414  1.00  0.00     0.127 C 
HETATM   43  N7  UNL     1      -4.698  20.259  -2.403  1.00  0.00    -0.343 N 
HETATM   44  C25 UNL     1      -4.645  18.898  -1.965  1.00  0.00     0.317 C 
ATOM     45  H7  UNL     1      -4.069  20.965  -2.021  1.00  0.00     0.164 HD
HETATM   46  O4  UNL     1      -3.937  18.646  -0.961  1.00  0.00    -0.247 OA
ATOM     47  H8  UNL     1      -5.044  16.933  -2.668  1.00  0.00     0.165 HD
ENDBRANCH  28  31
ENDBRANCH  26  28
ENDBRANCH   1  26
TORSDOF 17
ENDMDL
