MODEL 1
REMARK VINA RESULT: -7.089047139      0.000      0.000
REMARK  3 active torsions:
REMARK  status: ('A' for Active; 'I' for Inactive)
REMARK    1  A    between atoms: N1_1  and  C1_4 
REMARK    2  A    between atoms: C2_7  and  N3_8 
REMARK    3  A    between atoms: N6_22  and  O3_23 
ROOT
HETATM    1  C1  UNL     1       7.618  18.670  36.616  1.00  0.00     0.145 A 
HETATM    2  N2  UNL     1       6.505  19.331  36.980  1.00  0.00    -0.175 N 
ATOM      3  H2  UNL     1       6.465  20.346  36.897  1.00  0.00     0.186 HD
HETATM    4  C2  UNL     1       5.455  18.660  37.450  1.00  0.00     0.683 A 
HETATM    5  N4  UNL     1       5.526  17.308  37.553  1.00  0.00    -0.172 N 
ATOM      6  H4  UNL     1       4.719  16.796  37.911  1.00  0.00     0.186 HD
HETATM    7  C7  UNL     1       6.621  16.624  37.199  1.00  0.00     0.184 A 
HETATM    8  C8  UNL     1       7.713  17.283  36.715  1.00  0.00     0.128 A 
HETATM    9  N5  UNL     1       8.674  16.379  36.434  1.00  0.00    -0.300 N 
ATOM     10  H5  UNL     1       9.602  16.570  36.058  1.00  0.00     0.171 HD
HETATM   11  C9  UNL     1       8.166  15.179  36.747  1.00  0.00     0.353 A 
HETATM   12  O2  UNL     1       8.782  14.083  36.620  1.00  0.00    -0.244 OA
HETATM   13  N6  UNL     1       6.921  15.296  37.214  1.00  0.00    -0.152 N 
ENDROOT
BRANCH   4  14
HETATM   14  N3  UNL     1       4.242  19.251  37.883  1.00  0.00    -0.213 N 
HETATM   15  C3  UNL     1       3.796  19.333  39.252  1.00  0.00     0.167 C 
HETATM   16  C4  UNL     1       3.223  20.716  39.530  1.00  0.00     0.188 C 
HETATM   17  O1  UNL     1       2.384  21.148  38.530  1.00  0.00    -0.388 OA
HETATM   18  C5  UNL     1       2.079  20.179  37.575  1.00  0.00     0.188 C 
HETATM   19  C6  UNL     1       3.384  19.839  36.882  1.00  0.00     0.167 C 
ENDBRANCH   4  14
BRANCH   1  20
HETATM   20  N1  UNL     1       8.652  19.306  36.148  1.00  0.00    -0.383 N 
ATOM     21  H12 UNL     1       8.575  20.318  36.053  1.00  0.00     0.157 HD
ATOM     22  H11 UNL     1       9.505  18.807  35.893  1.00  0.00     0.157 HD
ENDBRANCH   1  20
BRANCH  13  23
HETATM   23  O3  UNL     1       6.058  14.316  37.640  1.00  0.00    -0.277 OA
ATOM     24  H3  UNL     1       6.321  13.559  38.151  1.00  0.00     0.245 HD
ENDBRANCH  13  23
TORSDOF 3
ENDMDL
MODEL 2
REMARK VINA RESULT: -6.524936271      3.998      5.546
REMARK  3 active torsions:
REMARK  status: ('A' for Active; 'I' for Inactive)
REMARK    1  A    between atoms: N1_1  and  C1_4 
REMARK    2  A    between atoms: C2_7  and  N3_8 
REMARK    3  A    between atoms: N6_22  and  O3_23 
ROOT
HETATM    1  C1  UNL     1       7.938  15.004  37.786  1.00  0.00     0.145 A 
HETATM    2  N2  UNL     1       7.820  14.584  39.057  1.00  0.00    -0.175 N 
ATOM      3  H2  UNL     1       8.002  13.608  39.291  1.00  0.00     0.186 HD
HETATM    4  C2  UNL     1       7.464  15.441  40.012  1.00  0.00     0.683 A 
HETATM    5  N4  UNL     1       7.226  16.737  39.684  1.00  0.00    -0.172 N 
ATOM      6  H4  UNL     1       6.957  17.392  40.419  1.00  0.00     0.186 HD
HETATM    7  C7  UNL     1       7.335  17.183  38.427  1.00  0.00     0.184 A 
HETATM    8  C8  UNL     1       7.697  16.330  37.426  1.00  0.00     0.128 A 
HETATM    9  N5  UNL     1       7.735  17.016  36.266  1.00  0.00    -0.300 N 
ATOM     10  H5  UNL     1       7.973  16.648  35.345  1.00  0.00     0.171 HD
HETATM   11  C9  UNL     1       7.398  18.278  36.563  1.00  0.00     0.353 A 
HETATM   12  O2  UNL     1       7.322  19.219  35.721  1.00  0.00    -0.244 OA
HETATM   13  N6  UNL     1       7.149  18.411  37.867  1.00  0.00    -0.152 N 
ENDROOT
BRANCH   4  14
HETATM   14  N3  UNL     1       7.288  15.106  41.379  1.00  0.00    -0.213 N 
HETATM   15  C3  UNL     1       8.296  15.228  42.403  1.00  0.00     0.167 C 
HETATM   16  C4  UNL     1       7.685  15.821  43.666  1.00  0.00     0.188 C 
HETATM   17  O1  UNL     1       6.477  15.246  43.985  1.00  0.00    -0.388 OA
HETATM   18  C5  UNL     1       6.150  14.128  43.218  1.00  0.00     0.188 C 
HETATM   19  C6  UNL     1       5.994  14.621  41.792  1.00  0.00     0.167 C 
ENDBRANCH   4  14
BRANCH   1  20
HETATM   20  N1  UNL     1       8.291  14.185  36.838  1.00  0.00    -0.383 N 
ATOM     21  H12 UNL     1       8.536  14.593  35.936  1.00  0.00     0.157 HD
ATOM     22  H11 UNL     1       8.324  13.178  36.999  1.00  0.00     0.157 HD
ENDBRANCH   1  20
BRANCH  13  23
HETATM   23  O3  UNL     1       6.779  19.530  38.571  1.00  0.00    -0.277 OA
ATOM     24  H3  UNL     1       7.392  20.139  38.965  1.00  0.00     0.245 HD
ENDBRANCH  13  23
TORSDOF 3
ENDMDL
MODEL 3
REMARK VINA RESULT: -6.518952652      3.597      5.238
REMARK  3 active torsions:
REMARK  status: ('A' for Active; 'I' for Inactive)
REMARK    1  A    between atoms: N1_1  and  C1_4 
REMARK    2  A    between atoms: C2_7  and  N3_8 
REMARK    3  A    between atoms: N6_22  and  O3_23 
ROOT
HETATM    1  C1  UNL     1       6.755  13.410  38.367  1.00  0.00     0.145 A 
HETATM    2  N2  UNL     1       7.009  14.620  37.840  1.00  0.00    -0.175 N 
ATOM      3  H2  UNL     1       7.277  14.703  36.860  1.00  0.00     0.186 HD
HETATM    4  C2  UNL     1       6.913  15.711  38.598  1.00  0.00     0.683 A 
HETATM    5  N4  UNL     1       6.554  15.583  39.901  1.00  0.00    -0.172 N 
ATOM      6  H4  UNL     1       6.478  16.421  40.478  1.00  0.00     0.186 HD
HETATM    7  C7  UNL     1       6.295  14.390  40.453  1.00  0.00     0.184 A 
HETATM    8  C8  UNL     1       6.386  13.255  39.703  1.00  0.00     0.128 A 
HETATM    9  N5  UNL     1       6.079  12.197  40.482  1.00  0.00    -0.300 N 
ATOM     10  H5  UNL     1       6.060  11.217  40.203  1.00  0.00     0.171 HD
HETATM   11  C9  UNL     1       5.805  12.691  41.697  1.00  0.00     0.353 A 
HETATM   12  O2  UNL     1       5.476  11.993  42.699  1.00  0.00    -0.244 OA
HETATM   13  N6  UNL     1       5.927  14.020  41.710  1.00  0.00    -0.152 N 
ENDROOT
BRANCH   4  14
HETATM   14  N3  UNL     1       7.178  17.032  38.156  1.00  0.00    -0.213 N 
HETATM   15  C3  UNL     1       8.043  17.386  37.058  1.00  0.00     0.167 C 
HETATM   16  C4  UNL     1       7.390  18.471  36.211  1.00  0.00     0.188 C 
HETATM   17  O1  UNL     1       6.840  19.474  36.975  1.00  0.00    -0.388 OA
HETATM   18  C5  UNL     1       7.147  19.399  38.333  1.00  0.00     0.188 C 
HETATM   19  C6  UNL     1       6.518  18.116  38.842  1.00  0.00     0.167 C 
ENDBRANCH   4  14
BRANCH   1  20
HETATM   20  N1  UNL     1       6.836  12.332  37.643  1.00  0.00    -0.383 N 
ATOM     21  H12 UNL     1       6.116  12.190  36.936  1.00  0.00     0.157 HD
ATOM     22  H11 UNL     1       7.595  11.664  37.778  1.00  0.00     0.157 HD
ENDBRANCH   1  20
BRANCH  13  23
HETATM   23  O3  UNL     1       5.734  14.899  42.748  1.00  0.00    -0.277 OA
ATOM     24  H3  UNL     1       5.167  14.731  43.491  1.00  0.00     0.245 HD
ENDBRANCH  13  23
TORSDOF 3
ENDMDL
MODEL 4
REMARK VINA RESULT: -6.472130127      3.759      5.753
REMARK  3 active torsions:
REMARK  status: ('A' for Active; 'I' for Inactive)
REMARK    1  A    between atoms: N1_1  and  C1_4 
REMARK    2  A    between atoms: C2_7  and  N3_8 
REMARK    3  A    between atoms: N6_22  and  O3_23 
ROOT
HETATM    1  C1  UNL     1       7.914  14.849  37.396  1.00  0.00     0.145 A 
HETATM    2  N2  UNL     1       7.459  14.125  38.434  1.00  0.00    -0.175 N 
ATOM      3  H2  UNL     1       7.619  13.118  38.461  1.00  0.00     0.186 HD
HETATM    4  C2  UNL     1       6.800  14.721  39.425  1.00  0.00     0.683 A 
HETATM    5  N4  UNL     1       6.597  16.063  39.372  1.00  0.00    -0.172 N 
ATOM      6  H4  UNL     1       6.094  16.517  40.135  1.00  0.00     0.186 HD
HETATM    7  C7  UNL     1       7.038  16.808  38.351  1.00  0.00     0.184 A 
HETATM    8  C8  UNL     1       7.716  16.227  37.321  1.00  0.00     0.128 A 
HETATM    9  N5  UNL     1       8.048  17.182  36.428  1.00  0.00    -0.300 N 
ATOM     10  H5  UNL     1       8.559  17.052  35.555  1.00  0.00     0.171 HD
HETATM   11  C9  UNL     1       7.573  18.336  36.917  1.00  0.00     0.353 A 
HETATM   12  O2  UNL     1       7.692  19.459  36.349  1.00  0.00    -0.244 OA
HETATM   13  N6  UNL     1       6.955  18.141  38.083  1.00  0.00    -0.152 N 
ENDROOT
BRANCH   4  14
HETATM   14  N3  UNL     1       6.258  14.057  40.554  1.00  0.00    -0.213 N 
HETATM   15  C3  UNL     1       5.600  12.774  40.531  1.00  0.00     0.167 C 
HETATM   16  C4  UNL     1       6.072  11.927  41.706  1.00  0.00     0.188 C 
HETATM   17  O1  UNL     1       6.107  12.635  42.884  1.00  0.00    -0.388 OA
HETATM   18  C5  UNL     1       5.536  13.905  42.810  1.00  0.00     0.188 C 
HETATM   19  C6  UNL     1       6.388  14.700  41.839  1.00  0.00     0.167 C 
ENDBRANCH   4  14
BRANCH   1  20
HETATM   20  N1  UNL     1       8.566  14.287  36.420  1.00  0.00    -0.383 N 
ATOM     21  H12 UNL     1       9.384  14.779  36.062  1.00  0.00     0.157 HD
ATOM     22  H11 UNL     1       8.271  13.388  36.038  1.00  0.00     0.157 HD
ENDBRANCH   1  20
BRANCH  13  23
HETATM   23  O3  UNL     1       6.339  19.055  38.902  1.00  0.00    -0.277 OA
ATOM     24  H3  UNL     1       5.682  18.832  39.552  1.00  0.00     0.245 HD
ENDBRANCH  13  23
TORSDOF 3
ENDMDL
MODEL 5
REMARK VINA RESULT: -6.451265592      3.301      6.042
REMARK  3 active torsions:
REMARK  status: ('A' for Active; 'I' for Inactive)
REMARK    1  A    between atoms: N1_1  and  C1_4 
REMARK    2  A    between atoms: C2_7  and  N3_8 
REMARK    3  A    between atoms: N6_22  and  O3_23 
ROOT
HETATM    1  C1  UNL     1       8.490  15.244  36.460  1.00  0.00     0.145 A 
HETATM    2  N2  UNL     1       8.111  14.123  37.098  1.00  0.00    -0.175 N 
ATOM      3  H2  UNL     1       8.467  13.218  36.792  1.00  0.00     0.186 HD
HETATM    4  C2  UNL     1       7.271  14.194  38.128  1.00  0.00     0.683 A 
HETATM    5  N4  UNL     1       6.808  15.409  38.522  1.00  0.00    -0.172 N 
ATOM      6  H4  UNL     1       6.166  15.461  39.314  1.00  0.00     0.186 HD
HETATM    7  C7  UNL     1       7.168  16.541  37.905  1.00  0.00     0.184 A 
HETATM    8  C8  UNL     1       8.027  16.501  36.846  1.00  0.00     0.128 A 
HETATM    9  N5  UNL     1       8.229  17.760  36.406  1.00  0.00    -0.300 N 
ATOM     10  H5  UNL     1       8.823  18.048  35.628  1.00  0.00     0.171 HD
HETATM   11  C9  UNL     1       7.496  18.557  37.195  1.00  0.00     0.353 A 
HETATM   12  O2  UNL     1       7.431  19.815  37.083  1.00  0.00    -0.244 OA
HETATM   13  N6  UNL     1       6.841  17.846  38.114  1.00  0.00    -0.152 N 
ENDROOT
BRANCH   4  14
HETATM   14  N3  UNL     1       6.787  13.080  38.860  1.00  0.00    -0.213 N 
HETATM   15  C3  UNL     1       7.126  11.703  38.601  1.00  0.00     0.167 C 
HETATM   16  C4  UNL     1       7.398  10.980  39.913  1.00  0.00     0.188 C 
HETATM   17  O1  UNL     1       6.457  11.265  40.876  1.00  0.00    -0.388 OA
HETATM   18  C5  UNL     1       5.360  11.990  40.412  1.00  0.00     0.188 C 
HETATM   19  C6  UNL     1       5.898  13.337  39.966  1.00  0.00     0.167 C 
ENDBRANCH   4  14
BRANCH   1  20
HETATM   20  N1  UNL     1       9.316  15.197  35.455  1.00  0.00    -0.383 N 
ATOM     21  H12 UNL     1       9.274  15.961  34.781  1.00  0.00     0.157 HD
ATOM     22  H11 UNL     1       9.980  14.429  35.355  1.00  0.00     0.157 HD
ENDBRANCH   1  20
BRANCH  13  23
HETATM   23  O3  UNL     1       5.992  18.279  39.104  1.00  0.00    -0.277 OA
ATOM     24  H3  UNL     1       5.893  17.851  39.946  1.00  0.00     0.245 HD
ENDBRANCH  13  23
TORSDOF 3
ENDMDL
