MODEL 1
REMARK VINA RESULT: -6.583343867      0.000      0.000
REMARK  2 active torsions:
REMARK  status: ('A' for Active; 'I' for Inactive)
REMARK    1  A    between atoms: C2_3  and  N2_4 
REMARK    2  A    between atoms: C4_8  and  C5_9 
ROOT
HETATM    1  N2  UNL     1       6.501  15.511  40.038  1.00  0.00    -0.278 N 
ATOM      2  H2  UNL     1       5.491  15.371  40.012  1.00  0.00     0.179 HD
HETATM    3  C3  UNL     1       7.045  15.387  41.294  1.00  0.00     0.183 C 
HETATM    4  N3  UNL     1       7.468  15.278  42.369  1.00  0.00    -0.172 NA
ENDROOT
BRANCH   1   5
HETATM    5  C2  UNL     1       7.061  15.791  38.793  1.00  0.00     0.138 A 
HETATM    6  N1  UNL     1       7.030  17.012  38.248  1.00  0.00    -0.313 N 
HETATM    7  C1  UNL     1       6.400  18.150  38.894  1.00  0.00     0.160 C 
HETATM    8  C9  UNL     1       7.592  17.298  37.030  1.00  0.00     0.182 A 
HETATM    9  N7  UNL     1       8.207  16.330  36.332  1.00  0.00    -0.299 N 
HETATM   10  S1  UNL     1       7.533  18.815  36.392  1.00  0.00    -0.040 SA
HETATM   11  C8  UNL     1       8.254  15.098  36.852  1.00  0.00     0.265 A 
ATOM     12  H7  UNL     1       8.629  16.530  35.426  1.00  0.00     0.171 HD
HETATM   13  C4  UNL     1       7.697  14.766  38.080  1.00  0.00     0.122 A 
HETATM   14  O1  UNL     1       8.828  14.167  36.217  1.00  0.00    -0.267 OA
BRANCH  13  15
HETATM   15  C5  UNL     1       7.773  13.383  38.521  1.00  0.00     0.135 C 
HETATM   16  N4  UNL     1       6.798  12.619  38.140  1.00  0.00    -0.289 N 
HETATM   17  N5  UNL     1       6.736  11.281  38.484  1.00  0.00    -0.333 N 
ATOM     18  H4  UNL     1       6.053  13.018  37.569  1.00  0.00     0.188 HD
HETATM   19  C6  UNL     1       7.869  10.537  38.996  1.00  0.00     0.159 C 
ATOM     20  H5  UNL     1       5.848  10.792  38.371  1.00  0.00     0.180 HD
HETATM   21  C7  UNL     1       8.896  11.405  39.646  1.00  0.00     0.142 C 
HETATM   22  N6  UNL     1       8.754  12.810  39.336  1.00  0.00    -0.373 N 
ATOM     23  H6  UNL     1       9.435  13.444  39.752  1.00  0.00     0.161 HD
ENDBRANCH  13  15
ENDBRANCH   1   5
TORSDOF 2
ENDMDL
MODEL 2
REMARK VINA RESULT: -6.267146708      0.458      1.135
REMARK  2 active torsions:
REMARK  status: ('A' for Active; 'I' for Inactive)
REMARK    1  A    between atoms: C2_3  and  N2_4 
REMARK    2  A    between atoms: C4_8  and  C5_9 
ROOT
HETATM    1  N2  UNL     1       6.662  15.566  40.076  1.00  0.00    -0.278 N 
ATOM      2  H2  UNL     1       5.649  15.446  40.087  1.00  0.00     0.179 HD
HETATM    3  C3  UNL     1       7.250  15.425  41.310  1.00  0.00     0.183 C 
HETATM    4  N3  UNL     1       7.710  15.301  42.368  1.00  0.00    -0.172 NA
ENDROOT
BRANCH   1   5
HETATM    5  C2  UNL     1       7.181  15.842  38.812  1.00  0.00     0.138 A 
HETATM    6  N1  UNL     1       7.155  17.067  38.276  1.00  0.00    -0.313 N 
HETATM    7  C1  UNL     1       6.574  18.214  38.952  1.00  0.00     0.160 C 
HETATM    8  C9  UNL     1       7.677  17.350  37.040  1.00  0.00     0.182 A 
HETATM    9  N7  UNL     1       8.244  16.373  36.314  1.00  0.00    -0.299 N 
HETATM   10  S1  UNL     1       7.627  18.871  36.413  1.00  0.00    -0.040 SA
HETATM   11  C8  UNL     1       8.284  15.137  36.824  1.00  0.00     0.265 A 
ATOM     12  H7  UNL     1       8.637  16.570  35.393  1.00  0.00     0.171 HD
HETATM   13  C4  UNL     1       7.767  14.809  38.070  1.00  0.00     0.122 A 
HETATM   14  O1  UNL     1       8.814  14.198  36.163  1.00  0.00    -0.267 OA
BRANCH  13  15
HETATM   15  C5  UNL     1       7.830  13.422  38.500  1.00  0.00     0.135 C 
HETATM   16  N4  UNL     1       8.945  13.057  39.051  1.00  0.00    -0.289 N 
HETATM   17  N5  UNL     1       9.151  11.768  39.510  1.00  0.00    -0.333 N 
ATOM     18  H4  UNL     1       9.694  13.742  39.150  1.00  0.00     0.188 HD
HETATM   19  C6  UNL     1       8.078  10.819  39.724  1.00  0.00     0.159 C 
ATOM     20  H5  UNL     1      10.106  11.471  39.707  1.00  0.00     0.180 HD
HETATM   21  C7  UNL     1       6.862  11.112  38.907  1.00  0.00     0.142 C 
HETATM   22  N6  UNL     1       6.843  12.444  38.346  1.00  0.00    -0.373 N 
ATOM     23  H6  UNL     1       6.030  12.695  37.784  1.00  0.00     0.161 HD
ENDBRANCH  13  15
ENDBRANCH   1   5
TORSDOF 2
ENDMDL
MODEL 3
REMARK VINA RESULT: -5.828573759      2.848      5.163
REMARK  2 active torsions:
REMARK  status: ('A' for Active; 'I' for Inactive)
REMARK    1  A    between atoms: C2_3  and  N2_4 
REMARK    2  A    between atoms: C4_8  and  C5_9 
ROOT
HETATM    1  N2  UNL     1       8.137  15.413  41.660  1.00  0.00    -0.278 N 
ATOM      2  H2  UNL     1       8.948  15.854  41.225  1.00  0.00     0.179 HD
HETATM    3  C3  UNL     1       7.888  15.852  42.938  1.00  0.00     0.183 C 
HETATM    4  N3  UNL     1       7.711  16.244  44.016  1.00  0.00    -0.172 NA
ENDROOT
BRANCH   1   5
HETATM    5  C2  UNL     1       7.498  14.484  40.842  1.00  0.00     0.138 A 
HETATM    6  N1  UNL     1       7.315  13.210  41.207  1.00  0.00    -0.313 N 
HETATM    7  C1  UNL     1       7.777  12.677  42.477  1.00  0.00     0.160 C 
HETATM    8  C9  UNL     1       6.673  12.293  40.415  1.00  0.00     0.182 A 
HETATM    9  N7  UNL     1       6.197  12.662  39.215  1.00  0.00    -0.299 N 
HETATM   10  S1  UNL     1       6.467  10.733  40.899  1.00  0.00    -0.040 SA
HETATM   11  C8  UNL     1       6.365  13.930  38.822  1.00  0.00     0.265 A 
ATOM     12  H7  UNL     1       5.718  11.991  38.615  1.00  0.00     0.171 HD
HETATM   13  C4  UNL     1       7.010  14.889  39.593  1.00  0.00     0.122 A 
HETATM   14  O1  UNL     1       5.926  14.306  37.698  1.00  0.00    -0.267 OA
BRANCH  13  15
HETATM   15  C5  UNL     1       7.170  16.224  39.042  1.00  0.00     0.135 C 
HETATM   16  N4  UNL     1       8.085  16.348  38.132  1.00  0.00    -0.289 N 
HETATM   17  N5  UNL     1       8.351  17.559  37.518  1.00  0.00    -0.333 N 
ATOM     18  H4  UNL     1       8.626  15.527  37.861  1.00  0.00     0.188 HD
HETATM   19  C6  UNL     1       7.452  18.694  37.574  1.00  0.00     0.159 C 
ATOM     20  H5  UNL     1       9.223  17.658  37.000  1.00  0.00     0.180 HD
HETATM   21  C7  UNL     1       6.545  18.667  38.759  1.00  0.00     0.142 C 
HETATM   22  N6  UNL     1       6.478  17.380  39.414  1.00  0.00    -0.373 N 
ATOM     23  H6  UNL     1       5.867  17.309  40.227  1.00  0.00     0.161 HD
ENDBRANCH  13  15
ENDBRANCH   1   5
TORSDOF 2
ENDMDL
MODEL 4
REMARK VINA RESULT: -5.649681913      3.804      4.991
REMARK  2 active torsions:
REMARK  status: ('A' for Active; 'I' for Inactive)
REMARK    1  A    between atoms: C2_3  and  N2_4 
REMARK    2  A    between atoms: C4_8  and  C5_9 
ROOT
HETATM    1  N2  UNL     1       7.790  14.551  42.649  1.00  0.00    -0.278 N 
ATOM      2  H2  UNL     1       8.731  14.174  42.756  1.00  0.00     0.179 HD
HETATM    3  C3  UNL     1       7.481  15.533  43.559  1.00  0.00     0.183 C 
HETATM    4  N3  UNL     1       7.255  16.356  44.346  1.00  0.00    -0.172 NA
ENDROOT
BRANCH   1   5
HETATM    5  C2  UNL     1       7.068  13.972  41.607  1.00  0.00     0.138 A 
HETATM    6  N1  UNL     1       7.164  14.395  40.342  1.00  0.00    -0.313 N 
HETATM    7  C1  UNL     1       8.015  15.502  39.941  1.00  0.00     0.160 C 
HETATM    8  C9  UNL     1       6.468  13.820  39.310  1.00  0.00     0.182 A 
HETATM    9  N7  UNL     1       5.647  12.785  39.551  1.00  0.00    -0.299 N 
HETATM   10  S1  UNL     1       6.613  14.369  37.765  1.00  0.00    -0.040 SA
HETATM   11  C8  UNL     1       5.530  12.340  40.807  1.00  0.00     0.265 A 
ATOM     12  H7  UNL     1       5.124  12.348  38.792  1.00  0.00     0.171 HD
HETATM   13  C4  UNL     1       6.215  12.894  41.880  1.00  0.00     0.122 A 
HETATM   14  O1  UNL     1       4.765  11.366  41.062  1.00  0.00    -0.267 OA
BRANCH  13  15
HETATM   15  C5  UNL     1       5.974  12.352  43.207  1.00  0.00     0.135 C 
HETATM   16  N4  UNL     1       4.832  12.659  43.737  1.00  0.00    -0.289 N 
HETATM   17  N5  UNL     1       4.464  12.215  44.995  1.00  0.00    -0.333 N 
ATOM     18  H4  UNL     1       4.184  13.245  43.211  1.00  0.00     0.188 HD
HETATM   19  C6  UNL     1       5.135  11.134  45.686  1.00  0.00     0.159 C 
ATOM     20  H5  UNL     1       3.679  12.673  45.460  1.00  0.00     0.180 HD
HETATM   21  C7  UNL     1       6.542  10.929  45.229  1.00  0.00     0.142 C 
HETATM   22  N6  UNL     1       6.849  11.580  43.976  1.00  0.00    -0.373 N 
ATOM     23  H6  UNL     1       7.797  11.466  43.618  1.00  0.00     0.161 HD
ENDBRANCH  13  15
ENDBRANCH   1   5
TORSDOF 2
ENDMDL
MODEL 5
REMARK VINA RESULT: -5.589515826      2.913      3.776
REMARK  2 active torsions:
REMARK  status: ('A' for Active; 'I' for Inactive)
REMARK    1  A    between atoms: C2_3  and  N2_4 
REMARK    2  A    between atoms: C4_8  and  C5_9 
ROOT
HETATM    1  N2  UNL     1       8.339  15.272  42.215  1.00  0.00    -0.278 N 
ATOM      2  H2  UNL     1       9.171  15.821  42.428  1.00  0.00     0.179 HD
HETATM    3  C3  UNL     1       7.397  15.284  43.215  1.00  0.00     0.183 C 
HETATM    4  N3  UNL     1       6.626  15.315  44.082  1.00  0.00    -0.172 NA
ENDROOT
BRANCH   1   5
HETATM    5  C2  UNL     1       8.379  14.655  40.966  1.00  0.00     0.138 A 
HETATM    6  N1  UNL     1       7.782  15.175  39.887  1.00  0.00    -0.313 N 
HETATM    7  C1  UNL     1       7.029  16.417  39.922  1.00  0.00     0.160 C 
HETATM    8  C9  UNL     1       7.829  14.582  38.652  1.00  0.00     0.182 A 
HETATM    9  N7  UNL     1       8.496  13.428  38.488  1.00  0.00    -0.299 N 
HETATM   10  S1  UNL     1       7.082  15.252  37.347  1.00  0.00    -0.040 SA
HETATM   11  C8  UNL     1       9.103  12.884  39.549  1.00  0.00     0.265 A 
ATOM     12  H7  UNL     1       8.540  12.977  37.575  1.00  0.00     0.171 HD
HETATM   13  C4  UNL     1       9.079  13.451  40.816  1.00  0.00     0.122 A 
HETATM   14  O1  UNL     1       9.740  11.799  39.424  1.00  0.00    -0.267 OA
BRANCH  13  15
HETATM   15  C5  UNL     1       9.739  12.744  41.902  1.00  0.00     0.135 C 
HETATM   16  N4  UNL     1       8.972  11.996  42.630  1.00  0.00    -0.289 N 
HETATM   17  N5  UNL     1       9.460  11.264  43.698  1.00  0.00    -0.333 N 
ATOM     18  H4  UNL     1       7.978  11.944  42.409  1.00  0.00     0.188 HD
HETATM   19  C6  UNL     1      10.870  10.998  43.903  1.00  0.00     0.159 C 
ATOM     20  H5  UNL     1       8.795  10.892  44.375  1.00  0.00     0.180 HD
HETATM   21  C7  UNL     1      11.758  12.003  43.247  1.00  0.00     0.142 C 
HETATM   22  N6  UNL     1      11.088  12.820  42.260  1.00  0.00    -0.373 N 
ATOM     23  H6  UNL     1      11.654  13.519  41.780  1.00  0.00     0.161 HD
ENDBRANCH  13  15
ENDBRANCH   1   5
TORSDOF 2
ENDMDL
