MODEL 1
REMARK VINA RESULT: -5.319147465      0.000      0.000
REMARK  5 active torsions:
REMARK  status: ('A' for Active; 'I' for Inactive)
REMARK    1  A    between atoms: S1_2  and  C2_3 
REMARK    2  A    between atoms: C2_3  and  C3_4 
REMARK    3  A    between atoms: C3_4  and  N1_5 
REMARK    4  A    between atoms: N2_8  and  O2_9 
REMARK    5  A    between atoms: C7_16  and  N4_17 
ROOT
HETATM    1  N1  UNL     1       6.956  13.905  41.967  1.00  0.00    -0.280 N 
HETATM    2  C4  UNL     1       5.956  13.875  42.908  1.00  0.00     0.355 A 
HETATM    3  O1  UNL     1       5.925  14.582  43.956  1.00  0.00    -0.244 OA
HETATM    4  N2  UNL     1       5.019  13.000  42.570  1.00  0.00    -0.163 N 
HETATM    5  C5  UNL     1       5.415  12.462  41.406  1.00  0.00     0.181 A 
HETATM    6  C6  UNL     1       4.797  11.509  40.627  1.00  0.00     0.292 A 
HETATM    7  O3  UNL     1       3.696  10.986  40.961  1.00  0.00    -0.265 OA
HETATM    8  N3  UNL     1       5.385  11.141  39.500  1.00  0.00    -0.154 N 
ATOM      9  H3  UNL     1       4.949  10.437  38.904  1.00  0.00     0.187 HD
HETATM   10  C7  UNL     1       6.567  11.701  39.138  1.00  0.00     0.682 A 
HETATM   11  N5  UNL     1       7.207  12.632  39.865  1.00  0.00    -0.170 N 
HETATM   12  C8  UNL     1       8.449  13.222  39.440  1.00  0.00     0.177 C 
HETATM   13  C9  UNL     1       6.627  13.027  41.025  1.00  0.00     0.164 A 
ENDROOT
BRANCH   1  14
HETATM   14  C3  UNL     1       8.101  14.780  42.078  1.00  0.00     0.146 C 
BRANCH  14  15
HETATM   15  C2  UNL     1       9.088  14.197  43.105  1.00  0.00     0.093 C 
BRANCH  15  16
HETATM   16  S1  UNL     1      10.743  14.186  42.356  1.00  0.00    -0.172 SA
HETATM   17  C1  UNL     1      11.547  12.573  42.523  1.00  0.00     0.089 C 
ENDBRANCH  15  16
ENDBRANCH  14  15
ENDBRANCH   1  14
BRANCH   4  18
HETATM   18  O2  UNL     1       3.859  12.664  43.230  1.00  0.00    -0.278 OA
ATOM     19  H2  UNL     1       3.265  11.940  43.074  1.00  0.00     0.245 HD
ENDBRANCH   4  18
BRANCH  10  20
HETATM   20  N4  UNL     1       7.057  11.290  38.037  1.00  0.00    -0.234 N 
ATOM     21  H42 UNL     1       6.519  11.357  37.173  1.00  0.00     0.174 HD
ATOM     22  H41 UNL     1       7.999  10.901  38.091  1.00  0.00     0.174 HD
ENDBRANCH  10  20
TORSDOF 5
ENDMDL
MODEL 2
REMARK VINA RESULT: -5.115213664      3.244      4.653
REMARK  5 active torsions:
REMARK  status: ('A' for Active; 'I' for Inactive)
REMARK    1  A    between atoms: S1_2  and  C2_3 
REMARK    2  A    between atoms: C2_3  and  C3_4 
REMARK    3  A    between atoms: C3_4  and  N1_5 
REMARK    4  A    between atoms: N2_8  and  O2_9 
REMARK    5  A    between atoms: C7_16  and  N4_17 
ROOT
HETATM    1  N1  UNL     1       7.328  14.276  39.386  1.00  0.00    -0.280 N 
HETATM    2  C4  UNL     1       7.528  13.541  38.244  1.00  0.00     0.355 A 
HETATM    3  O1  UNL     1       8.182  13.933  37.234  1.00  0.00    -0.244 OA
HETATM    4  N2  UNL     1       6.943  12.355  38.338  1.00  0.00    -0.163 N 
HETATM    5  C5  UNL     1       6.361  12.324  39.548  1.00  0.00     0.181 A 
HETATM    6  C6  UNL     1       5.632  11.318  40.142  1.00  0.00     0.292 A 
HETATM    7  O3  UNL     1       5.405  10.222  39.555  1.00  0.00    -0.265 OA
HETATM    8  N3  UNL     1       5.163  11.519  41.363  1.00  0.00    -0.154 N 
ATOM      9  H3  UNL     1       4.619  10.791  41.827  1.00  0.00     0.187 HD
HETATM   10  C7  UNL     1       5.404  12.695  41.997  1.00  0.00     0.682 A 
HETATM   11  N5  UNL     1       6.109  13.704  41.458  1.00  0.00    -0.170 N 
HETATM   12  C8  UNL     1       6.367  14.930  42.166  1.00  0.00     0.177 C 
HETATM   13  C9  UNL     1       6.601  13.524  40.207  1.00  0.00     0.164 A 
ENDROOT
BRANCH   1  14
HETATM   14  C3  UNL     1       7.867  15.606  39.559  1.00  0.00     0.146 C 
BRANCH  14  15
HETATM   15  C2  UNL     1       6.901  16.630  38.937  1.00  0.00     0.093 C 
BRANCH  15  16
HETATM   16  S1  UNL     1       7.813  17.581  37.687  1.00  0.00    -0.172 SA
HETATM   17  C1  UNL     1       7.438  19.350  37.779  1.00  0.00     0.089 C 
ENDBRANCH  15  16
ENDBRANCH  14  15
ENDBRANCH   1  14
BRANCH   4  18
HETATM   18  O2  UNL     1       6.900  11.326  37.426  1.00  0.00    -0.278 OA
ATOM     19  H2  UNL     1       6.432  10.501  37.468  1.00  0.00     0.245 HD
ENDBRANCH   4  18
BRANCH  10  20
HETATM   20  N4  UNL     1       4.919  12.800  43.169  1.00  0.00    -0.234 N 
ATOM     21  H42 UNL     1       4.538  13.688  43.494  1.00  0.00     0.174 HD
ATOM     22  H41 UNL     1       4.943  11.951  43.735  1.00  0.00     0.174 HD
ENDBRANCH  10  20
TORSDOF 5
ENDMDL
MODEL 3
REMARK VINA RESULT: -5.071960526      2.183      3.319
REMARK  5 active torsions:
REMARK  status: ('A' for Active; 'I' for Inactive)
REMARK    1  A    between atoms: S1_2  and  C2_3 
REMARK    2  A    between atoms: C2_3  and  C3_4 
REMARK    3  A    between atoms: C3_4  and  N1_5 
REMARK    4  A    between atoms: N2_8  and  O2_9 
REMARK    5  A    between atoms: C7_16  and  N4_17 
ROOT
HETATM    1  N1  UNL     1       9.551  12.880  41.759  1.00  0.00    -0.280 N 
HETATM    2  C4  UNL     1       9.643  13.949  42.617  1.00  0.00     0.355 A 
HETATM    3  O1  UNL     1      10.712  14.351  43.162  1.00  0.00    -0.244 OA
HETATM    4  N2  UNL     1       8.456  14.509  42.800  1.00  0.00    -0.163 N 
HETATM    5  C5  UNL     1       7.592  13.799  42.057  1.00  0.00     0.181 A 
HETATM    6  C6  UNL     1       6.236  13.971  41.889  1.00  0.00     0.292 A 
HETATM    7  O3  UNL     1       5.602  14.893  42.478  1.00  0.00    -0.265 OA
HETATM    8  N3  UNL     1       5.592  13.140  41.086  1.00  0.00    -0.154 N 
ATOM      9  H3  UNL     1       4.587  13.245  40.944  1.00  0.00     0.187 HD
HETATM   10  C7  UNL     1       6.269  12.149  40.452  1.00  0.00     0.682 A 
HETATM   11  N5  UNL     1       7.590  11.942  40.585  1.00  0.00    -0.170 N 
HETATM   12  C8  UNL     1       8.282  10.896  39.880  1.00  0.00     0.177 C 
HETATM   13  C9  UNL     1       8.274  12.780  41.403  1.00  0.00     0.164 A 
ENDROOT
BRANCH   1  14
HETATM   14  C3  UNL     1      10.699  12.091  41.374  1.00  0.00     0.146 C 
BRANCH  14  15
HETATM   15  C2  UNL     1      10.924  10.980  42.414  1.00  0.00     0.093 C 
BRANCH  15  16
HETATM   16  S1  UNL     1      12.552  11.237  43.175  1.00  0.00    -0.172 SA
HETATM   17  C1  UNL     1      13.883  10.521  42.178  1.00  0.00     0.089 C 
ENDBRANCH  15  16
ENDBRANCH  14  15
ENDBRANCH   1  14
BRANCH   4  18
HETATM   18  O2  UNL     1       8.111  15.592  43.576  1.00  0.00    -0.278 OA
ATOM     19  H2  UNL     1       7.357  16.165  43.510  1.00  0.00     0.245 HD
ENDBRANCH   4  18
BRANCH  10  20
HETATM   20  N4  UNL     1       5.570  11.400  39.696  1.00  0.00    -0.234 N 
ATOM     21  H42 UNL     1       4.566  11.304  39.847  1.00  0.00     0.174 HD
ATOM     22  H41 UNL     1       6.082  10.919  38.956  1.00  0.00     0.174 HD
ENDBRANCH  10  20
TORSDOF 5
ENDMDL
MODEL 4
REMARK VINA RESULT: -5.055444811      3.607      4.956
REMARK  5 active torsions:
REMARK  status: ('A' for Active; 'I' for Inactive)
REMARK    1  A    between atoms: S1_2  and  C2_3 
REMARK    2  A    between atoms: C2_3  and  C3_4 
REMARK    3  A    between atoms: C3_4  and  N1_5 
REMARK    4  A    between atoms: N2_8  and  O2_9 
REMARK    5  A    between atoms: C7_16  and  N4_17 
ROOT
HETATM    1  N1  UNL     1       7.591  14.284  39.583  1.00  0.00    -0.280 N 
HETATM    2  C4  UNL     1       6.860  13.611  38.635  1.00  0.00     0.355 A 
HETATM    3  O1  UNL     1       5.943  14.121  37.929  1.00  0.00    -0.244 OA
HETATM    4  N2  UNL     1       7.245  12.345  38.555  1.00  0.00    -0.163 N 
HETATM    5  C5  UNL     1       8.230  12.199  39.456  1.00  0.00     0.181 A 
HETATM    6  C6  UNL     1       8.973  11.082  39.765  1.00  0.00     0.292 A 
HETATM    7  O3  UNL     1       8.785   9.973  39.189  1.00  0.00    -0.265 OA
HETATM    8  N3  UNL     1       9.909  11.188  40.696  1.00  0.00    -0.154 N 
ATOM      9  H3  UNL     1      10.474  10.376  40.945  1.00  0.00     0.187 HD
HETATM   10  C7  UNL     1      10.115  12.377  41.317  1.00  0.00     0.682 A 
HETATM   11  N5  UNL     1       9.415  13.491  41.050  1.00  0.00    -0.170 N 
HETATM   12  C8  UNL     1       9.674  14.743  41.711  1.00  0.00     0.177 C 
HETATM   13  C9  UNL     1       8.450  13.410  40.101  1.00  0.00     0.164 A 
ENDROOT
BRANCH   1  14
HETATM   14  C3  UNL     1       7.386  15.685  39.871  1.00  0.00     0.146 C 
BRANCH  14  15
HETATM   15  C2  UNL     1       7.799  16.521  38.646  1.00  0.00     0.093 C 
BRANCH  15  16
HETATM   16  S1  UNL     1       6.719  17.979  38.566  1.00  0.00    -0.172 SA
HETATM   17  C1  UNL     1       7.504  19.351  37.685  1.00  0.00     0.089 C 
ENDBRANCH  15  16
ENDBRANCH  14  15
ENDBRANCH   1  14
BRANCH   4  18
HETATM   18  O2  UNL     1       6.777  11.338  37.742  1.00  0.00    -0.278 OA
ATOM     19  H2  UNL     1       7.124  10.466  37.601  1.00  0.00     0.245 HD
ENDBRANCH   4  18
BRANCH  10  20
HETATM   20  N4  UNL     1      11.037  12.387  42.195  1.00  0.00    -0.234 N 
ATOM     21  H42 UNL     1      11.999  12.603  41.933  1.00  0.00     0.174 HD
ATOM     22  H41 UNL     1      10.743  12.169  43.147  1.00  0.00     0.174 HD
ENDBRANCH  10  20
TORSDOF 5
ENDMDL
MODEL 5
REMARK VINA RESULT: -5.048819424      2.518      3.449
REMARK  5 active torsions:
REMARK  status: ('A' for Active; 'I' for Inactive)
REMARK    1  A    between atoms: S1_2  and  C2_3 
REMARK    2  A    between atoms: C2_3  and  C3_4 
REMARK    3  A    between atoms: C3_4  and  N1_5 
REMARK    4  A    between atoms: N2_8  and  O2_9 
REMARK    5  A    between atoms: C7_16  and  N4_17 
ROOT
HETATM    1  N1  UNL     1       9.696  12.317  40.969  1.00  0.00    -0.280 N 
HETATM    2  C4  UNL     1       9.755  13.591  41.478  1.00  0.00     0.355 A 
HETATM    3  O1  UNL     1      10.764  14.099  42.047  1.00  0.00    -0.244 OA
HETATM    4  N2  UNL     1       8.606  14.226  41.292  1.00  0.00    -0.163 N 
HETATM    5  C5  UNL     1       7.801  13.358  40.660  1.00  0.00     0.181 A 
HETATM    6  C6  UNL     1       6.503  13.522  40.231  1.00  0.00     0.292 A 
HETATM    7  O3  UNL     1       5.872  14.603  40.410  1.00  0.00    -0.265 OA
HETATM    8  N3  UNL     1       5.912  12.512  39.614  1.00  0.00    -0.154 N 
ATOM      9  H3  UNL     1       4.951  12.606  39.285  1.00  0.00     0.187 HD
HETATM   10  C7  UNL     1       6.585  11.349  39.419  1.00  0.00     0.682 A 
HETATM   11  N5  UNL     1       7.851  11.142  39.820  1.00  0.00    -0.170 N 
HETATM   12  C8  UNL     1       8.545   9.905  39.577  1.00  0.00     0.177 C 
HETATM   13  C9  UNL     1       8.479  12.162  40.455  1.00  0.00     0.164 A 
ENDROOT
BRANCH   1  14
HETATM   14  C3  UNL     1      10.816  11.405  41.026  1.00  0.00     0.146 C 
BRANCH  14  15
HETATM   15  C2  UNL     1      10.821  10.691  42.389  1.00  0.00     0.093 C 
BRANCH  15  16
HETATM   16  S1  UNL     1      12.399  11.049  43.211  1.00  0.00    -0.172 SA
HETATM   17  C1  UNL     1      13.815  10.644  42.158  1.00  0.00     0.089 C 
ENDBRANCH  15  16
ENDBRANCH  14  15
ENDBRANCH   1  14
BRANCH   4  18
HETATM   18  O2  UNL     1       8.247  15.506  41.647  1.00  0.00    -0.278 OA
ATOM     19  H2  UNL     1       7.690  15.801  42.358  1.00  0.00     0.245 HD
ENDBRANCH   4  18
BRANCH  10  20
HETATM   20  N4  UNL     1       5.941  10.433  38.814  1.00  0.00    -0.234 N 
ATOM     21  H42 UNL     1       6.278  10.064  37.924  1.00  0.00     0.174 HD
ATOM     22  H41 UNL     1       5.090  10.113  39.276  1.00  0.00     0.174 HD
ENDBRANCH  10  20
TORSDOF 5
ENDMDL
