MODEL 1
REMARK VINA RESULT: -6.485030100      0.000      0.000
REMARK  3 active torsions:
REMARK  status: ('A' for Active; 'I' for Inactive)
REMARK       I    between atoms: N1_2  and  C2_4 
REMARK    1  A    between atoms: C2_4  and  C3_6 
REMARK    2  A    between atoms: N4_11  and  C4_12 
REMARK    3  A    between atoms: C5_13  and  O2_14 
ROOT
HETATM    1  C3  UNL     1       7.721  17.433  37.018  1.00  0.00     0.206 A 
HETATM    2  N2  UNL     1       8.321  16.358  36.480  1.00  0.00    -0.264 N 
ATOM      3  H2  UNL     1       8.905  16.342  35.643  1.00  0.00     0.190 HD
HETATM    4  N3  UNL     1       8.013  15.337  37.238  1.00  0.00    -0.219 N 
ATOM      5  H3  UNL     1       8.321  14.377  37.087  1.00  0.00     0.210 HD
HETATM    6  N4  UNL     1       7.236  15.743  38.233  1.00  0.00    -0.171 N 
HETATM    7  N7  UNL     1       7.044  17.020  38.119  1.00  0.00    -0.257 N 
ATOM      8  H7  UNL     1       6.487  17.605  38.742  1.00  0.00     0.191 HD
ENDROOT
BRANCH   6   9
HETATM    9  C4  UNL     1       6.744  14.822  39.226  1.00  0.00     0.194 A 
HETATM   10  C5  UNL     1       6.222  13.605  38.845  1.00  0.00     0.179 A 
HETATM   11  N5  UNL     1       5.767  12.757  39.785  1.00  0.00    -0.312 N 
HETATM   12  C6  UNL     1       5.792  13.032  41.103  1.00  0.00     0.180 A 
ATOM     13  H5  UNL     1       5.384  11.860  39.485  1.00  0.00     0.170 HD
HETATM   14  S1  UNL     1       5.226  11.967  42.217  1.00  0.00    -0.040 SA
HETATM   15  N6  UNL     1       6.298  14.213  41.482  1.00  0.00    -0.298 N 
HETATM   16  C7  UNL     1       6.768  15.101  40.576  1.00  0.00     0.282 A 
ATOM     17  H6  UNL     1       6.328  14.449  42.474  1.00  0.00     0.171 HD
HETATM   18  O3  UNL     1       7.237  16.199  40.934  1.00  0.00    -0.265 OA
BRANCH  10  19
HETATM   19  O2  UNL     1       6.191  13.307  37.488  1.00  0.00    -0.344 OA
ATOM     20  H2  UNL     1       6.699  12.565  37.184  1.00  0.00     0.219 HD
ENDBRANCH  10  19
ENDBRANCH   6   9
BRANCH   1  21
HETATM   21  C2  UNL     1       7.815  18.772  36.470  1.00  0.00     0.288 C 
HETATM   22  N1  UNL     1       9.054  19.459  36.463  1.00  0.00    -0.359 N 
HETATM   23  C1  UNL     1       9.208  20.798  35.929  1.00  0.00     0.149 C 
ATOM     24  H1  UNL     1       9.873  18.991  36.851  1.00  0.00     0.162 HD
HETATM   25  O1  UNL     1       6.798  19.318  36.004  1.00  0.00    -0.264 OA
ENDBRANCH   1  21
TORSDOF 3
ENDMDL
MODEL 2
REMARK VINA RESULT: -6.481368687      1.043      1.043
REMARK  3 active torsions:
REMARK  status: ('A' for Active; 'I' for Inactive)
REMARK       I    between atoms: N1_2  and  C2_4 
REMARK    1  A    between atoms: C2_4  and  C3_6 
REMARK    2  A    between atoms: N4_11  and  C4_12 
REMARK    3  A    between atoms: C5_13  and  O2_14 
ROOT
HETATM    1  C3  UNL     1       7.958  17.509  37.356  1.00  0.00     0.206 A 
HETATM    2  N2  UNL     1       8.192  16.533  36.464  1.00  0.00    -0.264 N 
ATOM      3  H2  UNL     1       8.443  16.652  35.482  1.00  0.00     0.190 HD
HETATM    4  N3  UNL     1       8.034  15.399  37.099  1.00  0.00    -0.219 N 
ATOM      5  H3  UNL     1       8.145  14.473  36.687  1.00  0.00     0.210 HD
HETATM    6  N4  UNL     1       7.709  15.641  38.362  1.00  0.00    -0.171 N 
HETATM    7  N7  UNL     1       7.656  16.922  38.542  1.00  0.00    -0.257 N 
ATOM      8  H7  UNL     1       7.430  17.401  39.413  1.00  0.00     0.191 HD
ENDROOT
BRANCH   6   9
HETATM    9  C4  UNL     1       7.475  14.568  39.295  1.00  0.00     0.194 A 
HETATM   10  C5  UNL     1       6.510  13.619  39.035  1.00  0.00     0.179 A 
HETATM   11  N5  UNL     1       6.305  12.624  39.917  1.00  0.00    -0.312 N 
HETATM   12  C6  UNL     1       7.002  12.498  41.062  1.00  0.00     0.180 A 
ATOM     13  H5  UNL     1       5.587  11.931  39.708  1.00  0.00     0.170 HD
HETATM   14  S1  UNL     1       6.718  11.267  42.112  1.00  0.00    -0.040 SA
HETATM   15  N6  UNL     1       7.942  13.416  41.324  1.00  0.00    -0.298 N 
HETATM   16  C7  UNL     1       8.186  14.436  40.469  1.00  0.00     0.282 A 
ATOM     17  H6  UNL     1       8.484  13.346  42.185  1.00  0.00     0.171 HD
HETATM   18  O3  UNL     1       9.062  15.287  40.717  1.00  0.00    -0.265 OA
BRANCH  10  19
HETATM   19  O2  UNL     1       5.785  13.737  37.855  1.00  0.00    -0.344 OA
ATOM     20  H2  UNL     1       5.382  14.576  37.664  1.00  0.00     0.219 HD
ENDBRANCH  10  19
ENDBRANCH   6   9
BRANCH   1  21
HETATM   21  C2  UNL     1       8.031  18.924  37.045  1.00  0.00     0.288 C 
HETATM   22  N1  UNL     1       9.170  19.459  36.395  1.00  0.00    -0.359 N 
HETATM   23  C1  UNL     1       9.297  20.864  36.060  1.00  0.00     0.149 C 
ATOM     24  H1  UNL     1       9.934  18.829  36.152  1.00  0.00     0.162 HD
HETATM   25  O1  UNL     1       7.082  19.669  37.354  1.00  0.00    -0.264 OA
ENDBRANCH   1  21
TORSDOF 3
ENDMDL
MODEL 3
REMARK VINA RESULT: -6.293083093      3.176      6.411
REMARK  3 active torsions:
REMARK  status: ('A' for Active; 'I' for Inactive)
REMARK       I    between atoms: N1_2  and  C2_4 
REMARK    1  A    between atoms: C2_4  and  C3_6 
REMARK    2  A    between atoms: N4_11  and  C4_12 
REMARK    3  A    between atoms: C5_13  and  O2_14 
ROOT
HETATM    1  C3  UNL     1       6.083  13.807  39.624  1.00  0.00     0.206 A 
HETATM    2  N2  UNL     1       5.897  13.509  38.327  1.00  0.00    -0.264 N 
ATOM      3  H2  UNL     1       5.501  12.647  37.950  1.00  0.00     0.190 HD
HETATM    4  N3  UNL     1       6.325  14.539  37.641  1.00  0.00    -0.219 N 
ATOM      5  H3  UNL     1       6.316  14.613  36.624  1.00  0.00     0.210 HD
HETATM    6  N4  UNL     1       6.772  15.470  38.472  1.00  0.00    -0.171 N 
HETATM    7  N7  UNL     1       6.634  15.045  39.689  1.00  0.00    -0.257 N 
ATOM      8  H7  UNL     1       6.892  15.548  40.537  1.00  0.00     0.191 HD
ENDROOT
BRANCH   6   9
HETATM    9  C4  UNL     1       7.304  16.717  37.986  1.00  0.00     0.194 A 
HETATM   10  C5  UNL     1       8.216  16.728  36.953  1.00  0.00     0.179 A 
HETATM   11  N5  UNL     1       8.703  17.902  36.512  1.00  0.00    -0.312 N 
HETATM   12  C6  UNL     1       8.343  19.091  37.030  1.00  0.00     0.180 A 
ATOM     13  H5  UNL     1       9.377  17.891  35.747  1.00  0.00     0.170 HD
HETATM   14  S1  UNL     1       8.963  20.502  36.459  1.00  0.00    -0.040 SA
HETATM   15  N6  UNL     1       7.457  19.091  38.034  1.00  0.00    -0.298 N 
HETATM   16  C7  UNL     1       6.939  17.937  38.514  1.00  0.00     0.282 A 
ATOM     17  H6  UNL     1       7.168  19.978  38.446  1.00  0.00     0.171 HD
HETATM   18  O3  UNL     1       6.114  17.943  39.449  1.00  0.00    -0.265 OA
BRANCH  10  19
HETATM   19  O2  UNL     1       8.595  15.506  36.409  1.00  0.00    -0.344 OA
ATOM     20  H2  UNL     1       8.941  15.503  35.525  1.00  0.00     0.219 HD
ENDBRANCH  10  19
ENDBRANCH   6   9
BRANCH   1  21
HETATM   21  C2  UNL     1       5.735  12.919  40.716  1.00  0.00     0.288 C 
HETATM   22  N1  UNL     1       5.017  11.723  40.469  1.00  0.00    -0.359 N 
HETATM   23  C1  UNL     1       4.643  10.798  41.520  1.00  0.00     0.149 C 
ATOM     24  H1  UNL     1       4.752  11.503  39.509  1.00  0.00     0.162 HD
HETATM   25  O1  UNL     1       6.072  13.214  41.878  1.00  0.00    -0.264 OA
ENDBRANCH   1  21
TORSDOF 3
ENDMDL
MODEL 4
REMARK VINA RESULT: -6.244561205      3.161      6.498
REMARK  3 active torsions:
REMARK  status: ('A' for Active; 'I' for Inactive)
REMARK       I    between atoms: N1_2  and  C2_4 
REMARK    1  A    between atoms: C2_4  and  C3_6 
REMARK    2  A    between atoms: N4_11  and  C4_12 
REMARK    3  A    between atoms: C5_13  and  O2_14 
ROOT
HETATM    1  C3  UNL     1       6.007  13.811  39.693  1.00  0.00     0.206 A 
HETATM    2  N2  UNL     1       5.899  13.449  38.403  1.00  0.00    -0.264 N 
ATOM      3  H2  UNL     1       5.530  12.567  38.047  1.00  0.00     0.190 HD
HETATM    4  N3  UNL     1       6.360  14.449  37.694  1.00  0.00    -0.219 N 
ATOM      5  H3  UNL     1       6.409  14.474  36.675  1.00  0.00     0.210 HD
HETATM    6  N4  UNL     1       6.752  15.422  38.503  1.00  0.00    -0.171 N 
HETATM    7  N7  UNL     1       6.547  15.056  39.729  1.00  0.00    -0.257 N 
ATOM      8  H7  UNL     1       6.753  15.601  40.565  1.00  0.00     0.191 HD
ENDROOT
BRANCH   6   9
HETATM    9  C4  UNL     1       7.304  16.650  37.988  1.00  0.00     0.194 A 
HETATM   10  C5  UNL     1       6.941  17.859  38.539  1.00  0.00     0.179 A 
HETATM   11  N5  UNL     1       7.467  18.995  38.046  1.00  0.00    -0.312 N 
HETATM   12  C6  UNL     1       8.344  19.021  37.025  1.00  0.00     0.180 A 
ATOM     13  H5  UNL     1       7.186  19.882  38.466  1.00  0.00     0.170 HD
HETATM   14  S1  UNL     1       8.961  20.432  36.454  1.00  0.00    -0.040 SA
HETATM   15  N6  UNL     1       8.703  17.849  36.483  1.00  0.00    -0.298 N 
HETATM   16  C7  UNL     1       8.203  16.680  36.943  1.00  0.00     0.282 A 
ATOM     17  H6  UNL     1       9.365  17.839  35.708  1.00  0.00     0.171 HD
HETATM   18  O3  UNL     1       8.540  15.592  36.435  1.00  0.00    -0.265 OA
BRANCH  10  19
HETATM   19  O2  UNL     1       6.037  17.847  39.594  1.00  0.00    -0.344 OA
ATOM     20  H2  UNL     1       5.617  18.666  39.828  1.00  0.00     0.219 HD
ENDBRANCH  10  19
ENDBRANCH   6   9
BRANCH   1  21
HETATM   21  C2  UNL     1       5.603  12.973  40.805  1.00  0.00     0.288 C 
HETATM   22  N1  UNL     1       5.671  13.461  42.134  1.00  0.00    -0.359 N 
HETATM   23  C1  UNL     1       5.280  12.670  43.283  1.00  0.00     0.149 C 
ATOM     24  H1  UNL     1       6.011  14.410  42.287  1.00  0.00     0.162 HD
HETATM   25  O1  UNL     1       5.192  11.819  40.586  1.00  0.00    -0.264 OA
ENDBRANCH   1  21
TORSDOF 3
ENDMDL
MODEL 5
REMARK VINA RESULT: -6.196903232      3.971      5.839
REMARK  3 active torsions:
REMARK  status: ('A' for Active; 'I' for Inactive)
REMARK       I    between atoms: N1_2  and  C2_4 
REMARK    1  A    between atoms: C2_4  and  C3_6 
REMARK    2  A    between atoms: N4_11  and  C4_12 
REMARK    3  A    between atoms: C5_13  and  O2_14 
ROOT
HETATM    1  C3  UNL     1       7.560  16.217  36.995  1.00  0.00     0.206 A 
HETATM    2  N2  UNL     1       8.136  17.305  36.457  1.00  0.00    -0.264 N 
ATOM      3  H2  UNL     1       9.075  17.366  36.064  1.00  0.00     0.190 HD
HETATM    4  N3  UNL     1       7.256  18.272  36.535  1.00  0.00    -0.219 N 
ATOM      5  H3  UNL     1       7.400  19.226  36.207  1.00  0.00     0.210 HD
HETATM    6  N4  UNL     1       6.149  17.817  37.107  1.00  0.00    -0.171 N 
HETATM    7  N7  UNL     1       6.312  16.565  37.397  1.00  0.00    -0.257 N 
ATOM      8  H7  UNL     1       5.628  15.955  37.844  1.00  0.00     0.191 HD
ENDROOT
BRANCH   6   9
HETATM    9  C4  UNL     1       5.009  18.673  37.320  1.00  0.00     0.194 A 
HETATM   10  C5  UNL     1       4.363  19.249  36.249  1.00  0.00     0.179 A 
HETATM   11  N5  UNL     1       3.300  20.044  36.467  1.00  0.00    -0.312 N 
HETATM   12  C6  UNL     1       2.821  20.316  37.695  1.00  0.00     0.180 A 
ATOM     13  H5  UNL     1       2.834  20.462  35.661  1.00  0.00     0.170 HD
HETATM   14  S1  UNL     1       1.520  21.295  37.915  1.00  0.00    -0.040 SA
HETATM   15  N6  UNL     1       3.444  19.761  38.743  1.00  0.00    -0.298 N 
HETATM   16  C7  UNL     1       4.516  18.954  38.577  1.00  0.00     0.282 A 
ATOM     17  H6  UNL     1       3.103  19.951  39.685  1.00  0.00     0.171 HD
HETATM   18  O3  UNL     1       5.092  18.439  39.556  1.00  0.00    -0.265 OA
BRANCH  10  19
HETATM   19  O2  UNL     1       4.847  18.975  34.975  1.00  0.00    -0.344 OA
ATOM     20  H2  UNL     1       4.637  19.587  34.280  1.00  0.00     0.219 HD
ENDBRANCH  10  19
ENDBRANCH   6   9
BRANCH   1  21
HETATM   21  C2  UNL     1       8.212  14.926  37.101  1.00  0.00     0.288 C 
HETATM   22  N1  UNL     1       8.083  14.150  38.280  1.00  0.00    -0.359 N 
HETATM   23  C1  UNL     1       8.711  12.854  38.442  1.00  0.00     0.149 C 
ATOM     24  H1  UNL     1       7.524  14.521  39.049  1.00  0.00     0.162 HD
HETATM   25  O1  UNL     1       8.887  14.499  36.147  1.00  0.00    -0.264 OA
ENDBRANCH   1  21
TORSDOF 3
ENDMDL
