MODEL 1
REMARK VINA RESULT: -7.891629822      0.000      0.000
REMARK  3 active torsions:
REMARK  status: ('A' for Active; 'I' for Inactive)
REMARK    1  A    between atoms: C5_7  and  N2_8 
REMARK    2  A    between atoms: C7_19  and  C8_20 
REMARK    3  A    between atoms: C9_25  and  N9_26 
ROOT
HETATM    1  C1  UNL     1       1.280  21.123  37.690  1.00  0.00     0.070 C 
HETATM    2  C2  UNL     1       2.587  20.419  37.805  1.00  0.00     0.036 A 
HETATM    3  N1  UNL     1       3.191  20.021  36.621  1.00  0.00    -0.358 N 
ATOM      4  H1  UNL     1       2.730  20.221  35.733  1.00  0.00     0.165 HD
HETATM    5  C3  UNL     1       4.361  19.384  36.618  1.00  0.00     0.052 A 
HETATM    6  C4  UNL     1       5.051  18.936  35.384  1.00  0.00     0.072 C 
HETATM    7  C5  UNL     1       4.938  19.140  37.847  1.00  0.00     0.156 A 
HETATM    8  N6  UNL     1       4.372  19.516  38.997  1.00  0.00    -0.335 N 
ATOM      9  H6  UNL     1       4.840  19.313  39.880  1.00  0.00     0.168 HD
HETATM   10  C7  UNL     1       3.158  20.178  39.003  1.00  0.00     0.102 A 
ENDROOT
BRANCH  10  11
HETATM   11  C8  UNL     1       2.589  20.562  40.284  1.00  0.00     0.165 A 
HETATM   12  N7  UNL     1       1.333  20.088  40.621  1.00  0.00    -0.269 N 
HETATM   13  N8  UNL     1       1.016  20.543  41.785  1.00  0.00    -0.131 N 
ATOM     14  H7  UNL     1       0.753  19.480  40.044  1.00  0.00     0.189 HD
HETATM   15  C9  UNL     1       2.004  21.296  42.234  1.00  0.00     0.692 A 
ATOM     16  H8  UNL     1       0.144  20.352  42.279  1.00  0.00     0.205 HD
HETATM   17  N10 UNL     1       2.973  21.301  41.301  1.00  0.00    -0.172 N 
ATOM     18  H10 UNL     1       3.861  21.799  41.371  1.00  0.00     0.186 HD
BRANCH  15  19
HETATM   19  N9  UNL     1       2.020  21.907  43.371  1.00  0.00    -0.233 N 
ATOM     20  H92 UNL     1       1.436  21.705  44.183  1.00  0.00     0.174 HD
ATOM     21  H91 UNL     1       2.630  22.689  43.612  1.00  0.00     0.174 HD
ENDBRANCH  15  19
ENDBRANCH  10  11
BRANCH   7  22
HETATM   22  N2  UNL     1       6.198  18.454  37.850  1.00  0.00    -0.170 N 
HETATM   23  N3  UNL     1       6.395  17.147  37.953  1.00  0.00    -0.215 N 
HETATM   24  N4  UNL     1       7.692  16.925  37.914  1.00  0.00    -0.224 N 
ATOM     25  H3  UNL     1       5.669  16.437  38.046  1.00  0.00     0.210 HD
HETATM   26  N5  UNL     1       8.360  18.070  37.785  1.00  0.00    -0.234 N 
ATOM     27  H4  UNL     1       8.126  16.004  37.975  1.00  0.00     0.210 HD
HETATM   28  C6  UNL     1       7.421  19.038  37.744  1.00  0.00     0.364 A 
ATOM     29  H5  UNL     1       9.371  18.189  37.727  1.00  0.00     0.193 HD
HETATM   30  O1  UNL     1       7.660  20.267  37.628  1.00  0.00    -0.243 OA
ENDBRANCH   7  22
TORSDOF 3
ENDMDL
MODEL 2
REMARK VINA RESULT: -7.538493740      3.421      5.408
REMARK  3 active torsions:
REMARK  status: ('A' for Active; 'I' for Inactive)
REMARK    1  A    between atoms: C5_7  and  N2_8 
REMARK    2  A    between atoms: C7_19  and  C8_20 
REMARK    3  A    between atoms: C9_25  and  N9_26 
ROOT
HETATM    1  C1  UNL     1       7.687  19.063  36.033  1.00  0.00     0.070 C 
HETATM    2  C2  UNL     1       7.357  17.716  36.574  1.00  0.00     0.036 A 
HETATM    3  N1  UNL     1       8.321  16.729  36.429  1.00  0.00    -0.358 N 
ATOM      4  H1  UNL     1       9.203  16.956  35.968  1.00  0.00     0.165 HD
HETATM    5  C3  UNL     1       8.121  15.492  36.879  1.00  0.00     0.052 A 
HETATM    6  C4  UNL     1       9.115  14.398  36.750  1.00  0.00     0.072 C 
HETATM    7  C5  UNL     1       6.912  15.242  37.493  1.00  0.00     0.156 A 
HETATM    8  N6  UNL     1       5.972  16.179  37.642  1.00  0.00    -0.335 N 
ATOM      9  H6  UNL     1       5.094  15.944  38.105  1.00  0.00     0.168 HD
HETATM   10  C7  UNL     1       6.177  17.464  37.177  1.00  0.00     0.102 A 
ENDROOT
BRANCH  10  11
HETATM   11  C8  UNL     1       5.119  18.443  37.367  1.00  0.00     0.165 A 
HETATM   12  N7  UNL     1       5.076  19.154  38.554  1.00  0.00    -0.269 N 
HETATM   13  N8  UNL     1       4.072  19.960  38.520  1.00  0.00    -0.131 N 
ATOM     14  H7  UNL     1       5.733  19.055  39.328  1.00  0.00     0.189 HD
HETATM   15  C9  UNL     1       3.447  19.817  37.365  1.00  0.00     0.692 A 
ATOM     16  H8  UNL     1       3.803  20.604  39.264  1.00  0.00     0.205 HD
HETATM   17  N10 UNL     1       4.101  18.878  36.658  1.00  0.00    -0.172 N 
ATOM     18  H10 UNL     1       3.848  18.556  35.723  1.00  0.00     0.186 HD
BRANCH  15  19
HETATM   19  N9  UNL     1       2.397  20.473  36.998  1.00  0.00    -0.233 N 
ATOM     20  H92 UNL     1       1.439  20.320  37.313  1.00  0.00     0.174 HD
ATOM     21  H91 UNL     1       2.386  21.243  36.329  1.00  0.00     0.174 HD
ENDBRANCH  15  19
ENDBRANCH  10  11
BRANCH   7  22
HETATM   22  N2  UNL     1       6.691  13.910  37.979  1.00  0.00    -0.170 N 
HETATM   23  N3  UNL     1       6.865  12.778  37.312  1.00  0.00    -0.215 N 
HETATM   24  N4  UNL     1       6.553  11.780  38.113  1.00  0.00    -0.224 N 
ATOM     25  H3  UNL     1       7.183  12.693  36.347  1.00  0.00     0.210 HD
HETATM   26  N5  UNL     1       6.176  12.237  39.306  1.00  0.00    -0.234 N 
ATOM     27  H4  UNL     1       6.595  10.794  37.856  1.00  0.00     0.210 HD
HETATM   28  C6  UNL     1       6.261  13.581  39.226  1.00  0.00     0.364 A 
ATOM     29  H5  UNL     1       5.884  11.685  40.112  1.00  0.00     0.193 HD
HETATM   30  O1  UNL     1       5.984  14.376  40.160  1.00  0.00    -0.243 OA
ENDBRANCH   7  22
TORSDOF 3
ENDMDL
MODEL 3
REMARK VINA RESULT: -7.164959647      3.666      7.140
REMARK  3 active torsions:
REMARK  status: ('A' for Active; 'I' for Inactive)
REMARK    1  A    between atoms: C5_7  and  N2_8 
REMARK    2  A    between atoms: C7_19  and  C8_20 
REMARK    3  A    between atoms: C9_25  and  N9_26 
ROOT
HETATM    1  C1  UNL     1       9.372  14.507  36.195  1.00  0.00     0.070 C 
HETATM    2  C2  UNL     1       8.299  15.467  36.574  1.00  0.00     0.036 A 
HETATM    3  N1  UNL     1       8.419  16.763  36.093  1.00  0.00    -0.358 N 
ATOM      4  H1  UNL     1       9.219  17.007  35.509  1.00  0.00     0.165 HD
HETATM    5  C3  UNL     1       7.511  17.695  36.377  1.00  0.00     0.052 A 
HETATM    6  C4  UNL     1       7.589  19.095  35.891  1.00  0.00     0.072 C 
HETATM    7  C5  UNL     1       6.451  17.310  37.170  1.00  0.00     0.156 A 
HETATM    8  N6  UNL     1       6.319  16.067  37.642  1.00  0.00    -0.335 N 
ATOM      9  H6  UNL     1       5.515  15.831  38.225  1.00  0.00     0.168 HD
HETATM   10  C7  UNL     1       7.258  15.097  37.349  1.00  0.00     0.102 A 
ENDROOT
BRANCH  10  11
HETATM   11  C8  UNL     1       7.063  13.762  37.890  1.00  0.00     0.165 A 
HETATM   12  N7  UNL     1       5.949  13.520  38.675  1.00  0.00    -0.269 N 
HETATM   13  N8  UNL     1       5.965  12.287  39.050  1.00  0.00    -0.131 N 
ATOM     14  H7  UNL     1       5.233  14.204  38.916  1.00  0.00     0.189 HD
HETATM   15  C9  UNL     1       7.038  11.701  38.550  1.00  0.00     0.692 A 
ATOM     16  H8  UNL     1       5.263  11.836  39.638  1.00  0.00     0.205 HD
HETATM   17  N10 UNL     1       7.711  12.619  37.834  1.00  0.00    -0.172 N 
ATOM     18  H10 UNL     1       8.582  12.456  37.329  1.00  0.00     0.186 HD
BRANCH  15  19
HETATM   19  N9  UNL     1       7.365  10.465  38.727  1.00  0.00    -0.233 N 
ATOM     20  H92 UNL     1       7.027   9.660  38.199  1.00  0.00     0.174 HD
ATOM     21  H91 UNL     1       8.017  10.122  39.434  1.00  0.00     0.174 HD
ENDBRANCH  15  19
ENDBRANCH  10  11
BRANCH   7  22
HETATM   22  N2  UNL     1       5.471  18.311  37.480  1.00  0.00    -0.170 N 
HETATM   23  N3  UNL     1       4.357  18.572  36.810  1.00  0.00    -0.215 N 
HETATM   24  N4  UNL     1       3.736  19.560  37.419  1.00  0.00    -0.224 N 
ATOM     25  H3  UNL     1       4.037  18.092  35.969  1.00  0.00     0.210 HD
HETATM   26  N5  UNL     1       4.424  19.957  38.488  1.00  0.00    -0.234 N 
ATOM     27  H4  UNL     1       2.852  19.966  37.115  1.00  0.00     0.210 HD
HETATM   28  C6  UNL     1       5.521  19.172  38.531  1.00  0.00     0.364 A 
ATOM     29  H5  UNL     1       4.174  20.701  39.140  1.00  0.00     0.193 HD
HETATM   30  O1  UNL     1       6.423  19.242  39.403  1.00  0.00    -0.243 OA
ENDBRANCH   7  22
TORSDOF 3
ENDMDL
MODEL 4
REMARK VINA RESULT: -7.049802329      3.591      7.107
REMARK  3 active torsions:
REMARK  status: ('A' for Active; 'I' for Inactive)
REMARK    1  A    between atoms: C5_7  and  N2_8 
REMARK    2  A    between atoms: C7_19  and  C8_20 
REMARK    3  A    between atoms: C9_25  and  N9_26 
ROOT
HETATM    1  C1  UNL     1       9.284  14.784  36.081  1.00  0.00     0.070 C 
HETATM    2  C2  UNL     1       8.237  15.728  36.561  1.00  0.00     0.036 A 
HETATM    3  N1  UNL     1       8.339  17.045  36.139  1.00  0.00    -0.358 N 
ATOM      4  H1  UNL     1       9.110  17.315  35.527  1.00  0.00     0.165 HD
HETATM    5  C3  UNL     1       7.453  17.966  36.515  1.00  0.00     0.052 A 
HETATM    6  C4  UNL     1       7.514  19.387  36.095  1.00  0.00     0.072 C 
HETATM    7  C5  UNL     1       6.432  17.545  37.341  1.00  0.00     0.156 A 
HETATM    8  N6  UNL     1       6.318  16.280  37.758  1.00  0.00    -0.335 N 
ATOM      9  H6  UNL     1       5.544  16.019  38.368  1.00  0.00     0.168 HD
HETATM   10  C7  UNL     1       7.235  15.323  37.369  1.00  0.00     0.102 A 
ENDROOT
BRANCH  10  11
HETATM   11  C8  UNL     1       7.060  13.963  37.853  1.00  0.00     0.165 A 
HETATM   12  N7  UNL     1       5.960  13.676  38.642  1.00  0.00    -0.269 N 
HETATM   13  N8  UNL     1       5.993  12.428  38.962  1.00  0.00    -0.131 N 
ATOM     14  H7  UNL     1       5.241  14.342  38.924  1.00  0.00     0.189 HD
HETATM   15  C9  UNL     1       7.064  11.875  38.422  1.00  0.00     0.692 A 
ATOM     16  H8  UNL     1       5.304  11.945  39.539  1.00  0.00     0.205 HD
HETATM   17  N10 UNL     1       7.718  12.831  37.737  1.00  0.00    -0.172 N 
ATOM     18  H10 UNL     1       8.584  12.699  37.213  1.00  0.00     0.186 HD
BRANCH  15  19
HETATM   19  N9  UNL     1       7.405  10.636  38.540  1.00  0.00    -0.233 N 
ATOM     20  H92 UNL     1       7.836  10.049  37.824  1.00  0.00     0.174 HD
ATOM     21  H91 UNL     1       7.286  10.068  39.378  1.00  0.00     0.174 HD
ENDBRANCH  15  19
ENDBRANCH  10  11
BRANCH   7  22
HETATM   22  N2  UNL     1       5.475  18.532  37.750  1.00  0.00    -0.170 N 
HETATM   23  N3  UNL     1       5.447  19.190  38.900  1.00  0.00    -0.215 N 
HETATM   24  N4  UNL     1       4.412  20.003  38.880  1.00  0.00    -0.224 N 
ATOM     25  H3  UNL     1       6.111  19.084  39.667  1.00  0.00     0.210 HD
HETATM   26  N5  UNL     1       3.753  19.895  37.729  1.00  0.00    -0.234 N 
ATOM     27  H4  UNL     1       4.152  20.629  39.642  1.00  0.00     0.210 HD
HETATM   28  C6  UNL     1       4.419  18.967  37.011  1.00  0.00     0.364 A 
ATOM     29  H5  UNL     1       2.917  20.408  37.448  1.00  0.00     0.193 HD
HETATM   30  O1  UNL     1       4.100  18.584  35.857  1.00  0.00    -0.243 OA
ENDBRANCH   7  22
TORSDOF 3
ENDMDL
MODEL 5
REMARK VINA RESULT: -6.906405742      5.331      7.561
REMARK  3 active torsions:
REMARK  status: ('A' for Active; 'I' for Inactive)
REMARK    1  A    between atoms: C5_7  and  N2_8 
REMARK    2  A    between atoms: C7_19  and  C8_20 
REMARK    3  A    between atoms: C9_25  and  N9_26 
ROOT
HETATM    1  C1  UNL     1       9.047  14.458  35.890  1.00  0.00     0.070 C 
HETATM    2  C2  UNL     1       8.235  14.254  37.121  1.00  0.00     0.036 A 
HETATM    3  N1  UNL     1       8.188  12.966  37.634  1.00  0.00    -0.358 N 
ATOM      4  H1  UNL     1       8.701  12.221  37.161  1.00  0.00     0.165 HD
HETATM    5  C3  UNL     1       7.488  12.681  38.731  1.00  0.00     0.052 A 
HETATM    6  C4  UNL     1       7.402  11.323  39.322  1.00  0.00     0.072 C 
HETATM    7  C5  UNL     1       6.816  13.726  39.328  1.00  0.00     0.156 A 
HETATM    8  N6  UNL     1       6.850  14.972  38.849  1.00  0.00    -0.335 N 
ATOM      9  H6  UNL     1       6.335  15.711  39.328  1.00  0.00     0.168 HD
HETATM   10  C7  UNL     1       7.575  15.272  37.711  1.00  0.00     0.102 A 
ENDROOT
BRANCH  10  11
HETATM   11  C8  UNL     1       7.576  16.645  37.235  1.00  0.00     0.165 A 
HETATM   12  N7  UNL     1       6.368  17.316  37.140  1.00  0.00    -0.269 N 
HETATM   13  N8  UNL     1       6.588  18.507  36.701  1.00  0.00    -0.131 N 
ATOM     14  H7  UNL     1       5.455  16.930  37.378  1.00  0.00     0.189 HD
HETATM   15  C9  UNL     1       7.885  18.658  36.502  1.00  0.00     0.692 A 
ATOM     16  H8  UNL     1       5.876  19.219  36.535  1.00  0.00     0.205 HD
HETATM   17  N10 UNL     1       8.488  17.502  36.835  1.00  0.00    -0.172 N 
ATOM     18  H10 UNL     1       9.491  17.321  36.785  1.00  0.00     0.186 HD
BRANCH  15  19
HETATM   19  N9  UNL     1       8.454  19.731  36.065  1.00  0.00    -0.233 N 
ATOM     20  H92 UNL     1       8.125  20.689  36.182  1.00  0.00     0.174 HD
ATOM     21  H91 UNL     1       9.325  19.764  35.534  1.00  0.00     0.174 HD
ENDBRANCH  15  19
ENDBRANCH  10  11
BRANCH   7  22
HETATM   22  N2  UNL     1       6.060  13.424  40.510  1.00  0.00    -0.170 N 
HETATM   23  N3  UNL     1       5.129  12.490  40.645  1.00  0.00    -0.215 N 
HETATM   24  N4  UNL     1       4.679  12.538  41.882  1.00  0.00    -0.224 N 
ATOM     25  H3  UNL     1       4.814  11.847  39.918  1.00  0.00     0.210 HD
HETATM   26  N5  UNL     1       5.303  13.491  42.570  1.00  0.00    -0.234 N 
ATOM     27  H4  UNL     1       3.954  11.929  42.259  1.00  0.00     0.210 HD
HETATM   28  C6  UNL     1       6.176  14.054  41.708  1.00  0.00     0.364 A 
ATOM     29  H5  UNL     1       5.153  13.744  43.547  1.00  0.00     0.193 HD
HETATM   30  O1  UNL     1       6.954  15.001  41.988  1.00  0.00    -0.243 OA
ENDBRANCH   7  22
TORSDOF 3
ENDMDL
