MODEL 1
REMARK VINA RESULT: -7.160540881      0.000      0.000
REMARK  4 active torsions:
REMARK  status: ('A' for Active; 'I' for Inactive)
REMARK    1  A    between atoms: C3_8  and  C4_9 
REMARK    2  A    between atoms: C4_9  and  N3_10 
REMARK    3  A    between atoms: C4_9  and  C7_20 
REMARK       I    between atoms: C7_20  and  N6_22 
REMARK    4  A    between atoms: N6_22  and  N7_24 
ROOT
HETATM    1  C4  UNL     1       2.903  19.637  38.223  1.00  0.00     0.233 C 
ENDROOT
BRANCH   1   2
HETATM    2  C3  UNL     1       4.022  19.375  37.296  1.00  0.00     0.090 A 
HETATM    3  C2  UNL     1       5.260  18.899  37.638  1.00  0.00     0.057 A 
HETATM    4  C1  UNL     1       5.803  18.528  38.959  1.00  0.00     0.072 C 
HETATM    5  N1  UNL     1       5.953  18.821  36.461  1.00  0.00    -0.244 N 
HETATM    6  O1  UNL     1       5.185  19.219  35.510  1.00  0.00    -0.157 OA
ATOM      7  H1  UNL     1       6.915  18.501  36.357  1.00  0.00     0.196 HD
HETATM    8  N2  UNL     1       4.002  19.566  35.971  1.00  0.00    -0.241 N 
ATOM      9  H2  UNL     1       3.217  19.915  35.422  1.00  0.00     0.196 HD
ENDBRANCH   1   2
BRANCH   1  10
HETATM   10  N3  UNL     1       3.376  20.410  39.322  1.00  0.00    -0.336 N 
HETATM   11  C5  UNL     1       2.662  20.651  40.385  1.00  0.00     0.242 A 
HETATM   12  N4  UNL     1       1.410  20.260  40.676  1.00  0.00    -0.262 N 
HETATM   13  O2  UNL     1       3.066  21.355  41.407  1.00  0.00    -0.249 OA
HETATM   14  N5  UNL     1       1.065  20.728  41.870  1.00  0.00    -0.267 N 
ATOM     15  H4  UNL     1       0.816  19.691  40.073  1.00  0.00     0.190 HD
HETATM   16  C6  UNL     1       2.134  21.427  42.328  1.00  0.00     0.236 A 
ATOM     17  H5  UNL     1       0.175  20.589  42.347  1.00  0.00     0.190 HD
HETATM   18  S1  UNL     1       2.269  22.224  43.756  1.00  0.00    -0.031 SA
ATOM     19  H3  UNL     1       4.319  20.794  39.274  1.00  0.00     0.164 HD
ENDBRANCH   1  10
BRANCH   1  20
HETATM   20  C7  UNL     1       1.836  20.396  37.484  1.00  0.00     0.264 C 
HETATM   21  O3  UNL     1       2.179  21.480  36.926  1.00  0.00    -0.269 OA
HETATM   22  N6  UNL     1       0.523  19.916  37.423  1.00  0.00    -0.275 N 
ATOM     23  H6  UNL     1       0.268  19.041  37.880  1.00  0.00     0.189 HD
BRANCH  22  24
HETATM   24  N7  UNL     1      -0.434  20.657  36.724  1.00  0.00    -0.343 N 
ATOM     25  H72 UNL     1      -0.347  21.672  36.675  1.00  0.00     0.176 HD
ATOM     26  H71 UNL     1      -1.205  20.165  36.275  1.00  0.00     0.176 HD
ENDBRANCH  22  24
ENDBRANCH   1  20
TORSDOF 4
ENDMDL
MODEL 2
REMARK VINA RESULT: -7.158545433      3.449      5.600
REMARK  4 active torsions:
REMARK  status: ('A' for Active; 'I' for Inactive)
REMARK    1  A    between atoms: C3_8  and  C4_9 
REMARK    2  A    between atoms: C4_9  and  N3_10 
REMARK    3  A    between atoms: C4_9  and  C7_20 
REMARK       I    between atoms: C7_20  and  N6_22 
REMARK    4  A    between atoms: N6_22  and  N7_24 
ROOT
HETATM    1  C4  UNL     1       6.533  17.987  37.737  1.00  0.00     0.233 C 
ENDROOT
BRANCH   1   2
HETATM    2  C3  UNL     1       7.042  16.911  38.611  1.00  0.00     0.090 A 
HETATM    3  C2  UNL     1       7.627  15.744  38.197  1.00  0.00     0.057 A 
HETATM    4  C1  UNL     1       7.904  15.251  36.834  1.00  0.00     0.072 C 
HETATM    5  N1  UNL     1       7.931  15.067  39.347  1.00  0.00    -0.244 N 
HETATM    6  O1  UNL     1       7.555  15.779  40.349  1.00  0.00    -0.157 OA
ATOM      7  H1  UNL     1       8.380  14.153  39.399  1.00  0.00     0.196 HD
HETATM    8  N2  UNL     1       7.010  16.908  39.949  1.00  0.00    -0.241 N 
ATOM      9  H2  UNL     1       6.632  17.643  40.547  1.00  0.00     0.196 HD
ENDBRANCH   1   2
BRANCH   1  10
HETATM   10  N3  UNL     1       5.451  18.647  38.387  1.00  0.00    -0.336 N 
HETATM   11  C5  UNL     1       4.458  19.193  37.744  1.00  0.00     0.242 A 
HETATM   12  N4  UNL     1       4.234  19.260  36.421  1.00  0.00    -0.262 N 
HETATM   13  O2  UNL     1       3.453  19.804  38.310  1.00  0.00    -0.249 OA
HETATM   14  N5  UNL     1       3.098  19.908  36.195  1.00  0.00    -0.267 N 
ATOM     15  H4  UNL     1       4.844  18.871  35.701  1.00  0.00     0.190 HD
HETATM   16  C6  UNL     1       2.608  20.252  37.412  1.00  0.00     0.236 A 
ATOM     17  H5  UNL     1       2.678  20.109  35.288  1.00  0.00     0.190 HD
HETATM   18  S1  UNL     1       1.223  21.072  37.737  1.00  0.00    -0.031 SA
ATOM     19  H3  UNL     1       5.454  18.694  39.406  1.00  0.00     0.164 HD
ENDBRANCH   1  10
BRANCH   1  20
HETATM   20  C7  UNL     1       7.648  18.962  37.478  1.00  0.00     0.264 C 
HETATM   21  O3  UNL     1       7.872  19.833  38.370  1.00  0.00    -0.269 OA
HETATM   22  N6  UNL     1       8.398  18.903  36.298  1.00  0.00    -0.275 N 
ATOM     23  H6  UNL     1       8.200  18.194  35.593  1.00  0.00     0.189 HD
BRANCH  22  24
HETATM   24  N7  UNL     1       9.423  19.832  36.104  1.00  0.00    -0.343 N 
ATOM     25  H72 UNL     1       9.810  20.330  36.905  1.00  0.00     0.176 HD
ATOM     26  H71 UNL     1       9.766  19.995  35.157  1.00  0.00     0.176 HD
ENDBRANCH  22  24
ENDBRANCH   1  20
TORSDOF 4
ENDMDL
MODEL 3
REMARK VINA RESULT: -6.958790914      4.131      6.594
REMARK  4 active torsions:
REMARK  status: ('A' for Active; 'I' for Inactive)
REMARK    1  A    between atoms: C3_8  and  C4_9 
REMARK    2  A    between atoms: C4_9  and  N3_10 
REMARK    3  A    between atoms: C4_9  and  C7_20 
REMARK       I    between atoms: C7_20  and  N6_22 
REMARK    4  A    between atoms: N6_22  and  N7_24 
ROOT
HETATM    1  C4  UNL     1       6.414  18.491  37.730  1.00  0.00     0.233 C 
ENDROOT
BRANCH   1   2
HETATM    2  C3  UNL     1       5.132  19.041  37.246  1.00  0.00     0.090 A 
HETATM    3  C2  UNL     1       4.079  19.442  38.025  1.00  0.00     0.057 A 
HETATM    4  C1  UNL     1       3.932  19.445  39.494  1.00  0.00     0.072 C 
HETATM    5  N1  UNL     1       3.124  19.871  37.146  1.00  0.00    -0.244 N 
HETATM    6  O1  UNL     1       3.578  19.732  35.951  1.00  0.00    -0.157 OA
ATOM      7  H1  UNL     1       2.206  20.239  37.395  1.00  0.00     0.196 HD
HETATM    8  N2  UNL     1       4.795  19.230  35.964  1.00  0.00    -0.241 N 
ATOM      9  H2  UNL     1       5.373  19.023  35.150  1.00  0.00     0.196 HD
ENDBRANCH   1   2
BRANCH   1  10
HETATM   10  N3  UNL     1       6.634  17.217  37.134  1.00  0.00    -0.336 N 
HETATM   11  C5  UNL     1       6.789  16.123  37.824  1.00  0.00     0.242 A 
HETATM   12  N4  UNL     1       6.780  15.948  39.156  1.00  0.00    -0.262 N 
HETATM   13  O2  UNL     1       6.991  14.941  37.308  1.00  0.00    -0.249 OA
HETATM   14  N5  UNL     1       6.976  14.666  39.437  1.00  0.00    -0.267 N 
ATOM     15  H4  UNL     1       6.643  16.688  39.846  1.00  0.00     0.190 HD
HETATM   16  C6  UNL     1       7.110  14.032  38.246  1.00  0.00     0.236 A 
ATOM     17  H5  UNL     1       7.017  14.242  40.364  1.00  0.00     0.190 HD
HETATM   18  S1  UNL     1       7.372  12.432  37.989  1.00  0.00    -0.031 SA
ATOM     19  H3  UNL     1       6.671  17.158  36.117  1.00  0.00     0.164 HD
ENDBRANCH   1  10
BRANCH   1  20
HETATM   20  C7  UNL     1       7.517  19.436  37.342  1.00  0.00     0.264 C 
HETATM   21  O3  UNL     1       7.635  20.498  38.022  1.00  0.00    -0.269 OA
HETATM   22  N6  UNL     1       8.370  19.146  36.271  1.00  0.00    -0.275 N 
ATOM     23  H6  UNL     1       8.257  18.285  35.736  1.00  0.00     0.189 HD
BRANCH  22  24
HETATM   24  N7  UNL     1       9.380  20.056  35.948  1.00  0.00    -0.343 N 
ATOM     25  H72 UNL     1       9.981  20.424  36.685  1.00  0.00     0.176 HD
ATOM     26  H71 UNL     1       9.497  20.336  34.975  1.00  0.00     0.176 HD
ENDBRANCH  22  24
ENDBRANCH   1  20
TORSDOF 4
ENDMDL
MODEL 4
REMARK VINA RESULT: -6.922488211      3.460      5.805
REMARK  4 active torsions:
REMARK  status: ('A' for Active; 'I' for Inactive)
REMARK    1  A    between atoms: C3_8  and  C4_9 
REMARK    2  A    between atoms: C4_9  and  N3_10 
REMARK    3  A    between atoms: C4_9  and  C7_20 
REMARK       I    between atoms: C7_20  and  N6_22 
REMARK    4  A    between atoms: N6_22  and  N7_24 
ROOT
HETATM    1  C4  UNL     1       6.934  17.530  36.870  1.00  0.00     0.233 C 
ENDROOT
BRANCH   1   2
HETATM    2  C3  UNL     1       7.327  16.215  37.413  1.00  0.00     0.090 A 
HETATM    3  C2  UNL     1       7.179  15.800  38.710  1.00  0.00     0.057 A 
HETATM    4  C1  UNL     1       6.613  16.508  39.875  1.00  0.00     0.072 C 
HETATM    5  N1  UNL     1       7.681  14.528  38.740  1.00  0.00    -0.244 N 
HETATM    6  O1  UNL     1       8.089  14.224  37.559  1.00  0.00    -0.157 OA
ATOM      7  H1  UNL     1       7.724  13.923  39.560  1.00  0.00     0.196 HD
HETATM    8  N2  UNL     1       7.894  15.219  36.721  1.00  0.00    -0.241 N 
ATOM      9  H2  UNL     1       8.131  15.230  35.729  1.00  0.00     0.196 HD
ENDBRANCH   1   2
BRANCH   1  10
HETATM   10  N3  UNL     1       6.002  18.144  37.755  1.00  0.00    -0.336 N 
HETATM   11  C5  UNL     1       4.953  18.799  37.346  1.00  0.00     0.242 A 
HETATM   12  N4  UNL     1       4.532  19.034  36.092  1.00  0.00    -0.262 N 
HETATM   13  O2  UNL     1       4.082  19.372  38.131  1.00  0.00    -0.249 OA
HETATM   14  N5  UNL     1       3.411  19.745  36.125  1.00  0.00    -0.267 N 
ATOM     15  H4  UNL     1       5.001  18.715  35.243  1.00  0.00     0.190 HD
HETATM   16  C6  UNL     1       3.134  19.955  37.436  1.00  0.00     0.236 A 
ATOM     17  H5  UNL     1       2.868  20.069  35.325  1.00  0.00     0.190 HD
HETATM   18  S1  UNL     1       1.862  20.778  38.069  1.00  0.00    -0.031 SA
ATOM     19  H3  UNL     1       6.165  18.067  38.759  1.00  0.00     0.164 HD
ENDBRANCH   1  10
BRANCH   1  20
HETATM   20  C7  UNL     1       8.164  18.385  36.747  1.00  0.00     0.264 C 
HETATM   21  O3  UNL     1       9.197  18.005  37.375  1.00  0.00    -0.269 OA
HETATM   22  N6  UNL     1       8.158  19.550  35.971  1.00  0.00    -0.275 N 
ATOM     23  H6  UNL     1       7.316  19.837  35.473  1.00  0.00     0.189 HD
BRANCH  22  24
HETATM   24  N7  UNL     1       9.327  20.311  35.888  1.00  0.00    -0.343 N 
ATOM     25  H72 UNL     1       9.528  21.005  36.608  1.00  0.00     0.176 HD
ATOM     26  H71 UNL     1       9.961  20.157  35.105  1.00  0.00     0.176 HD
ENDBRANCH  22  24
ENDBRANCH   1  20
TORSDOF 4
ENDMDL
MODEL 5
REMARK VINA RESULT: -6.392256620      4.157      5.581
REMARK  4 active torsions:
REMARK  status: ('A' for Active; 'I' for Inactive)
REMARK    1  A    between atoms: C3_8  and  C4_9 
REMARK    2  A    between atoms: C4_9  and  N3_10 
REMARK    3  A    between atoms: C4_9  and  C7_20 
REMARK       I    between atoms: C7_20  and  N6_22 
REMARK    4  A    between atoms: N6_22  and  N7_24 
ROOT
HETATM    1  C4  UNL     1       6.099  17.978  37.990  1.00  0.00     0.233 C 
ENDROOT
BRANCH   1   2
HETATM    2  C3  UNL     1       7.272  18.696  37.454  1.00  0.00     0.090 A 
HETATM    3  C2  UNL     1       8.296  18.144  36.731  1.00  0.00     0.057 A 
HETATM    4  C1  UNL     1       8.508  16.750  36.298  1.00  0.00     0.072 C 
HETATM    5  N1  UNL     1       9.144  19.182  36.459  1.00  0.00    -0.244 N 
HETATM    6  O1  UNL     1       8.659  20.252  36.980  1.00  0.00    -0.157 OA
ATOM      7  H1  UNL     1      10.015  19.118  35.931  1.00  0.00     0.196 HD
HETATM    8  N2  UNL     1       7.522  20.004  37.596  1.00  0.00    -0.241 N 
ATOM      9  H2  UNL     1       6.940  20.681  38.089  1.00  0.00     0.196 HD
ENDBRANCH   1   2
BRANCH   1  10
HETATM   10  N3  UNL     1       6.371  17.563  39.324  1.00  0.00    -0.336 N 
HETATM   11  C5  UNL     1       6.670  16.336  39.644  1.00  0.00     0.242 A 
HETATM   12  N4  UNL     1       6.784  15.255  38.855  1.00  0.00    -0.262 N 
HETATM   13  O2  UNL     1       6.925  15.925  40.856  1.00  0.00    -0.249 OA
HETATM   14  N5  UNL     1       7.107  14.199  39.593  1.00  0.00    -0.267 N 
ATOM     15  H4  UNL     1       6.644  15.246  37.844  1.00  0.00     0.190 HD
HETATM   16  C6  UNL     1       7.194  14.641  40.872  1.00  0.00     0.236 A 
ATOM     17  H5  UNL     1       7.258  13.246  39.263  1.00  0.00     0.190 HD
HETATM   18  S1  UNL     1       7.562  13.764  42.210  1.00  0.00    -0.031 SA
ATOM     19  H3  UNL     1       6.330  18.261  40.067  1.00  0.00     0.164 HD
ENDBRANCH   1  10
BRANCH   1  20
HETATM   20  C7  UNL     1       4.919  18.910  37.973  1.00  0.00     0.264 C 
HETATM   21  O3  UNL     1       4.663  19.538  39.043  1.00  0.00    -0.269 OA
HETATM   22  N6  UNL     1       4.141  19.067  36.820  1.00  0.00    -0.275 N 
ATOM     23  H6  UNL     1       4.364  18.551  35.969  1.00  0.00     0.189 HD
BRANCH  22  24
HETATM   24  N7  UNL     1       3.054  19.944  36.854  1.00  0.00    -0.343 N 
ATOM     25  H72 UNL     1       2.916  20.544  37.667  1.00  0.00     0.176 HD
ATOM     26  H71 UNL     1       2.415  19.967  36.060  1.00  0.00     0.176 HD
ENDBRANCH  22  24
ENDBRANCH   1  20
TORSDOF 4
ENDMDL
