MODEL 1
REMARK VINA RESULT: -5.764672732      0.000      0.000
REMARK  14 active torsions:
REMARK  status: ('A' for Active; 'I' for Inactive)
REMARK    1  A    between atoms: C3_3  and  C4_4 
REMARK    2  A    between atoms: C4_4  and  C5_5 
REMARK    3  A    between atoms: C5_5  and  C6_6 
REMARK    4  A    between atoms: C6_6  and  C7_7 
REMARK    5  A    between atoms: C7_7  and  C8_8 
REMARK    6  A    between atoms: C8_8  and  C9_9 
REMARK    7  A    between atoms: C9_9  and  C10_10 
REMARK    8  A    between atoms: C10_10  and  C11_11 
REMARK    9  A    between atoms: C11_11  and  C12_12 
REMARK   10  A    between atoms: C12_12  and  C13_13 
REMARK   11  A    between atoms: C13_13  and  C14_14 
REMARK   12  A    between atoms: C14_14  and  C15_15 
REMARK   13  A    between atoms: C15_15  and  C16_16 
REMARK   14  A    between atoms: C16_16  and  C17_17 
ROOT
HETATM    1  C1  UNL     1     -47.294  73.178  -8.679  1.00  0.00     0.012 C 
HETATM    2  C2  UNL     1     -48.106  72.990  -7.791  1.00  0.00    -0.117 C 
HETATM    3  C3  UNL     1     -49.081  72.744  -6.719  1.00  0.00     0.093 C 
ENDROOT
BRANCH   3   4
HETATM    4  C4  UNL     1     -50.479  72.982  -7.333  1.00  0.00     0.012 C 
BRANCH   4   5
HETATM    5  C5  UNL     1     -50.775  71.847  -8.239  1.00  0.00     0.001 C 
BRANCH   5   6
HETATM    6  C6  UNL     1     -51.908  72.180  -9.177  1.00  0.00     0.000 C 
BRANCH   6   7
HETATM    7  C7  UNL     1     -51.440  72.128 -10.595  1.00  0.00     0.000 C 
BRANCH   7   8
HETATM    8  C8  UNL     1     -52.142  71.033 -11.349  1.00  0.00     0.000 C 
BRANCH   8   9
HETATM    9  C9  UNL     1     -52.015  71.281 -12.835  1.00  0.00     0.000 C 
BRANCH   9  10
HETATM   10  C10 UNL     1     -51.614  70.014 -13.563  1.00  0.00     0.000 C 
BRANCH  10  11
HETATM   11  C11 UNL     1     -52.567  68.911 -13.179  1.00  0.00     0.000 C 
BRANCH  11  12
HETATM   12  C12 UNL     1     -51.821  67.632 -13.024  1.00  0.00     0.000 C 
BRANCH  12  13
HETATM   13  C13 UNL     1     -50.424  67.877 -12.528  1.00  0.00     0.000 C 
BRANCH  13  14
HETATM   14  C14 UNL     1     -49.898  66.728 -11.751  1.00  0.00     0.000 C 
BRANCH  14  15
HETATM   15  C15 UNL     1     -50.232  66.806 -10.256  1.00  0.00     0.000 C 
BRANCH  15  16
HETATM   16  C16 UNL     1     -50.262  68.212  -9.798  1.00  0.00     0.006 C 
BRANCH  16  17
HETATM   17  C17 UNL     1     -49.030  68.650  -9.058  1.00  0.00     0.011 C 
HETATM   18  C18 UNL     1     -48.280  69.693  -9.857  1.00  0.00     0.008 C 
HETATM   19  C19 UNL     1     -47.092  69.036 -10.541  1.00  0.00     0.028 C 
HETATM   20  C20 UNL     1     -46.176  68.509  -9.489  1.00  0.00     0.232 C 
HETATM   21  N1  UNL     1     -46.851  68.145  -8.259  1.00  0.00    -0.075 N 
HETATM   22  C21 UNL     1     -48.128  67.534  -8.658  1.00  0.00     0.237 C 
ATOM     23  H12 UNL     1     -46.290  67.550  -7.649  1.00  0.00     0.277 HD
ATOM     24  H11 UNL     1     -46.960  68.924  -7.610  1.00  0.00     0.277 HD
ENDBRANCH  16  17
ENDBRANCH  15  16
ENDBRANCH  14  15
ENDBRANCH  13  14
ENDBRANCH  12  13
ENDBRANCH  11  12
ENDBRANCH  10  11
ENDBRANCH   9  10
ENDBRANCH   8   9
ENDBRANCH   7   8
ENDBRANCH   6   7
ENDBRANCH   5   6
ENDBRANCH   4   5
ENDBRANCH   3   4
TORSDOF 14
ENDMDL
MODEL 2
REMARK VINA RESULT: -5.749895583      3.054      6.422
REMARK  14 active torsions:
REMARK  status: ('A' for Active; 'I' for Inactive)
REMARK    1  A    between atoms: C3_3  and  C4_4 
REMARK    2  A    between atoms: C4_4  and  C5_5 
REMARK    3  A    between atoms: C5_5  and  C6_6 
REMARK    4  A    between atoms: C6_6  and  C7_7 
REMARK    5  A    between atoms: C7_7  and  C8_8 
REMARK    6  A    between atoms: C8_8  and  C9_9 
REMARK    7  A    between atoms: C9_9  and  C10_10 
REMARK    8  A    between atoms: C10_10  and  C11_11 
REMARK    9  A    between atoms: C11_11  and  C12_12 
REMARK   10  A    between atoms: C12_12  and  C13_13 
REMARK   11  A    between atoms: C13_13  and  C14_14 
REMARK   12  A    between atoms: C14_14  and  C15_15 
REMARK   13  A    between atoms: C15_15  and  C16_16 
REMARK   14  A    between atoms: C16_16  and  C17_17 
ROOT
HETATM    1  C1  UNL     1     -44.699  70.450  -5.623  1.00  0.00     0.012 C 
HETATM    2  C2  UNL     1     -45.541  69.595  -5.413  1.00  0.00    -0.117 C 
HETATM    3  C3  UNL     1     -46.562  68.573  -5.142  1.00  0.00     0.093 C 
ENDROOT
BRANCH   3   4
HETATM    4  C4  UNL     1     -45.802  67.267  -4.818  1.00  0.00     0.012 C 
BRANCH   4   5
HETATM    5  C5  UNL     1     -45.341  66.681  -6.099  1.00  0.00     0.001 C 
BRANCH   5   6
HETATM    6  C6  UNL     1     -43.868  66.363  -6.054  1.00  0.00     0.000 C 
BRANCH   6   7
HETATM    7  C7  UNL     1     -43.270  66.477  -7.419  1.00  0.00     0.000 C 
BRANCH   7   8
HETATM    8  C8  UNL     1     -44.279  67.004  -8.401  1.00  0.00     0.000 C 
BRANCH   8   9
HETATM    9  C9  UNL     1     -43.766  68.288  -9.012  1.00  0.00     0.000 C 
BRANCH   9  10
HETATM   10  C10 UNL     1     -44.853  69.342  -9.051  1.00  0.00     0.000 C 
BRANCH  10  11
HETATM   11  C11 UNL     1     -46.103  68.729  -9.630  1.00  0.00     0.000 C 
BRANCH  11  12
HETATM   12  C12 UNL     1     -47.279  69.583  -9.309  1.00  0.00     0.000 C 
BRANCH  12  13
HETATM   13  C13 UNL     1     -48.293  68.825  -8.499  1.00  0.00     0.000 C 
BRANCH  13  14
HETATM   14  C14 UNL     1     -49.631  68.824  -9.140  1.00  0.00     0.000 C 
BRANCH  14  15
HETATM   15  C15 UNL     1     -50.244  67.423  -9.257  1.00  0.00     0.000 C 
BRANCH  15  16
HETATM   16  C16 UNL     1     -49.370  66.533 -10.053  1.00  0.00     0.006 C 
BRANCH  16  17
HETATM   17  C17 UNL     1     -49.629  66.570 -11.532  1.00  0.00     0.011 C 
HETATM   18  C18 UNL     1     -48.395  67.041 -12.269  1.00  0.00     0.008 C 
HETATM   19  C19 UNL     1     -48.572  68.501 -12.654  1.00  0.00     0.028 C 
HETATM   20  C20 UNL     1     -49.735  68.604 -13.582  1.00  0.00     0.232 C 
HETATM   21  N1  UNL     1     -50.735  67.574 -13.378  1.00  0.00    -0.075 N 
HETATM   22  C21 UNL     1     -50.822  67.369 -11.925  1.00  0.00     0.237 C 
ATOM     23  H12 UNL     1     -51.633  67.788 -13.812  1.00  0.00     0.277 HD
ATOM     24  H11 UNL     1     -50.545  66.717 -13.898  1.00  0.00     0.277 HD
ENDBRANCH  16  17
ENDBRANCH  15  16
ENDBRANCH  14  15
ENDBRANCH  13  14
ENDBRANCH  12  13
ENDBRANCH  11  12
ENDBRANCH  10  11
ENDBRANCH   9  10
ENDBRANCH   8   9
ENDBRANCH   7   8
ENDBRANCH   6   7
ENDBRANCH   5   6
ENDBRANCH   4   5
ENDBRANCH   3   4
TORSDOF 14
ENDMDL
MODEL 3
REMARK VINA RESULT: -5.742705754      2.546      5.657
REMARK  14 active torsions:
REMARK  status: ('A' for Active; 'I' for Inactive)
REMARK    1  A    between atoms: C3_3  and  C4_4 
REMARK    2  A    between atoms: C4_4  and  C5_5 
REMARK    3  A    between atoms: C5_5  and  C6_6 
REMARK    4  A    between atoms: C6_6  and  C7_7 
REMARK    5  A    between atoms: C7_7  and  C8_8 
REMARK    6  A    between atoms: C8_8  and  C9_9 
REMARK    7  A    between atoms: C9_9  and  C10_10 
REMARK    8  A    between atoms: C10_10  and  C11_11 
REMARK    9  A    between atoms: C11_11  and  C12_12 
REMARK   10  A    between atoms: C12_12  and  C13_13 
REMARK   11  A    between atoms: C13_13  and  C14_14 
REMARK   12  A    between atoms: C14_14  and  C15_15 
REMARK   13  A    between atoms: C15_15  and  C16_16 
REMARK   14  A    between atoms: C16_16  and  C17_17 
ROOT
HETATM    1  C1  UNL     1     -50.145  67.262  -9.421  1.00  0.00     0.012 C 
HETATM    2  C2  UNL     1     -49.800  68.418  -9.246  1.00  0.00    -0.117 C 
HETATM    3  C3  UNL     1     -49.377  69.807  -9.017  1.00  0.00     0.093 C 
ENDROOT
BRANCH   3   4
HETATM    4  C4  UNL     1     -50.669  70.647  -8.905  1.00  0.00     0.012 C 
BRANCH   4   5
HETATM    5  C5  UNL     1     -50.288  72.077  -8.988  1.00  0.00     0.001 C 
BRANCH   5   6
HETATM    6  C6  UNL     1     -50.838  72.857  -7.820  1.00  0.00     0.000 C 
BRANCH   6   7
HETATM    7  C7  UNL     1     -49.725  73.346  -6.952  1.00  0.00     0.000 C 
BRANCH   7   8
HETATM    8  C8  UNL     1     -49.515  72.424  -5.783  1.00  0.00     0.000 C 
BRANCH   8   9
HETATM    9  C9  UNL     1     -48.232  71.648  -5.976  1.00  0.00     0.000 C 
BRANCH   9  10
HETATM   10  C10 UNL     1     -47.044  72.582  -6.086  1.00  0.00     0.000 C 
BRANCH  10  11
HETATM   11  C11 UNL     1     -46.029  71.969  -7.017  1.00  0.00     0.000 C 
BRANCH  11  12
HETATM   12  C12 UNL     1     -46.496  72.093  -8.424  1.00  0.00     0.000 C 
BRANCH  12  13
HETATM   13  C13 UNL     1     -45.936  70.991  -9.279  1.00  0.00     0.000 C 
BRANCH  13  14
HETATM   14  C14 UNL     1     -44.730  70.373  -8.673  1.00  0.00     0.000 C 
BRANCH  14  15
HETATM   15  C15 UNL     1     -44.641  68.861  -8.912  1.00  0.00     0.000 C 
BRANCH  15  16
HETATM   16  C16 UNL     1     -45.985  68.244  -8.874  1.00  0.00     0.006 C 
BRANCH  16  17
HETATM   17  C17 UNL     1     -46.211  67.319  -7.711  1.00  0.00     0.011 C 
HETATM   18  C18 UNL     1     -47.105  67.977  -6.684  1.00  0.00     0.008 C 
HETATM   19  C19 UNL     1     -46.250  68.488  -5.535  1.00  0.00     0.028 C 
HETATM   20  C20 UNL     1     -45.582  67.320  -4.891  1.00  0.00     0.232 C 
HETATM   21  N1  UNL     1     -45.347  66.212  -5.797  1.00  0.00    -0.075 N 
HETATM   22  C21 UNL     1     -44.961  66.809  -7.084  1.00  0.00     0.237 C 
ATOM     23  H12 UNL     1     -44.670  65.536  -5.444  1.00  0.00     0.277 HD
ATOM     24  H11 UNL     1     -46.139  65.572  -5.868  1.00  0.00     0.277 HD
ENDBRANCH  16  17
ENDBRANCH  15  16
ENDBRANCH  14  15
ENDBRANCH  13  14
ENDBRANCH  12  13
ENDBRANCH  11  12
ENDBRANCH  10  11
ENDBRANCH   9  10
ENDBRANCH   8   9
ENDBRANCH   7   8
ENDBRANCH   6   7
ENDBRANCH   5   6
ENDBRANCH   4   5
ENDBRANCH   3   4
TORSDOF 14
ENDMDL
MODEL 4
REMARK VINA RESULT: -5.705454991      3.570      5.947
REMARK  14 active torsions:
REMARK  status: ('A' for Active; 'I' for Inactive)
REMARK    1  A    between atoms: C3_3  and  C4_4 
REMARK    2  A    between atoms: C4_4  and  C5_5 
REMARK    3  A    between atoms: C5_5  and  C6_6 
REMARK    4  A    between atoms: C6_6  and  C7_7 
REMARK    5  A    between atoms: C7_7  and  C8_8 
REMARK    6  A    between atoms: C8_8  and  C9_9 
REMARK    7  A    between atoms: C9_9  and  C10_10 
REMARK    8  A    between atoms: C10_10  and  C11_11 
REMARK    9  A    between atoms: C11_11  and  C12_12 
REMARK   10  A    between atoms: C12_12  and  C13_13 
REMARK   11  A    between atoms: C13_13  and  C14_14 
REMARK   12  A    between atoms: C14_14  and  C15_15 
REMARK   13  A    between atoms: C15_15  and  C16_16 
REMARK   14  A    between atoms: C16_16  and  C17_17 
ROOT
HETATM    1  C1  UNL     1     -45.059  66.210  -5.252  1.00  0.00     0.012 C 
HETATM    2  C2  UNL     1     -45.654  67.274  -5.260  1.00  0.00    -0.117 C 
HETATM    3  C3  UNL     1     -46.379  68.552  -5.288  1.00  0.00     0.093 C 
ENDROOT
BRANCH   3   4
HETATM    4  C4  UNL     1     -45.314  69.660  -5.444  1.00  0.00     0.012 C 
BRANCH   4   5
HETATM    5  C5  UNL     1     -45.838  70.661  -6.403  1.00  0.00     0.001 C 
BRANCH   5   6
HETATM    6  C6  UNL     1     -47.255  70.339  -6.806  1.00  0.00     0.000 C 
BRANCH   6   7
HETATM    7  C7  UNL     1     -47.507  70.778  -8.212  1.00  0.00     0.000 C 
BRANCH   7   8
HETATM    8  C8  UNL     1     -48.957  70.612  -8.571  1.00  0.00     0.000 C 
BRANCH   8   9
HETATM    9  C9  UNL     1     -49.211  69.186  -9.002  1.00  0.00     0.000 C 
BRANCH   9  10
HETATM   10  C10 UNL     1     -48.797  68.974 -10.445  1.00  0.00     0.000 C 
BRANCH  10  11
HETATM   11  C11 UNL     1     -47.642  68.006 -10.481  1.00  0.00     0.000 C 
BRANCH  11  12
HETATM   12  C12 UNL     1     -47.678  67.132  -9.277  1.00  0.00     0.000 C 
BRANCH  12  13
HETATM   13  C13 UNL     1     -46.290  66.804  -8.805  1.00  0.00     0.000 C 
BRANCH  13  14
HETATM   14  C14 UNL     1     -45.351  67.936  -9.005  1.00  0.00     0.000 C 
BRANCH  14  15
HETATM   15  C15 UNL     1     -43.921  67.622  -8.546  1.00  0.00     0.000 C 
BRANCH  15  16
HETATM   16  C16 UNL     1     -43.104  68.854  -8.500  1.00  0.00     0.006 C 
BRANCH  16  17
HETATM   17  C17 UNL     1     -43.027  69.597  -9.804  1.00  0.00     0.011 C 
HETATM   18  C18 UNL     1     -41.687  69.359 -10.465  1.00  0.00     0.008 C 
HETATM   19  C19 UNL     1     -40.798  70.570 -10.235  1.00  0.00     0.028 C 
HETATM   20  C20 UNL     1     -41.434  71.751 -10.886  1.00  0.00     0.232 C 
HETATM   21  N1  UNL     1     -42.880  71.666 -10.959  1.00  0.00    -0.075 N 
HETATM   22  C21 UNL     1     -43.318  71.053  -9.696  1.00  0.00     0.237 C 
ATOM     23  H12 UNL     1     -43.330  72.561 -11.152  1.00  0.00     0.277 HD
ATOM     24  H11 UNL     1     -43.216  71.174 -11.787  1.00  0.00     0.277 HD
ENDBRANCH  16  17
ENDBRANCH  15  16
ENDBRANCH  14  15
ENDBRANCH  13  14
ENDBRANCH  12  13
ENDBRANCH  11  12
ENDBRANCH  10  11
ENDBRANCH   9  10
ENDBRANCH   8   9
ENDBRANCH   7   8
ENDBRANCH   6   7
ENDBRANCH   5   6
ENDBRANCH   4   5
ENDBRANCH   3   4
TORSDOF 14
ENDMDL
MODEL 5
REMARK VINA RESULT: -5.683647306      2.458      5.932
REMARK  14 active torsions:
REMARK  status: ('A' for Active; 'I' for Inactive)
REMARK    1  A    between atoms: C3_3  and  C4_4 
REMARK    2  A    between atoms: C4_4  and  C5_5 
REMARK    3  A    between atoms: C5_5  and  C6_6 
REMARK    4  A    between atoms: C6_6  and  C7_7 
REMARK    5  A    between atoms: C7_7  and  C8_8 
REMARK    6  A    between atoms: C8_8  and  C9_9 
REMARK    7  A    between atoms: C9_9  and  C10_10 
REMARK    8  A    between atoms: C10_10  and  C11_11 
REMARK    9  A    between atoms: C11_11  and  C12_12 
REMARK   10  A    between atoms: C12_12  and  C13_13 
REMARK   11  A    between atoms: C13_13  and  C14_14 
REMARK   12  A    between atoms: C14_14  and  C15_15 
REMARK   13  A    between atoms: C15_15  and  C16_16 
REMARK   14  A    between atoms: C16_16  and  C17_17 
ROOT
HETATM    1  C1  UNL     1     -51.468  72.068 -10.043  1.00  0.00     0.012 C 
HETATM    2  C2  UNL     1     -51.130  72.448  -8.936  1.00  0.00    -0.117 C 
HETATM    3  C3  UNL     1     -50.715  72.922  -7.608  1.00  0.00     0.093 C 
ENDROOT
BRANCH   3   4
HETATM    4  C4  UNL     1     -49.626  71.945  -7.112  1.00  0.00     0.012 C 
BRANCH   4   5
HETATM    5  C5  UNL     1     -48.378  72.242  -7.854  1.00  0.00     0.001 C 
BRANCH   5   6
HETATM    6  C6  UNL     1     -47.162  71.873  -7.043  1.00  0.00     0.000 C 
BRANCH   6   7
HETATM    7  C7  UNL     1     -47.565  71.436  -5.672  1.00  0.00     0.000 C 
BRANCH   7   8
HETATM    8  C8  UNL     1     -46.698  70.304  -5.195  1.00  0.00     0.000 C 
BRANCH   8   9
HETATM    9  C9  UNL     1     -45.321  70.431  -5.806  1.00  0.00     0.000 C 
BRANCH   9  10
HETATM   10  C10 UNL     1     -44.444  69.259  -5.413  1.00  0.00     0.000 C 
BRANCH  10  11
HETATM   11  C11 UNL     1     -45.325  68.077  -5.099  1.00  0.00     0.000 C 
BRANCH  11  12
HETATM   12  C12 UNL     1     -45.115  67.008  -6.113  1.00  0.00     0.000 C 
BRANCH  12  13
HETATM   13  C13 UNL     1     -46.271  66.936  -7.070  1.00  0.00     0.000 C 
BRANCH  13  14
HETATM   14  C14 UNL     1     -45.925  67.480  -8.406  1.00  0.00     0.000 C 
BRANCH  14  15
HETATM   15  C15 UNL     1     -46.859  68.608  -8.860  1.00  0.00     0.000 C 
BRANCH  15  16
HETATM   16  C16 UNL     1     -48.173  68.502  -8.189  1.00  0.00     0.006 C 
BRANCH  16  17
HETATM   17  C17 UNL     1     -49.353  68.639  -9.109  1.00  0.00     0.011 C 
HETATM   18  C18 UNL     1     -50.155  67.357  -9.129  1.00  0.00     0.008 C 
HETATM   19  C19 UNL     1     -49.825  66.583 -10.395  1.00  0.00     0.028 C 
HETATM   20  C20 UNL     1     -50.235  67.406 -11.569  1.00  0.00     0.232 C 
HETATM   21  N1  UNL     1     -50.194  68.834 -11.321  1.00  0.00    -0.075 N 
HETATM   22  C21 UNL     1     -49.004  69.072 -10.490  1.00  0.00     0.237 C 
ATOM     23  H12 UNL     1     -50.212  69.395 -12.174  1.00  0.00     0.277 HD
ATOM     24  H11 UNL     1     -51.054  69.199 -10.912  1.00  0.00     0.277 HD
ENDBRANCH  16  17
ENDBRANCH  15  16
ENDBRANCH  14  15
ENDBRANCH  13  14
ENDBRANCH  12  13
ENDBRANCH  11  12
ENDBRANCH  10  11
ENDBRANCH   9  10
ENDBRANCH   8   9
ENDBRANCH   7   8
ENDBRANCH   6   7
ENDBRANCH   5   6
ENDBRANCH   4   5
ENDBRANCH   3   4
TORSDOF 14
ENDMDL
