MODEL 1
REMARK VINA RESULT: -6.048956135      0.000      0.000
REMARK  14 active torsions:
REMARK  status: ('A' for Active; 'I' for Inactive)
REMARK    1  A    between atoms: C4_4  and  C5_5 
REMARK    2  A    between atoms: C5_5  and  N1_6 
REMARK    3  A    between atoms: N1_6  and  C6_9 
REMARK    4  A    between atoms: C6_9  and  C7_10 
REMARK    5  A    between atoms: C7_10  and  C8_11 
REMARK    6  A    between atoms: C8_11  and  C9_12 
REMARK    7  A    between atoms: C9_12  and  C10_13 
REMARK    8  A    between atoms: C10_13  and  C11_14 
REMARK    9  A    between atoms: C11_14  and  C12_15 
REMARK   10  A    between atoms: C12_15  and  C13_16 
REMARK   11  A    between atoms: C13_16  and  C14_17 
REMARK   12  A    between atoms: C14_17  and  C15_18 
REMARK   13  A    between atoms: C15_18  and  C16_19 
REMARK   14  A    between atoms: C16_19  and  C17_20 
ROOT
HETATM    1  C7  UNL     1     -47.814  68.106  -8.844  1.00  0.00     0.027 C 
ENDROOT
BRANCH   1   2
HETATM    2  C6  UNL     1     -48.030  66.973  -9.822  1.00  0.00     0.232 C 
BRANCH   2   3
HETATM    3  N1  UNL     1     -47.658  67.357 -11.156  1.00  0.00    -0.075 N 
ATOM      4  H12 UNL     1     -46.750  66.973 -11.420  1.00  0.00     0.277 HD
ATOM      5  H11 UNL     1     -47.428  68.349 -11.212  1.00  0.00     0.277 HD
BRANCH   3   6
HETATM    6  C5  UNL     1     -48.684  66.994 -12.105  1.00  0.00     0.237 C 
BRANCH   6   7
HETATM    7  C4  UNL     1     -49.799  68.001 -12.151  1.00  0.00     0.015 C 
HETATM    8  C3  UNL     1     -49.682  68.941 -13.349  1.00  0.00     0.033 C 
HETATM    9  C2  UNL     1     -50.862  69.894 -13.244  1.00  0.00    -0.030 C 
HETATM   10  C1  UNL     1     -52.052  69.326 -13.103  1.00  0.00    -0.031 C 
HETATM   11  C21 UNL     1     -52.112  67.851 -13.064  1.00  0.00     0.027 C 
HETATM   12  C20 UNL     1     -51.122  67.330 -12.059  1.00  0.00     0.010 C 
ENDBRANCH   6   7
ENDBRANCH   3   6
ENDBRANCH   2   3
ENDBRANCH   1   2
BRANCH   1  13
HETATM   13  C8  UNL     1     -47.668  69.412  -9.582  1.00  0.00     0.002 C 
BRANCH  13  14
HETATM   14  C9  UNL     1     -48.599  70.433  -9.032  1.00  0.00     0.000 C 
BRANCH  14  15
HETATM   15  C10 UNL     1     -50.022  69.988  -9.141  1.00  0.00     0.000 C 
BRANCH  15  16
HETATM   16  C11 UNL     1     -50.857  71.069  -9.731  1.00  0.00     0.000 C 
BRANCH  16  17
HETATM   17  C12 UNL     1     -50.480  72.421  -9.177  1.00  0.00     0.000 C 
BRANCH  17  18
HETATM   18  C13 UNL     1     -51.235  72.810  -7.959  1.00  0.00     0.000 C 
BRANCH  18  19
HETATM   19  C14 UNL     1     -50.396  73.541  -6.929  1.00  0.00     0.000 C 
BRANCH  19  20
HETATM   20  C15 UNL     1     -49.674  72.518  -6.110  1.00  0.00     0.000 C 
BRANCH  20  21
HETATM   21  C16 UNL     1     -48.152  72.707  -6.169  1.00  0.00     0.004 C 
BRANCH  21  22
HETATM   22  C17 UNL     1     -47.533  71.429  -5.698  1.00  0.00    -0.014 A 
HETATM   23  C18 UNL     1     -46.179  71.128  -6.344  1.00  0.00     0.005 A 
HETATM   24  C19 UNL     1     -46.319  71.355  -4.876  1.00  0.00     0.005 A 
ENDBRANCH  21  22
ENDBRANCH  20  21
ENDBRANCH  19  20
ENDBRANCH  18  19
ENDBRANCH  17  18
ENDBRANCH  16  17
ENDBRANCH  15  16
ENDBRANCH  14  15
ENDBRANCH  13  14
ENDBRANCH   1  13
TORSDOF 14
ENDMDL
MODEL 2
REMARK VINA RESULT: -6.005076412      2.144      6.439
REMARK  14 active torsions:
REMARK  status: ('A' for Active; 'I' for Inactive)
REMARK    1  A    between atoms: C4_4  and  C5_5 
REMARK    2  A    between atoms: C5_5  and  N1_6 
REMARK    3  A    between atoms: N1_6  and  C6_9 
REMARK    4  A    between atoms: C6_9  and  C7_10 
REMARK    5  A    between atoms: C7_10  and  C8_11 
REMARK    6  A    between atoms: C8_11  and  C9_12 
REMARK    7  A    between atoms: C9_12  and  C10_13 
REMARK    8  A    between atoms: C10_13  and  C11_14 
REMARK    9  A    between atoms: C11_14  and  C12_15 
REMARK   10  A    between atoms: C12_15  and  C13_16 
REMARK   11  A    between atoms: C13_16  and  C14_17 
REMARK   12  A    between atoms: C14_17  and  C15_18 
REMARK   13  A    between atoms: C15_18  and  C16_19 
REMARK   14  A    between atoms: C16_19  and  C17_20 
ROOT
HETATM    1  C7  UNL     1     -49.079  67.141  -9.439  1.00  0.00     0.027 C 
ENDROOT
BRANCH   1   2
HETATM    2  C6  UNL     1     -47.837  67.426 -10.254  1.00  0.00     0.232 C 
BRANCH   2   3
HETATM    3  N1  UNL     1     -46.681  66.789  -9.684  1.00  0.00    -0.075 N 
ATOM      4  H12 UNL     1     -46.059  66.423 -10.405  1.00  0.00     0.277 HD
ATOM      5  H11 UNL     1     -46.923  65.909  -9.228  1.00  0.00     0.277 HD
BRANCH   3   6
HETATM    6  C5  UNL     1     -45.987  67.681  -8.786  1.00  0.00     0.237 C 
BRANCH   6   7
HETATM    7  C4  UNL     1     -46.113  67.256  -7.351  1.00  0.00     0.015 C 
HETATM    8  C3  UNL     1     -44.759  66.948  -6.716  1.00  0.00     0.033 C 
HETATM    9  C2  UNL     1     -45.058  66.525  -5.287  1.00  0.00    -0.030 C 
HETATM   10  C1  UNL     1     -45.819  67.355  -4.586  1.00  0.00    -0.031 C 
HETATM   11  C21 UNL     1     -46.290  68.586  -5.251  1.00  0.00     0.027 C 
HETATM   12  C20 UNL     1     -46.914  68.240  -6.575  1.00  0.00     0.010 C 
ENDBRANCH   6   7
ENDBRANCH   3   6
ENDBRANCH   2   3
ENDBRANCH   1   2
BRANCH   1  13
HETATM   13  C8  UNL     1     -49.823  68.421  -9.157  1.00  0.00     0.002 C 
BRANCH  13  14
HETATM   14  C9  UNL     1     -49.011  69.600  -9.561  1.00  0.00     0.000 C 
BRANCH  14  15
HETATM   15  C10 UNL     1     -49.125  70.708  -8.564  1.00  0.00     0.000 C 
BRANCH  15  16
HETATM   16  C11 UNL     1     -50.542  71.143  -8.435  1.00  0.00     0.000 C 
BRANCH  16  17
HETATM   17  C12 UNL     1     -50.886  72.206  -9.451  1.00  0.00     0.000 C 
BRANCH  17  18
HETATM   18  C13 UNL     1     -52.055  71.874 -10.304  1.00  0.00     0.000 C 
BRANCH  18  19
HETATM   19  C14 UNL     1     -51.680  71.360 -11.679  1.00  0.00     0.000 C 
BRANCH  19  20
HETATM   20  C15 UNL     1     -52.862  70.637 -12.243  1.00  0.00     0.000 C 
BRANCH  20  21
HETATM   21  C16 UNL     1     -52.446  69.398 -13.047  1.00  0.00     0.004 C 
BRANCH  21  22
HETATM   22  C17 UNL     1     -51.118  68.958 -12.519  1.00  0.00    -0.014 A 
HETATM   23  C18 UNL     1     -50.876  67.451 -12.639  1.00  0.00     0.005 A 
HETATM   24  C19 UNL     1     -50.026  68.446 -13.356  1.00  0.00     0.005 A 
ENDBRANCH  21  22
ENDBRANCH  20  21
ENDBRANCH  19  20
ENDBRANCH  18  19
ENDBRANCH  17  18
ENDBRANCH  16  17
ENDBRANCH  15  16
ENDBRANCH  14  15
ENDBRANCH  13  14
ENDBRANCH   1  13
TORSDOF 14
ENDMDL
MODEL 3
REMARK VINA RESULT: -5.986647400      1.782      7.229
REMARK  14 active torsions:
REMARK  status: ('A' for Active; 'I' for Inactive)
REMARK    1  A    between atoms: C4_4  and  C5_5 
REMARK    2  A    between atoms: C5_5  and  N1_6 
REMARK    3  A    between atoms: N1_6  and  C6_9 
REMARK    4  A    between atoms: C6_9  and  C7_10 
REMARK    5  A    between atoms: C7_10  and  C8_11 
REMARK    6  A    between atoms: C8_11  and  C9_12 
REMARK    7  A    between atoms: C9_12  and  C10_13 
REMARK    8  A    between atoms: C10_13  and  C11_14 
REMARK    9  A    between atoms: C11_14  and  C12_15 
REMARK   10  A    between atoms: C12_15  and  C13_16 
REMARK   11  A    between atoms: C13_16  and  C14_17 
REMARK   12  A    between atoms: C14_17  and  C15_18 
REMARK   13  A    between atoms: C15_18  and  C16_19 
REMARK   14  A    between atoms: C16_19  and  C17_20 
ROOT
HETATM    1  C7  UNL     1     -50.707  70.701  -8.741  1.00  0.00     0.027 C 
ENDROOT
BRANCH   1   2
HETATM    2  C6  UNL     1     -51.057  72.171  -8.804  1.00  0.00     0.232 C 
BRANCH   2   3
HETATM    3  N1  UNL     1     -49.908  72.993  -8.542  1.00  0.00    -0.075 N 
ATOM      4  H12 UNL     1     -49.920  73.847  -9.099  1.00  0.00     0.277 HD
ATOM      5  H11 UNL     1     -49.054  72.578  -8.915  1.00  0.00     0.277 HD
BRANCH   3   6
HETATM    6  C5  UNL     1     -49.787  73.281  -7.132  1.00  0.00     0.237 C 
BRANCH   6   7
HETATM    7  C4  UNL     1     -48.393  73.052  -6.621  1.00  0.00     0.015 C 
HETATM    8  C3  UNL     1     -48.261  71.729  -5.867  1.00  0.00     0.033 C 
HETATM    9  C2  UNL     1     -46.814  71.656  -5.410  1.00  0.00    -0.030 C 
HETATM   10  C1  UNL     1     -45.900  71.847  -6.352  1.00  0.00    -0.031 C 
HETATM   11  C21 UNL     1     -46.371  72.106  -7.728  1.00  0.00     0.027 C 
HETATM   12  C20 UNL     1     -47.396  73.206  -7.713  1.00  0.00     0.010 C 
ENDBRANCH   6   7
ENDBRANCH   3   6
ENDBRANCH   2   3
ENDBRANCH   1   2
BRANCH   1  13
HETATM   13  C8  UNL     1     -49.381  70.451  -9.414  1.00  0.00     0.002 C 
BRANCH  13  14
HETATM   14  C9  UNL     1     -48.659  69.332  -8.752  1.00  0.00     0.000 C 
BRANCH  14  15
HETATM   15  C10 UNL     1     -47.639  68.728  -9.662  1.00  0.00     0.000 C 
BRANCH  15  16
HETATM   16  C11 UNL     1     -47.802  67.250  -9.711  1.00  0.00     0.000 C 
BRANCH  16  17
HETATM   17  C12 UNL     1     -49.247  66.849  -9.546  1.00  0.00     0.000 C 
BRANCH  17  18
HETATM   18  C13 UNL     1     -49.905  66.416 -10.805  1.00  0.00     0.000 C 
BRANCH  18  19
HETATM   19  C14 UNL     1     -50.740  67.498 -11.460  1.00  0.00     0.000 C 
BRANCH  19  20
HETATM   20  C15 UNL     1     -49.993  68.000 -12.655  1.00  0.00     0.000 C 
BRANCH  20  21
HETATM   21  C16 UNL     1     -50.529  69.355 -13.138  1.00  0.00     0.004 C 
BRANCH  21  22
HETATM   22  C17 UNL     1     -51.693  69.703 -12.266  1.00  0.00    -0.014 A 
HETATM   23  C18 UNL     1     -52.030  71.196 -12.255  1.00  0.00     0.005 A 
HETATM   24  C19 UNL     1     -52.989  70.175 -12.769  1.00  0.00     0.005 A 
ENDBRANCH  21  22
ENDBRANCH  20  21
ENDBRANCH  19  20
ENDBRANCH  18  19
ENDBRANCH  17  18
ENDBRANCH  16  17
ENDBRANCH  15  16
ENDBRANCH  14  15
ENDBRANCH  13  14
ENDBRANCH   1  13
TORSDOF 14
ENDMDL
MODEL 4
REMARK VINA RESULT: -5.976682614      1.242      3.101
REMARK  14 active torsions:
REMARK  status: ('A' for Active; 'I' for Inactive)
REMARK    1  A    between atoms: C4_4  and  C5_5 
REMARK    2  A    between atoms: C5_5  and  N1_6 
REMARK    3  A    between atoms: N1_6  and  C6_9 
REMARK    4  A    between atoms: C6_9  and  C7_10 
REMARK    5  A    between atoms: C7_10  and  C8_11 
REMARK    6  A    between atoms: C8_11  and  C9_12 
REMARK    7  A    between atoms: C9_12  and  C10_13 
REMARK    8  A    between atoms: C10_13  and  C11_14 
REMARK    9  A    between atoms: C11_14  and  C12_15 
REMARK   10  A    between atoms: C12_15  and  C13_16 
REMARK   11  A    between atoms: C13_16  and  C14_17 
REMARK   12  A    between atoms: C14_17  and  C15_18 
REMARK   13  A    between atoms: C15_18  and  C16_19 
REMARK   14  A    between atoms: C16_19  and  C17_20 
ROOT
HETATM    1  C7  UNL     1     -49.848  67.551  -9.347  1.00  0.00     0.027 C 
ENDROOT
BRANCH   1   2
HETATM    2  C6  UNL     1     -49.073  67.007 -10.526  1.00  0.00     0.232 C 
BRANCH   2   3
HETATM    3  N1  UNL     1     -49.955  66.551 -11.566  1.00  0.00    -0.075 N 
ATOM      4  H12 UNL     1     -50.873  66.303 -11.198  1.00  0.00     0.277 HD
ATOM      5  H11 UNL     1     -49.677  65.635 -11.919  1.00  0.00     0.277 HD
BRANCH   3   6
HETATM    6  C5  UNL     1     -50.052  67.524 -12.628  1.00  0.00     0.237 C 
BRANCH   6   7
HETATM    7  C4  UNL     1     -51.350  68.280 -12.590  1.00  0.00     0.015 C 
HETATM    8  C3  UNL     1     -51.148  69.766 -12.300  1.00  0.00     0.033 C 
HETATM    9  C2  UNL     1     -52.540  70.377 -12.283  1.00  0.00    -0.030 C 
HETATM   10  C1  UNL     1     -53.296  70.121 -13.342  1.00  0.00    -0.031 C 
HETATM   11  C21 UNL     1     -52.721  69.283 -14.413  1.00  0.00     0.027 C 
HETATM   12  C20 UNL     1     -52.146  68.026 -13.820  1.00  0.00     0.010 C 
ENDBRANCH   6   7
ENDBRANCH   3   6
ENDBRANCH   2   3
ENDBRANCH   1   2
BRANCH   1  13
HETATM   13  C8  UNL     1     -49.443  68.975  -9.068  1.00  0.00     0.002 C 
BRANCH  13  14
HETATM   14  C9  UNL     1     -48.296  69.373  -9.927  1.00  0.00     0.000 C 
BRANCH  14  15
HETATM   15  C10 UNL     1     -47.342  70.255  -9.188  1.00  0.00     0.000 C 
BRANCH  15  16
HETATM   16  C11 UNL     1     -47.721  70.337  -7.752  1.00  0.00     0.000 C 
BRANCH  16  17
HETATM   17  C12 UNL     1     -47.213  71.610  -7.119  1.00  0.00     0.000 C 
BRANCH  17  18
HETATM   18  C13 UNL     1     -47.798  71.901  -5.786  1.00  0.00     0.000 C 
BRANCH  18  19
HETATM   19  C14 UNL     1     -49.300  72.103  -5.810  1.00  0.00     0.000 C 
BRANCH  19  20
HETATM   20  C15 UNL     1     -49.575  73.475  -6.340  1.00  0.00     0.000 C 
BRANCH  20  21
HETATM   21  C16 UNL     1     -50.853  73.516  -7.189  1.00  0.00     0.004 C 
BRANCH  21  22
HETATM   22  C17 UNL     1     -50.812  72.331  -8.101  1.00  0.00    -0.014 A 
HETATM   23  C18 UNL     1     -51.962  72.292  -9.110  1.00  0.00     0.005 A 
HETATM   24  C19 UNL     1     -50.538  72.407  -9.540  1.00  0.00     0.005 A 
ENDBRANCH  21  22
ENDBRANCH  20  21
ENDBRANCH  19  20
ENDBRANCH  18  19
ENDBRANCH  17  18
ENDBRANCH  16  17
ENDBRANCH  15  16
ENDBRANCH  14  15
ENDBRANCH  13  14
ENDBRANCH   1  13
TORSDOF 14
ENDMDL
MODEL 5
REMARK VINA RESULT: -5.917509910      1.456      3.473
REMARK  14 active torsions:
REMARK  status: ('A' for Active; 'I' for Inactive)
REMARK    1  A    between atoms: C4_4  and  C5_5 
REMARK    2  A    between atoms: C5_5  and  N1_6 
REMARK    3  A    between atoms: N1_6  and  C6_9 
REMARK    4  A    between atoms: C6_9  and  C7_10 
REMARK    5  A    between atoms: C7_10  and  C8_11 
REMARK    6  A    between atoms: C8_11  and  C9_12 
REMARK    7  A    between atoms: C9_12  and  C10_13 
REMARK    8  A    between atoms: C10_13  and  C11_14 
REMARK    9  A    between atoms: C11_14  and  C12_15 
REMARK   10  A    between atoms: C12_15  and  C13_16 
REMARK   11  A    between atoms: C13_16  and  C14_17 
REMARK   12  A    between atoms: C14_17  and  C15_18 
REMARK   13  A    between atoms: C15_18  and  C16_19 
REMARK   14  A    between atoms: C16_19  and  C17_20 
ROOT
HETATM    1  C7  UNL     1     -51.722  69.134 -13.525  1.00  0.00     0.027 C 
ENDROOT
BRANCH   1   2
HETATM    2  C6  UNL     1     -50.227  69.167 -13.296  1.00  0.00     0.232 C 
BRANCH   2   3
HETATM    3  N1  UNL     1     -49.603  67.952 -13.746  1.00  0.00    -0.075 N 
ATOM      4  H12 UNL     1     -49.217  68.052 -14.684  1.00  0.00     0.277 HD
ATOM      5  H11 UNL     1     -50.291  67.225 -13.939  1.00  0.00     0.277 HD
BRANCH   3   6
HETATM    6  C5  UNL     1     -48.604  67.504 -12.805  1.00  0.00     0.237 C 
BRANCH   6   7
HETATM    7  C4  UNL     1     -48.971  67.833 -11.385  1.00  0.00     0.015 C 
HETATM    8  C3  UNL     1     -49.740  66.701 -10.707  1.00  0.00     0.033 C 
HETATM    9  C2  UNL     1     -50.043  67.191  -9.301  1.00  0.00    -0.030 C 
HETATM   10  C1  UNL     1     -49.005  67.643  -8.610  1.00  0.00    -0.031 C 
HETATM   11  C21 UNL     1     -47.681  67.625  -9.264  1.00  0.00     0.027 C 
HETATM   12  C20 UNL     1     -47.775  68.272 -10.618  1.00  0.00     0.010 C 
ENDBRANCH   6   7
ENDBRANCH   3   6
ENDBRANCH   2   3
ENDBRANCH   1   2
BRANCH   1  13
HETATM   13  C8  UNL     1     -52.427  69.970 -12.488  1.00  0.00     0.002 C 
BRANCH  13  14
HETATM   14  C9  UNL     1     -51.454  70.523 -11.510  1.00  0.00     0.000 C 
BRANCH  14  15
HETATM   15  C10 UNL     1     -51.873  71.876 -11.031  1.00  0.00     0.000 C 
BRANCH  15  16
HETATM   16  C11 UNL     1     -51.520  72.048  -9.596  1.00  0.00     0.000 C 
BRANCH  16  17
HETATM   17  C12 UNL     1     -50.730  70.870  -9.078  1.00  0.00     0.000 C 
BRANCH  17  18
HETATM   18  C13 UNL     1     -49.582  71.243  -8.213  1.00  0.00     0.000 C 
BRANCH  18  19
HETATM   19  C14 UNL     1     -49.944  72.205  -7.100  1.00  0.00     0.000 C 
BRANCH  19  20
HETATM   20  C15 UNL     1     -48.901  72.094  -6.033  1.00  0.00     0.000 C 
BRANCH  20  21
HETATM   21  C16 UNL     1     -47.607  71.457  -6.561  1.00  0.00     0.004 C 
BRANCH  21  22
HETATM   22  C17 UNL     1     -46.972  70.739  -5.412  1.00  0.00    -0.014 A 
HETATM   23  C18 UNL     1     -46.462  69.341  -5.768  1.00  0.00     0.005 A 
HETATM   24  C19 UNL     1     -45.540  70.427  -5.325  1.00  0.00     0.005 A 
ENDBRANCH  21  22
ENDBRANCH  20  21
ENDBRANCH  19  20
ENDBRANCH  18  19
ENDBRANCH  17  18
ENDBRANCH  16  17
ENDBRANCH  15  16
ENDBRANCH  14  15
ENDBRANCH  13  14
ENDBRANCH   1  13
TORSDOF 14
ENDMDL
