MODEL 1
REMARK VINA RESULT: -5.978305605      0.000      0.000
REMARK  15 active torsions:
REMARK  status: ('A' for Active; 'I' for Inactive)
REMARK    1  A    between atoms: N1_1  and  C1_5 
REMARK    2  A    between atoms: C1_5  and  C2_6 
REMARK    3  A    between atoms: C2_6  and  C3_7 
REMARK    4  A    between atoms: C3_7  and  C4_8 
REMARK    5  A    between atoms: C4_8  and  C5_9 
REMARK    6  A    between atoms: C5_9  and  C6_10 
REMARK    7  A    between atoms: C6_10  and  C7_11 
REMARK    8  A    between atoms: C7_11  and  C8_12 
REMARK    9  A    between atoms: C8_12  and  C9_13 
REMARK   10  A    between atoms: C9_13  and  C10_14 
REMARK   11  A    between atoms: C10_14  and  C11_15 
REMARK   12  A    between atoms: C12_17  and  C13_18 
REMARK   13  A    between atoms: C13_18  and  C14_19 
REMARK   14  A    between atoms: C14_19  and  C15_20 
REMARK   15  A    between atoms: C15_20  and  C16_21 
ROOT
HETATM    1  C9  UNL     1     -50.392  70.017  -9.096  1.00  0.00    -0.028 C 
ENDROOT
BRANCH   1   2
HETATM    2  C8  UNL     1     -49.115  69.357  -9.309  1.00  0.00    -0.031 C 
BRANCH   2   3
HETATM    3  C7  UNL     1     -48.850  67.922  -9.089  1.00  0.00     0.027 C 
BRANCH   3   4
HETATM    4  C6  UNL     1     -50.026  67.053  -9.292  1.00  0.00     0.004 C 
BRANCH   4   5
HETATM    5  C5  UNL     1     -50.138  66.238 -10.516  1.00  0.00     0.000 C 
BRANCH   5   6
HETATM    6  C4  UNL     1     -49.555  66.621 -11.799  1.00  0.00     0.000 C 
BRANCH   6   7
HETATM    7  C3  UNL     1     -50.237  67.679 -12.558  1.00  0.00     0.002 C 
BRANCH   7   8
HETATM    8  C2  UNL     1     -49.193  68.660 -13.182  1.00  0.00     0.027 C 
BRANCH   8   9
HETATM    9  C1  UNL     1     -47.849  68.116 -12.754  1.00  0.00     0.229 C 
BRANCH   9  10
HETATM   10  N1  UNL     1     -46.846  68.260 -13.764  1.00  0.00    -0.079 N 
ATOM     11  H13 UNL     1     -46.346  69.144 -13.658  1.00  0.00     0.274 HD
ATOM     12  H12 UNL     1     -46.073  67.613 -13.607  1.00  0.00     0.274 HD
ATOM     13  H11 UNL     1     -47.218  68.163 -14.708  1.00  0.00     0.274 HD
ENDBRANCH   9  10
ENDBRANCH   8   9
ENDBRANCH   7   8
ENDBRANCH   6   7
ENDBRANCH   5   6
ENDBRANCH   4   5
ENDBRANCH   3   4
ENDBRANCH   2   3
ENDBRANCH   1   2
BRANCH   1  14
HETATM   14  C10 UNL     1     -50.823  71.207  -9.832  1.00  0.00     0.061 C 
BRANCH  14  15
HETATM   15  C11 UNL     1     -50.508  72.443  -8.961  1.00  0.00     0.154 A 
HETATM   16  O1  UNL     1     -51.801  72.935  -8.423  1.00  0.00    -0.375 OA
HETATM   17  C12 UNL     1     -50.635  72.441  -7.596  1.00  0.00     0.151 A 
BRANCH  17  18
HETATM   18  C13 UNL     1     -50.170  73.583  -6.739  1.00  0.00     0.035 C 
BRANCH  18  19
HETATM   19  C14 UNL     1     -48.747  73.373  -6.313  1.00  0.00     0.007 C 
BRANCH  19  20
HETATM   20  C15 UNL     1     -48.528  71.974  -5.848  1.00  0.00     0.038 C 
BRANCH  20  21
HETATM   21  C16 UNL     1     -47.468  71.279  -6.654  1.00  0.00    -0.058 A 
HETATM   22  C17 UNL     1     -46.909  71.872  -7.760  1.00  0.00     0.007 A 
HETATM   23  C18 UNL     1     -45.921  71.220  -8.506  1.00  0.00     0.001 A 
HETATM   24  C19 UNL     1     -45.490  69.957  -8.137  1.00  0.00     0.000 A 
HETATM   25  C20 UNL     1     -46.051  69.364  -7.028  1.00  0.00     0.001 A 
HETATM   26  C21 UNL     1     -47.039  70.026  -6.288  1.00  0.00     0.007 A 
ENDBRANCH  20  21
ENDBRANCH  19  20
ENDBRANCH  18  19
ENDBRANCH  17  18
ENDBRANCH  14  15
ENDBRANCH   1  14
TORSDOF 15
ENDMDL
MODEL 2
REMARK VINA RESULT: -5.958049604      2.292      3.765
REMARK  15 active torsions:
REMARK  status: ('A' for Active; 'I' for Inactive)
REMARK    1  A    between atoms: N1_1  and  C1_5 
REMARK    2  A    between atoms: C1_5  and  C2_6 
REMARK    3  A    between atoms: C2_6  and  C3_7 
REMARK    4  A    between atoms: C3_7  and  C4_8 
REMARK    5  A    between atoms: C4_8  and  C5_9 
REMARK    6  A    between atoms: C5_9  and  C6_10 
REMARK    7  A    between atoms: C6_10  and  C7_11 
REMARK    8  A    between atoms: C7_11  and  C8_12 
REMARK    9  A    between atoms: C8_12  and  C9_13 
REMARK   10  A    between atoms: C9_13  and  C10_14 
REMARK   11  A    between atoms: C10_14  and  C11_15 
REMARK   12  A    between atoms: C12_17  and  C13_18 
REMARK   13  A    between atoms: C13_18  and  C14_19 
REMARK   14  A    between atoms: C14_19  and  C15_20 
REMARK   15  A    between atoms: C15_20  and  C16_21 
ROOT
HETATM    1  C9  UNL     1     -51.136  72.303  -8.285  1.00  0.00    -0.028 C 
ENDROOT
BRANCH   1   2
HETATM    2  C8  UNL     1     -50.333  71.707  -9.339  1.00  0.00    -0.031 C 
BRANCH   2   3
HETATM    3  C7  UNL     1     -50.536  70.362  -9.910  1.00  0.00     0.027 C 
BRANCH   3   4
HETATM    4  C6  UNL     1     -49.851  69.283  -9.169  1.00  0.00     0.004 C 
BRANCH   4   5
HETATM    5  C5  UNL     1     -48.538  69.535  -8.545  1.00  0.00     0.000 C 
BRANCH   5   6
HETATM    6  C4  UNL     1     -47.618  68.476  -8.141  1.00  0.00     0.000 C 
BRANCH   6   7
HETATM    7  C3  UNL     1     -46.301  68.446  -8.791  1.00  0.00     0.002 C 
BRANCH   7   8
HETATM    8  C2  UNL     1     -45.758  69.897  -8.988  1.00  0.00     0.027 C 
BRANCH   8   9
HETATM    9  C1  UNL     1     -45.103  69.881 -10.351  1.00  0.00     0.229 C 
BRANCH   9  10
HETATM   10  N1  UNL     1     -45.979  69.417 -11.382  1.00  0.00    -0.079 N 
ATOM     11  H13 UNL     1     -45.481  69.318 -12.267  1.00  0.00     0.274 HD
ATOM     12  H12 UNL     1     -46.239  68.443 -11.229  1.00  0.00     0.274 HD
ATOM     13  H11 UNL     1     -46.806  70.003 -11.492  1.00  0.00     0.274 HD
ENDBRANCH   9  10
ENDBRANCH   8   9
ENDBRANCH   7   8
ENDBRANCH   6   7
ENDBRANCH   5   6
ENDBRANCH   4   5
ENDBRANCH   3   4
ENDBRANCH   2   3
ENDBRANCH   1   2
BRANCH   1  14
HETATM   14  C10 UNL     1     -50.595  73.197  -7.259  1.00  0.00     0.061 C 
BRANCH  14  15
HETATM   15  C11 UNL     1     -49.066  72.984  -7.205  1.00  0.00     0.154 A 
HETATM   16  O1  UNL     1     -48.542  73.873  -6.137  1.00  0.00    -0.375 OA
HETATM   17  C12 UNL     1     -48.440  72.365  -6.154  1.00  0.00     0.151 A 
BRANCH  17  18
HETATM   18  C13 UNL     1     -46.982  72.009  -6.178  1.00  0.00     0.035 C 
BRANCH  18  19
HETATM   19  C14 UNL     1     -46.722  70.799  -5.328  1.00  0.00     0.007 C 
BRANCH  19  20
HETATM   20  C15 UNL     1     -45.260  70.563  -5.166  1.00  0.00     0.038 C 
BRANCH  20  21
HETATM   21  C16 UNL     1     -44.897  69.128  -5.418  1.00  0.00    -0.058 A 
HETATM   22  C17 UNL     1     -43.715  68.788  -6.030  1.00  0.00     0.007 A 
HETATM   23  C18 UNL     1     -43.382  67.448  -6.261  1.00  0.00     0.001 A 
HETATM   24  C19 UNL     1     -44.246  66.439  -5.874  1.00  0.00     0.000 A 
HETATM   25  C20 UNL     1     -45.431  66.782  -5.261  1.00  0.00     0.001 A 
HETATM   26  C21 UNL     1     -45.754  68.125  -5.033  1.00  0.00     0.007 A 
ENDBRANCH  20  21
ENDBRANCH  19  20
ENDBRANCH  18  19
ENDBRANCH  17  18
ENDBRANCH  14  15
ENDBRANCH   1  14
TORSDOF 15
ENDMDL
MODEL 3
REMARK VINA RESULT: -5.953054822      2.577      4.233
REMARK  15 active torsions:
REMARK  status: ('A' for Active; 'I' for Inactive)
REMARK    1  A    between atoms: N1_1  and  C1_5 
REMARK    2  A    between atoms: C1_5  and  C2_6 
REMARK    3  A    between atoms: C2_6  and  C3_7 
REMARK    4  A    between atoms: C3_7  and  C4_8 
REMARK    5  A    between atoms: C4_8  and  C5_9 
REMARK    6  A    between atoms: C5_9  and  C6_10 
REMARK    7  A    between atoms: C6_10  and  C7_11 
REMARK    8  A    between atoms: C7_11  and  C8_12 
REMARK    9  A    between atoms: C8_12  and  C9_13 
REMARK   10  A    between atoms: C9_13  and  C10_14 
REMARK   11  A    between atoms: C10_14  and  C11_15 
REMARK   12  A    between atoms: C12_17  and  C13_18 
REMARK   13  A    between atoms: C13_18  and  C14_19 
REMARK   14  A    between atoms: C14_19  and  C15_20 
REMARK   15  A    between atoms: C15_20  and  C16_21 
ROOT
HETATM    1  C9  UNL     1     -50.051  71.085  -8.495  1.00  0.00    -0.028 C 
ENDROOT
BRANCH   1   2
HETATM    2  C8  UNL     1     -49.517  70.071  -9.389  1.00  0.00    -0.031 C 
BRANCH   2   3
HETATM    3  C7  UNL     1     -48.881  68.809  -8.965  1.00  0.00     0.027 C 
BRANCH   3   4
HETATM    4  C6  UNL     1     -47.682  68.991  -8.122  1.00  0.00     0.004 C 
BRANCH   4   5
HETATM    5  C5  UNL     1     -46.353  69.121  -8.748  1.00  0.00     0.000 C 
BRANCH   5   6
HETATM    6  C4  UNL     1     -45.617  70.380  -8.829  1.00  0.00     0.000 C 
BRANCH   6   7
HETATM    7  C3  UNL     1     -45.833  71.209 -10.023  1.00  0.00     0.002 C 
BRANCH   7   8
HETATM    8  C2  UNL     1     -45.245  72.640  -9.806  1.00  0.00     0.027 C 
BRANCH   8   9
HETATM    9  C1  UNL     1     -44.387  72.893 -11.025  1.00  0.00     0.229 C 
BRANCH   9  10
HETATM   10  N1  UNL     1     -43.132  72.209 -10.971  1.00  0.00    -0.079 N 
ATOM     11  H13 UNL     1     -42.748  72.075 -11.907  1.00  0.00     0.274 HD
ATOM     12  H12 UNL     1     -42.406  72.807 -10.578  1.00  0.00     0.274 HD
ATOM     13  H11 UNL     1     -43.186  71.322 -10.470  1.00  0.00     0.274 HD
ENDBRANCH   9  10
ENDBRANCH   8   9
ENDBRANCH   7   8
ENDBRANCH   6   7
ENDBRANCH   5   6
ENDBRANCH   4   5
ENDBRANCH   3   4
ENDBRANCH   2   3
ENDBRANCH   1   2
BRANCH   1  14
HETATM   14  C10 UNL     1     -49.679  72.499  -8.559  1.00  0.00     0.061 C 
BRANCH  14  15
HETATM   15  C11 UNL     1     -48.375  72.683  -7.751  1.00  0.00     0.154 A 
HETATM   16  O1  UNL     1     -48.671  73.651  -6.665  1.00  0.00    -0.375 OA
HETATM   17  C12 UNL     1     -48.225  72.219  -6.469  1.00  0.00     0.151 A 
BRANCH  17  18
HETATM   18  C13 UNL     1     -46.908  72.249  -5.748  1.00  0.00     0.035 C 
BRANCH  18  19
HETATM   19  C14 UNL     1     -46.606  70.905  -5.153  1.00  0.00     0.007 C 
BRANCH  19  20
HETATM   20  C15 UNL     1     -45.140  70.636  -5.156  1.00  0.00     0.038 C 
BRANCH  20  21
HETATM   21  C16 UNL     1     -44.841  69.186  -5.408  1.00  0.00    -0.058 A 
HETATM   22  C17 UNL     1     -45.720  68.200  -5.030  1.00  0.00     0.007 A 
HETATM   23  C18 UNL     1     -45.436  66.850  -5.268  1.00  0.00     0.001 A 
HETATM   24  C19 UNL     1     -44.255  66.487  -5.891  1.00  0.00     0.000 A 
HETATM   25  C20 UNL     1     -43.374  67.476  -6.268  1.00  0.00     0.001 A 
HETATM   26  C21 UNL     1     -43.669  68.824  -6.026  1.00  0.00     0.007 A 
ENDBRANCH  20  21
ENDBRANCH  19  20
ENDBRANCH  18  19
ENDBRANCH  17  18
ENDBRANCH  14  15
ENDBRANCH   1  14
TORSDOF 15
ENDMDL
MODEL 4
REMARK VINA RESULT: -5.941472236      3.153      5.529
REMARK  15 active torsions:
REMARK  status: ('A' for Active; 'I' for Inactive)
REMARK    1  A    between atoms: N1_1  and  C1_5 
REMARK    2  A    between atoms: C1_5  and  C2_6 
REMARK    3  A    between atoms: C2_6  and  C3_7 
REMARK    4  A    between atoms: C3_7  and  C4_8 
REMARK    5  A    between atoms: C4_8  and  C5_9 
REMARK    6  A    between atoms: C5_9  and  C6_10 
REMARK    7  A    between atoms: C6_10  and  C7_11 
REMARK    8  A    between atoms: C7_11  and  C8_12 
REMARK    9  A    between atoms: C8_12  and  C9_13 
REMARK   10  A    between atoms: C9_13  and  C10_14 
REMARK   11  A    between atoms: C10_14  and  C11_15 
REMARK   12  A    between atoms: C12_17  and  C13_18 
REMARK   13  A    between atoms: C13_18  and  C14_19 
REMARK   14  A    between atoms: C14_19  and  C15_20 
REMARK   15  A    between atoms: C15_20  and  C16_21 
ROOT
HETATM    1  C9  UNL     1     -44.499  66.418  -5.712  1.00  0.00    -0.028 C 
ENDROOT
BRANCH   1   2
HETATM    2  C8  UNL     1     -45.422  67.535  -5.597  1.00  0.00    -0.031 C 
BRANCH   2   3
HETATM    3  C7  UNL     1     -46.747  67.617  -6.241  1.00  0.00     0.027 C 
BRANCH   3   4
HETATM    4  C6  UNL     1     -46.746  67.247  -7.671  1.00  0.00     0.004 C 
BRANCH   4   5
HETATM    5  C5  UNL     1     -47.864  67.662  -8.540  1.00  0.00     0.000 C 
BRANCH   5   6
HETATM    6  C4  UNL     1     -47.987  67.269  -9.941  1.00  0.00     0.000 C 
BRANCH   6   7
HETATM    7  C3  UNL     1     -49.328  66.910 -10.422  1.00  0.00     0.002 C 
BRANCH   7   8
HETATM    8  C2  UNL     1     -49.273  66.494 -11.927  1.00  0.00     0.027 C 
BRANCH   8   9
HETATM    9  C1  UNL     1     -48.216  67.387 -12.535  1.00  0.00     0.229 C 
BRANCH   9  10
HETATM   10  N1  UNL     1     -47.436  66.723 -13.533  1.00  0.00    -0.079 N 
ATOM     11  H13 UNL     1     -46.551  66.394 -13.147  1.00  0.00     0.274 HD
ATOM     12  H12 UNL     1     -47.850  65.826 -13.785  1.00  0.00     0.274 HD
ATOM     13  H11 UNL     1     -47.280  67.298 -14.361  1.00  0.00     0.274 HD
ENDBRANCH   9  10
ENDBRANCH   8   9
ENDBRANCH   7   8
ENDBRANCH   6   7
ENDBRANCH   5   6
ENDBRANCH   4   5
ENDBRANCH   3   4
ENDBRANCH   2   3
ENDBRANCH   1   2
BRANCH   1  14
HETATM   14  C10 UNL     1     -43.216  66.495  -6.411  1.00  0.00     0.061 C 
BRANCH  14  15
HETATM   15  C11 UNL     1     -43.165  67.844  -7.162  1.00  0.00     0.154 A 
HETATM   16  O1  UNL     1     -41.803  67.969  -7.739  1.00  0.00    -0.375 OA
HETATM   17  C12 UNL     1     -43.093  67.931  -8.528  1.00  0.00     0.151 A 
BRANCH  17  18
HETATM   18  C13 UNL     1     -43.214  69.235  -9.263  1.00  0.00     0.035 C 
BRANCH  18  19
HETATM   19  C14 UNL     1     -44.657  69.609  -9.435  1.00  0.00     0.007 C 
BRANCH  19  20
HETATM   20  C15 UNL     1     -44.900  71.014  -9.002  1.00  0.00     0.038 C 
BRANCH  20  21
HETATM   21  C16 UNL     1     -45.655  71.073  -7.705  1.00  0.00    -0.058 A 
HETATM   22  C17 UNL     1     -45.000  71.072  -6.497  1.00  0.00     0.007 A 
HETATM   23  C18 UNL     1     -45.709  71.128  -5.292  1.00  0.00     0.001 A 
HETATM   24  C19 UNL     1     -47.092  71.185  -5.299  1.00  0.00     0.000 A 
HETATM   25  C20 UNL     1     -47.747  71.185  -6.511  1.00  0.00     0.001 A 
HETATM   26  C21 UNL     1     -47.028  71.130  -7.711  1.00  0.00     0.007 A 
ENDBRANCH  20  21
ENDBRANCH  19  20
ENDBRANCH  18  19
ENDBRANCH  17  18
ENDBRANCH  14  15
ENDBRANCH   1  14
TORSDOF 15
ENDMDL
MODEL 5
REMARK VINA RESULT: -5.921984518      2.553      4.415
REMARK  15 active torsions:
REMARK  status: ('A' for Active; 'I' for Inactive)
REMARK    1  A    between atoms: N1_1  and  C1_5 
REMARK    2  A    between atoms: C1_5  and  C2_6 
REMARK    3  A    between atoms: C2_6  and  C3_7 
REMARK    4  A    between atoms: C3_7  and  C4_8 
REMARK    5  A    between atoms: C4_8  and  C5_9 
REMARK    6  A    between atoms: C5_9  and  C6_10 
REMARK    7  A    between atoms: C6_10  and  C7_11 
REMARK    8  A    between atoms: C7_11  and  C8_12 
REMARK    9  A    between atoms: C8_12  and  C9_13 
REMARK   10  A    between atoms: C9_13  and  C10_14 
REMARK   11  A    between atoms: C10_14  and  C11_15 
REMARK   12  A    between atoms: C12_17  and  C13_18 
REMARK   13  A    between atoms: C13_18  and  C14_19 
REMARK   14  A    between atoms: C14_19  and  C15_20 
REMARK   15  A    between atoms: C15_20  and  C16_21 
ROOT
HETATM    1  C9  UNL     1     -47.073  69.339  -9.376  1.00  0.00    -0.028 C 
ENDROOT
BRANCH   1   2
HETATM    2  C8  UNL     1     -47.904  69.955  -8.355  1.00  0.00    -0.031 C 
BRANCH   2   3
HETATM    3  C7  UNL     1     -49.159  70.689  -8.605  1.00  0.00     0.027 C 
BRANCH   3   4
HETATM    4  C6  UNL     1     -50.250  69.854  -9.145  1.00  0.00     0.004 C 
BRANCH   4   5
HETATM    5  C5  UNL     1     -50.535  69.860 -10.592  1.00  0.00     0.000 C 
BRANCH   5   6
HETATM    6  C4  UNL     1     -50.160  68.774 -11.495  1.00  0.00     0.000 C 
BRANCH   6   7
HETATM    7  C3  UNL     1     -50.099  67.420 -10.927  1.00  0.00     0.002 C 
BRANCH   7   8
HETATM    8  C2  UNL     1     -49.182  66.505 -11.800  1.00  0.00     0.027 C 
BRANCH   8   9
HETATM    9  C1  UNL     1     -48.392  67.462 -12.663  1.00  0.00     0.229 C 
BRANCH   9  10
HETATM   10  N1  UNL     1     -47.480  66.795 -13.540  1.00  0.00    -0.079 N 
ATOM     11  H13 UNL     1     -46.568  67.254 -13.538  1.00  0.00     0.274 HD
ATOM     12  H12 UNL     1     -47.208  65.887 -13.164  1.00  0.00     0.274 HD
ATOM     13  H11 UNL     1     -47.839  66.705 -14.490  1.00  0.00     0.274 HD
ENDBRANCH   9  10
ENDBRANCH   8   9
ENDBRANCH   7   8
ENDBRANCH   6   7
ENDBRANCH   5   6
ENDBRANCH   4   5
ENDBRANCH   3   4
ENDBRANCH   2   3
ENDBRANCH   1   2
BRANCH   1  14
HETATM   14  C10 UNL     1     -46.633  67.943  -9.330  1.00  0.00     0.061 C 
BRANCH  14  15
HETATM   15  C11 UNL     1     -46.666  67.484  -7.855  1.00  0.00     0.154 A 
HETATM   16  O1  UNL     1     -46.486  66.010  -7.856  1.00  0.00    -0.375 OA
HETATM   17  C12 UNL     1     -45.559  67.010  -7.201  1.00  0.00     0.151 A 
BRANCH  17  18
HETATM   18  C13 UNL     1     -45.552  66.724  -5.727  1.00  0.00     0.035 C 
BRANCH  18  19
HETATM   19  C14 UNL     1     -45.795  67.983  -4.947  1.00  0.00     0.007 C 
BRANCH  19  20
HETATM   20  C15 UNL     1     -44.715  68.980  -5.192  1.00  0.00     0.038 C 
BRANCH  20  21
HETATM   21  C16 UNL     1     -45.270  70.301  -5.644  1.00  0.00    -0.058 A 
HETATM   22  C17 UNL     1     -46.393  70.839  -5.063  1.00  0.00     0.007 A 
HETATM   23  C18 UNL     1     -46.905  72.070  -5.487  1.00  0.00     0.001 A 
HETATM   24  C19 UNL     1     -46.283  72.769  -6.508  1.00  0.00     0.000 A 
HETATM   25  C20 UNL     1     -45.158  72.227  -7.089  1.00  0.00     0.001 A 
HETATM   26  C21 UNL     1     -44.654  70.995  -6.656  1.00  0.00     0.007 A 
ENDBRANCH  20  21
ENDBRANCH  19  20
ENDBRANCH  18  19
ENDBRANCH  17  18
ENDBRANCH  14  15
ENDBRANCH   1  14
TORSDOF 15
ENDMDL
