MODEL 1
REMARK VINA RESULT: -5.477147035      0.000      0.000
REMARK  6 active torsions:
REMARK  status: ('A' for Active; 'I' for Inactive)
REMARK    1  A    between atoms: C3_8  and  N3_9 
REMARK    2  A    between atoms: N3_9  and  N4_11 
REMARK    3  A    between atoms: N4_11  and  C4_13 
REMARK    4  A    between atoms: C4_13  and  C5_14 
REMARK    5  A    between atoms: C5_14  and  N5_15 
REMARK    6  A    between atoms: C5_14  and  N6_19 
ROOT
HETATM    1  N4  UNL     1      24.487  24.971  25.824  1.00  0.00    -0.331 N 
ATOM      2  H4  UNL     1      23.905  24.135  25.872  1.00  0.00     0.180 HD
ENDROOT
BRANCH   1   3
HETATM    3  N3  UNL     1      24.646  25.632  24.604  1.00  0.00    -0.287 N 
ATOM      4  H3  UNL     1      25.466  25.423  24.035  1.00  0.00     0.188 HD
BRANCH   3   5
HETATM    5  C3  UNL     1      23.796  26.492  24.173  1.00  0.00     0.166 A 
HETATM    6  C2  UNL     1      23.878  27.853  24.378  1.00  0.00     0.077 A 
HETATM    7  C1  UNL     1      24.948  28.595  25.128  1.00  0.00     0.074 C 
HETATM    8  N1  UNL     1      22.793  28.362  23.761  1.00  0.00    -0.242 N 
HETATM    9  O1  UNL     1      22.109  27.372  23.223  1.00  0.00    -0.155 OA
ATOM     10  H1  UNL     1      22.542  29.350  23.718  1.00  0.00     0.196 HD
HETATM   11  N2  UNL     1      22.684  26.245  23.452  1.00  0.00    -0.222 N 
ATOM     12  H2  UNL     1      22.358  25.330  23.144  1.00  0.00     0.198 HD
ENDBRANCH   3   5
ENDBRANCH   1   3
BRANCH   1  13
HETATM   13  C4  UNL     1      25.139  25.458  27.021  1.00  0.00     0.201 C 
BRANCH  13  14
HETATM   14  C5  UNL     1      24.082  25.867  28.052  1.00  0.00     0.396 C 
BRANCH  14  15
HETATM   15  N5  UNL     1      24.360  27.209  28.529  1.00  0.00    -0.049 N 
ATOM     16  H53 UNL     1      24.341  27.266  29.547  1.00  0.00     0.276 HD
ATOM     17  H52 UNL     1      25.334  27.474  28.386  1.00  0.00     0.276 HD
ATOM     18  H51 UNL     1      23.714  27.868  28.094  1.00  0.00     0.276 HD
ENDBRANCH  14  15
BRANCH  14  19
HETATM   19  N6  UNL     1      24.165  24.957  29.173  1.00  0.00    -0.049 N 
ATOM     20  H63 UNL     1      23.977  23.990  28.909  1.00  0.00     0.276 HD
ATOM     21  H62 UNL     1      25.121  24.827  29.504  1.00  0.00     0.276 HD
ATOM     22  H61 UNL     1      23.540  25.293  29.905  1.00  0.00     0.276 HD
ENDBRANCH  14  19
ENDBRANCH  13  14
ENDBRANCH   1  13
TORSDOF 6
ENDMDL
MODEL 2
REMARK VINA RESULT: -5.384375901      0.891      1.129
REMARK  6 active torsions:
REMARK  status: ('A' for Active; 'I' for Inactive)
REMARK    1  A    between atoms: C3_8  and  N3_9 
REMARK    2  A    between atoms: N3_9  and  N4_11 
REMARK    3  A    between atoms: N4_11  and  C4_13 
REMARK    4  A    between atoms: C4_13  and  C5_14 
REMARK    5  A    between atoms: C5_14  and  N5_15 
REMARK    6  A    between atoms: C5_14  and  N6_19 
ROOT
HETATM    1  N4  UNL     1      24.577  24.923  25.737  1.00  0.00    -0.331 N 
ATOM      2  H4  UNL     1      24.799  23.947  25.936  1.00  0.00     0.180 HD
ENDROOT
BRANCH   1   3
HETATM    3  N3  UNL     1      24.612  25.384  24.419  1.00  0.00    -0.287 N 
ATOM      4  H3  UNL     1      25.277  24.964  23.769  1.00  0.00     0.188 HD
BRANCH   3   5
HETATM    5  C3  UNL     1      23.837  26.315  23.997  1.00  0.00     0.166 A 
HETATM    6  C2  UNL     1      24.180  27.647  23.907  1.00  0.00     0.077 A 
HETATM    7  C1  UNL     1      25.495  28.272  24.277  1.00  0.00     0.074 C 
HETATM    8  N1  UNL     1      23.080  28.256  23.420  1.00  0.00    -0.242 N 
HETATM    9  O1  UNL     1      22.143  27.348  23.230  1.00  0.00    -0.155 OA
ATOM     10  H1  UNL     1      22.988  29.254  23.230  1.00  0.00     0.196 HD
HETATM   11  N2  UNL     1      22.567  26.181  23.565  1.00  0.00    -0.222 N 
ATOM     12  H2  UNL     1      22.037  25.311  23.513  1.00  0.00     0.198 HD
ENDBRANCH   3   5
ENDBRANCH   1   3
BRANCH   1  13
HETATM   13  C4  UNL     1      24.230  25.813  26.825  1.00  0.00     0.201 C 
BRANCH  13  14
HETATM   14  C5  UNL     1      25.046  25.448  28.069  1.00  0.00     0.396 C 
BRANCH  14  15
HETATM   15  N5  UNL     1      25.941  24.348  27.759  1.00  0.00    -0.049 N 
ATOM     16  H53 UNL     1      25.558  23.731  27.043  1.00  0.00     0.276 HD
ATOM     17  H52 UNL     1      26.772  24.658  27.256  1.00  0.00     0.276 HD
ATOM     18  H51 UNL     1      26.175  23.846  28.615  1.00  0.00     0.276 HD
ENDBRANCH  14  15
BRANCH  14  19
HETATM   19  N6  UNL     1      24.130  25.015  29.102  1.00  0.00    -0.049 N 
ATOM     20  H63 UNL     1      23.834  25.778  29.709  1.00  0.00     0.276 HD
ATOM     21  H62 UNL     1      23.212  24.766  28.734  1.00  0.00     0.276 HD
ATOM     22  H61 UNL     1      24.566  24.250  29.616  1.00  0.00     0.276 HD
ENDBRANCH  14  19
ENDBRANCH  13  14
ENDBRANCH   1  13
TORSDOF 6
ENDMDL
MODEL 3
REMARK VINA RESULT: -5.355342843      1.273      1.527
REMARK  6 active torsions:
REMARK  status: ('A' for Active; 'I' for Inactive)
REMARK    1  A    between atoms: C3_8  and  N3_9 
REMARK    2  A    between atoms: N3_9  and  N4_11 
REMARK    3  A    between atoms: N4_11  and  C4_13 
REMARK    4  A    between atoms: C4_13  and  C5_14 
REMARK    5  A    between atoms: C5_14  and  N5_15 
REMARK    6  A    between atoms: C5_14  and  N6_19 
ROOT
HETATM    1  N4  UNL     1      25.008  25.730  25.624  1.00  0.00    -0.331 N 
ATOM      2  H4  UNL     1      25.829  26.012  25.088  1.00  0.00     0.180 HD
ENDROOT
BRANCH   1   3
HETATM    3  N3  UNL     1      23.807  26.425  25.464  1.00  0.00    -0.287 N 
ATOM      4  H3  UNL     1      23.017  26.185  26.063  1.00  0.00     0.188 HD
BRANCH   3   5
HETATM    5  C3  UNL     1      23.662  27.353  24.590  1.00  0.00     0.166 A 
HETATM    6  C2  UNL     1      23.916  28.690  24.810  1.00  0.00     0.077 A 
HETATM    7  C1  UNL     1      24.400  29.325  26.084  1.00  0.00     0.074 C 
HETATM    8  N1  UNL     1      23.633  29.293  23.638  1.00  0.00    -0.242 N 
HETATM    9  O1  UNL     1      23.238  28.378  22.775  1.00  0.00    -0.155 OA
ATOM     10  H1  UNL     1      23.712  30.293  23.449  1.00  0.00     0.196 HD
HETATM   11  N2  UNL     1      23.247  27.212  23.316  1.00  0.00    -0.222 N 
ATOM     12  H2  UNL     1      22.985  26.336  22.862  1.00  0.00     0.198 HD
ENDBRANCH   3   5
ENDBRANCH   1   3
BRANCH   1  13
HETATM   13  C4  UNL     1      25.103  24.613  26.541  1.00  0.00     0.201 C 
BRANCH  13  14
HETATM   14  C5  UNL     1      25.401  25.129  27.952  1.00  0.00     0.396 C 
BRANCH  14  15
HETATM   15  N5  UNL     1      26.444  24.321  28.556  1.00  0.00    -0.049 N 
ATOM     16  H53 UNL     1      27.046  24.869  29.171  1.00  0.00     0.276 HD
ATOM     17  H52 UNL     1      26.075  23.673  29.251  1.00  0.00     0.276 HD
ATOM     18  H51 UNL     1      26.973  23.843  27.826  1.00  0.00     0.276 HD
ENDBRANCH  14  15
BRANCH  14  19
HETATM   19  N6  UNL     1      24.200  24.994  28.747  1.00  0.00    -0.049 N 
ATOM     20  H63 UNL     1      24.317  25.346  29.697  1.00  0.00     0.276 HD
ATOM     21  H62 UNL     1      23.460  25.631  28.453  1.00  0.00     0.276 HD
ATOM     22  H61 UNL     1      23.909  24.017  28.723  1.00  0.00     0.276 HD
ENDBRANCH  14  19
ENDBRANCH  13  14
ENDBRANCH   1  13
TORSDOF 6
ENDMDL
MODEL 4
REMARK VINA RESULT: -5.312369953      1.048      1.077
REMARK  6 active torsions:
REMARK  status: ('A' for Active; 'I' for Inactive)
REMARK    1  A    between atoms: C3_8  and  N3_9 
REMARK    2  A    between atoms: N3_9  and  N4_11 
REMARK    3  A    between atoms: N4_11  and  C4_13 
REMARK    4  A    between atoms: C4_13  and  C5_14 
REMARK    5  A    between atoms: C5_14  and  N5_15 
REMARK    6  A    between atoms: C5_14  and  N6_19 
ROOT
HETATM    1  N4  UNL     1      25.068  26.055  25.837  1.00  0.00    -0.331 N 
ATOM      2  H4  UNL     1      25.751  25.757  25.141  1.00  0.00     0.180 HD
ENDROOT
BRANCH   1   3
HETATM    3  N3  UNL     1      23.817  26.518  25.423  1.00  0.00    -0.287 N 
ATOM      4  H3  UNL     1      22.980  26.124  25.853  1.00  0.00     0.188 HD
BRANCH   3   5
HETATM    5  C3  UNL     1      23.684  27.420  24.520  1.00  0.00     0.166 A 
HETATM    6  C2  UNL     1      23.914  28.766  24.710  1.00  0.00     0.077 A 
HETATM    7  C1  UNL     1      24.355  29.442  25.978  1.00  0.00     0.074 C 
HETATM    8  N1  UNL     1      23.655  29.333  23.515  1.00  0.00    -0.242 N 
HETATM    9  O1  UNL     1      23.295  28.390  22.667  1.00  0.00    -0.155 OA
ATOM     10  H1  UNL     1      23.725  30.329  23.301  1.00  0.00     0.196 HD
HETATM   11  N2  UNL     1      23.304  27.239  23.240  1.00  0.00    -0.222 N 
ATOM     12  H2  UNL     1      23.067  26.348  22.803  1.00  0.00     0.198 HD
ENDBRANCH   3   5
ENDBRANCH   1   3
BRANCH   1  13
HETATM   13  C4  UNL     1      25.407  25.991  27.243  1.00  0.00     0.201 C 
BRANCH  13  14
HETATM   14  C5  UNL     1      24.130  26.076  28.085  1.00  0.00     0.396 C 
BRANCH  14  15
HETATM   15  N5  UNL     1      24.078  27.357  28.765  1.00  0.00    -0.049 N 
ATOM     16  H53 UNL     1      24.879  27.497  29.381  1.00  0.00     0.276 HD
ATOM     17  H52 UNL     1      24.244  28.136  28.129  1.00  0.00     0.276 HD
ATOM     18  H51 UNL     1      23.192  27.446  29.260  1.00  0.00     0.276 HD
ENDBRANCH  14  15
BRANCH  14  19
HETATM   19  N6  UNL     1      24.175  25.030  29.084  1.00  0.00    -0.049 N 
ATOM     20  H63 UNL     1      24.708  25.299  29.910  1.00  0.00     0.276 HD
ATOM     21  H62 UNL     1      23.275  24.883  29.540  1.00  0.00     0.276 HD
ATOM     22  H61 UNL     1      24.534  24.183  28.644  1.00  0.00     0.276 HD
ENDBRANCH  14  19
ENDBRANCH  13  14
ENDBRANCH   1  13
TORSDOF 6
ENDMDL
MODEL 5
REMARK VINA RESULT: -5.266362219      1.500      1.863
REMARK  6 active torsions:
REMARK  status: ('A' for Active; 'I' for Inactive)
REMARK    1  A    between atoms: C3_8  and  N3_9 
REMARK    2  A    between atoms: N3_9  and  N4_11 
REMARK    3  A    between atoms: N4_11  and  C4_13 
REMARK    4  A    between atoms: C4_13  and  C5_14 
REMARK    5  A    between atoms: C5_14  and  N5_15 
REMARK    6  A    between atoms: C5_14  and  N6_19 
ROOT
HETATM    1  N4  UNL     1      24.007  25.817  26.109  1.00  0.00    -0.331 N 
ATOM      2  H4  UNL     1      23.676  26.566  26.717  1.00  0.00     0.180 HD
ENDROOT
BRANCH   1   3
HETATM    3  N3  UNL     1      23.530  25.728  24.800  1.00  0.00    -0.287 N 
ATOM      4  H3  UNL     1      23.033  24.885  24.514  1.00  0.00     0.188 HD
BRANCH   3   5
HETATM    5  C3  UNL     1      23.694  26.670  23.944  1.00  0.00     0.166 A 
HETATM    6  C2  UNL     1      24.843  26.880  23.212  1.00  0.00     0.077 A 
HETATM    7  C1  UNL     1      26.111  26.073  23.262  1.00  0.00     0.074 C 
HETATM    8  N1  UNL     1      24.577  27.960  22.451  1.00  0.00    -0.242 N 
HETATM    9  O1  UNL     1      23.351  28.369  22.710  1.00  0.00    -0.155 OA
ATOM     10  H1  UNL     1      25.219  28.391  21.785  1.00  0.00     0.196 HD
HETATM   11  N2  UNL     1      22.800  27.617  23.597  1.00  0.00    -0.222 N 
ATOM     12  H2  UNL     1      21.856  27.720  23.970  1.00  0.00     0.198 HD
ENDBRANCH   3   5
ENDBRANCH   1   3
BRANCH   1  13
HETATM   13  C4  UNL     1      24.967  24.858  26.615  1.00  0.00     0.201 C 
BRANCH  13  14
HETATM   14  C5  UNL     1      25.328  25.207  28.062  1.00  0.00     0.396 C 
BRANCH  14  15
HETATM   15  N5  UNL     1      26.394  24.336  28.522  1.00  0.00    -0.049 N 
ATOM     16  H53 UNL     1      26.437  24.286  29.540  1.00  0.00     0.276 HD
ATOM     17  H52 UNL     1      26.195  23.353  28.336  1.00  0.00     0.276 HD
ATOM     18  H51 UNL     1      27.280  24.633  28.113  1.00  0.00     0.276 HD
ENDBRANCH  14  15
BRANCH  14  19
HETATM   19  N6  UNL     1      24.163  24.978  28.889  1.00  0.00    -0.049 N 
ATOM     20  H63 UNL     1      23.698  25.844  29.161  1.00  0.00     0.276 HD
ATOM     21  H62 UNL     1      23.389  24.562  28.371  1.00  0.00     0.276 HD
ATOM     22  H61 UNL     1      24.445  24.415  29.691  1.00  0.00     0.276 HD
ENDBRANCH  14  19
ENDBRANCH  13  14
ENDBRANCH   1  13
TORSDOF 6
ENDMDL
