MODEL 1
REMARK VINA RESULT: -5.740627963      0.000      0.000
REMARK  6 active torsions:
REMARK  status: ('A' for Active; 'I' for Inactive)
REMARK    1  A    between atoms: N1_1  and  C1_4 
REMARK    2  A    between atoms: C2_9  and  O1_10 
REMARK    3  A    between atoms: O1_10  and  N4_11 
REMARK    4  A    between atoms: N5_13  and  O2_14 
REMARK    5  A    between atoms: N5_13  and  N6_16 
REMARK    6  A    between atoms: N6_16  and  N7_18 
ROOT
HETATM    1  C1  UNL     1      24.584  25.611  28.358  1.00  0.00     0.693 A 
HETATM    2  N2  UNL     1      25.346  24.764  29.072  1.00  0.00    -0.129 N 
ATOM      3  H2  UNL     1      25.195  24.496  30.044  1.00  0.00     0.205 HD
HETATM    4  N3  UNL     1      26.339  24.335  28.279  1.00  0.00    -0.249 N 
ATOM      5  H3  UNL     1      27.071  23.681  28.555  1.00  0.00     0.191 HD
HETATM    6  C2  UNL     1      26.219  24.904  27.054  1.00  0.00     0.278 A 
HETATM    7  N8  UNL     1      25.137  25.679  27.132  1.00  0.00    -0.151 N 
ATOM      8  H8  UNL     1      24.776  26.247  26.366  1.00  0.00     0.188 HD
ENDROOT
BRANCH   6   9
HETATM    9  O1  UNL     1      27.061  24.710  25.949  1.00  0.00    -0.180 OA
BRANCH   9  10
HETATM   10  N4  UNL     1      26.619  25.257  24.771  1.00  0.00    -0.155 N 
HETATM   11  N5  UNL     1      25.950  24.670  23.889  1.00  0.00    -0.060 N 
ATOM     12  H4  UNL     1      26.858  26.233  24.596  1.00  0.00     0.221 HD
BRANCH  11  13
HETATM   13  O2  UNL     1      25.596  23.366  24.056  1.00  0.00    -0.251 OA
ATOM     14  H2  UNL     1      24.882  23.138  24.640  1.00  0.00     0.248 HD
ENDBRANCH  11  13
BRANCH  11  15
HETATM   15  N6  UNL     1      25.570  25.347  22.745  1.00  0.00    -0.205 N 
ATOM     16  H6  UNL     1      24.620  25.287  22.378  1.00  0.00     0.212 HD
BRANCH  15  17
HETATM   17  N7  UNL     1      26.559  26.127  22.111  1.00  0.00    -0.328 N 
ATOM     18  H72 UNL     1      26.693  26.079  21.101  1.00  0.00     0.178 HD
ATOM     19  H71 UNL     1      27.123  26.729  22.712  1.00  0.00     0.178 HD
ENDBRANCH  15  17
ENDBRANCH  11  15
ENDBRANCH   9  10
ENDBRANCH   6   9
BRANCH   1  20
HETATM   20  N1  UNL     1      23.540  26.219  28.800  1.00  0.00    -0.233 N 
ATOM     21  H12 UNL     1      22.913  25.937  29.553  1.00  0.00     0.174 HD
ATOM     22  H11 UNL     1      23.180  27.103  28.441  1.00  0.00     0.174 HD
ENDBRANCH   1  20
TORSDOF 6
ENDMDL
MODEL 2
REMARK VINA RESULT: -5.715103630      2.469      5.203
REMARK  6 active torsions:
REMARK  status: ('A' for Active; 'I' for Inactive)
REMARK    1  A    between atoms: N1_1  and  C1_4 
REMARK    2  A    between atoms: C2_9  and  O1_10 
REMARK    3  A    between atoms: O1_10  and  N4_11 
REMARK    4  A    between atoms: N5_13  and  O2_14 
REMARK    5  A    between atoms: N5_13  and  N6_16 
REMARK    6  A    between atoms: N6_16  and  N7_18 
ROOT
HETATM    1  C1  UNL     1      26.161  27.369  22.399  1.00  0.00     0.693 A 
HETATM    2  N2  UNL     1      26.367  26.071  22.120  1.00  0.00    -0.129 N 
ATOM      3  H2  UNL     1      27.046  25.701  21.455  1.00  0.00     0.205 HD
HETATM    4  N3  UNL     1      25.523  25.348  22.870  1.00  0.00    -0.249 N 
ATOM      5  H3  UNL     1      25.457  24.330  22.866  1.00  0.00     0.191 HD
HETATM    6  C2  UNL     1      24.771  26.179  23.633  1.00  0.00     0.278 A 
HETATM    7  N8  UNL     1      25.183  27.408  23.325  1.00  0.00    -0.151 N 
ATOM      8  H8  UNL     1      24.809  28.263  23.735  1.00  0.00     0.188 HD
ENDROOT
BRANCH   6   9
HETATM    9  O1  UNL     1      23.774  25.809  24.549  1.00  0.00    -0.180 OA
BRANCH   9  10
HETATM   10  N4  UNL     1      24.199  25.641  25.842  1.00  0.00    -0.155 N 
HETATM   11  N5  UNL     1      24.700  24.599  26.326  1.00  0.00    -0.060 N 
ATOM     12  H4  UNL     1      24.097  26.439  26.470  1.00  0.00     0.221 HD
BRANCH  11  13
HETATM   13  O2  UNL     1      24.866  23.497  25.546  1.00  0.00    -0.251 OA
ATOM     14  H2  UNL     1      24.124  22.938  25.346  1.00  0.00     0.248 HD
ENDBRANCH  11  13
BRANCH  11  15
HETATM   15  N6  UNL     1      25.087  24.571  27.654  1.00  0.00    -0.205 N 
ATOM     16  H6  UNL     1      26.016  24.258  27.934  1.00  0.00     0.212 HD
BRANCH  15  17
HETATM   17  N7  UNL     1      24.133  24.997  28.601  1.00  0.00    -0.328 N 
ATOM     18  H72 UNL     1      23.183  25.233  28.314  1.00  0.00     0.178 HD
ATOM     19  H71 UNL     1      24.444  25.053  29.571  1.00  0.00     0.178 HD
ENDBRANCH  15  17
ENDBRANCH  11  15
ENDBRANCH   9  10
ENDBRANCH   6   9
BRANCH   1  20
HETATM   20  N1  UNL     1      26.794  28.352  21.863  1.00  0.00    -0.233 N 
ATOM     21  H12 UNL     1      27.537  28.923  22.265  1.00  0.00     0.174 HD
ATOM     22  H11 UNL     1      26.631  28.711  20.923  1.00  0.00     0.174 HD
ENDBRANCH   1  20
TORSDOF 6
ENDMDL
MODEL 3
REMARK VINA RESULT: -5.611826744      1.210      1.420
REMARK  6 active torsions:
REMARK  status: ('A' for Active; 'I' for Inactive)
REMARK    1  A    between atoms: N1_1  and  C1_4 
REMARK    2  A    between atoms: C2_9  and  O1_10 
REMARK    3  A    between atoms: O1_10  and  N4_11 
REMARK    4  A    between atoms: N5_13  and  O2_14 
REMARK    5  A    between atoms: N5_13  and  N6_16 
REMARK    6  A    between atoms: N6_16  and  N7_18 
ROOT
HETATM    1  C1  UNL     1      24.349  25.718  28.017  1.00  0.00     0.693 A 
HETATM    2  N2  UNL     1      25.381  24.975  28.452  1.00  0.00    -0.129 N 
ATOM      3  H2  UNL     1      25.797  25.013  29.382  1.00  0.00     0.205 HD
HETATM    4  N3  UNL     1      25.766  24.175  27.447  1.00  0.00    -0.249 N 
ATOM      5  H3  UNL     1      26.530  23.500  27.491  1.00  0.00     0.191 HD
HETATM    6  C2  UNL     1      24.984  24.402  26.363  1.00  0.00     0.278 A 
HETATM    7  N8  UNL     1      24.126  25.349  26.741  1.00  0.00    -0.151 N 
ATOM      8  H8  UNL     1      23.398  25.742  26.145  1.00  0.00     0.188 HD
ENDROOT
BRANCH   6   9
HETATM    9  O1  UNL     1      25.069  23.766  25.115  1.00  0.00    -0.180 OA
BRANCH   9  10
HETATM   10  N4  UNL     1      25.626  24.517  24.111  1.00  0.00    -0.155 N 
HETATM   11  N5  UNL     1      25.022  25.334  23.378  1.00  0.00    -0.060 N 
ATOM     12  H4  UNL     1      26.625  24.399  23.945  1.00  0.00     0.221 HD
BRANCH  11  13
HETATM   13  O2  UNL     1      23.687  25.543  23.544  1.00  0.00    -0.251 OA
ATOM     14  H2  UNL     1      23.368  26.398  23.806  1.00  0.00     0.248 HD
ENDBRANCH  11  13
BRANCH  11  15
HETATM   15  N6  UNL     1      25.713  26.027  22.401  1.00  0.00    -0.205 N 
ATOM     16  H6  UNL     1      25.232  26.473  21.619  1.00  0.00     0.212 HD
BRANCH  15  17
HETATM   17  N7  UNL     1      27.115  26.088  22.537  1.00  0.00    -0.328 N 
ATOM     18  H72 UNL     1      27.587  25.586  23.290  1.00  0.00     0.178 HD
ATOM     19  H71 UNL     1      27.618  26.651  21.852  1.00  0.00     0.178 HD
ENDBRANCH  15  17
ENDBRANCH  11  15
ENDBRANCH   9  10
ENDBRANCH   6   9
BRANCH   1  20
HETATM   20  N1  UNL     1      23.725  26.600  28.715  1.00  0.00    -0.233 N 
ATOM     21  H12 UNL     1      22.993  26.457  29.411  1.00  0.00     0.174 HD
ATOM     22  H11 UNL     1      23.883  27.606  28.666  1.00  0.00     0.174 HD
ENDBRANCH   1  20
TORSDOF 6
ENDMDL
MODEL 4
REMARK VINA RESULT: -5.586250848      1.859      4.874
REMARK  6 active torsions:
REMARK  status: ('A' for Active; 'I' for Inactive)
REMARK    1  A    between atoms: N1_1  and  C1_4 
REMARK    2  A    between atoms: C2_9  and  O1_10 
REMARK    3  A    between atoms: O1_10  and  N4_11 
REMARK    4  A    between atoms: N5_13  and  O2_14 
REMARK    5  A    between atoms: N5_13  and  N6_16 
REMARK    6  A    between atoms: N6_16  and  N7_18 
ROOT
HETATM    1  C1  UNL     1      25.836  26.388  22.989  1.00  0.00     0.693 A 
HETATM    2  N2  UNL     1      27.001  25.723  23.063  1.00  0.00    -0.129 N 
ATOM      3  H2  UNL     1      27.856  25.951  22.556  1.00  0.00     0.205 HD
HETATM    4  N3  UNL     1      26.840  24.704  23.920  1.00  0.00    -0.249 N 
ATOM      5  H3  UNL     1      27.562  24.028  24.172  1.00  0.00     0.191 HD
HETATM    6  C2  UNL     1      25.572  24.711  24.400  1.00  0.00     0.278 A 
HETATM    7  N8  UNL     1      24.982  25.752  23.814  1.00  0.00    -0.151 N 
ATOM      8  H8  UNL     1      24.013  26.030  23.970  1.00  0.00     0.188 HD
ENDROOT
BRANCH   6   9
HETATM    9  O1  UNL     1      25.014  23.808  25.318  1.00  0.00    -0.180 OA
BRANCH   9  10
HETATM   10  N4  UNL     1      24.869  24.286  26.596  1.00  0.00    -0.155 N 
HETATM   11  N5  UNL     1      25.789  24.466  27.426  1.00  0.00    -0.060 N 
ATOM     12  H4  UNL     1      23.922  24.515  26.898  1.00  0.00     0.221 HD
BRANCH  11  13
HETATM   13  O2  UNL     1      27.077  24.182  27.090  1.00  0.00    -0.251 OA
ATOM     14  H2  UNL     1      27.694  23.905  27.758  1.00  0.00     0.248 HD
ENDBRANCH  11  13
BRANCH  11  15
HETATM   15  N6  UNL     1      25.497  24.957  28.686  1.00  0.00    -0.205 N 
ATOM     16  H6  UNL     1      26.232  25.244  29.333  1.00  0.00     0.212 HD
BRANCH  15  17
HETATM   17  N7  UNL     1      24.133  25.042  29.032  1.00  0.00    -0.328 N 
ATOM     18  H72 UNL     1      23.618  25.914  28.913  1.00  0.00     0.178 HD
ATOM     19  H71 UNL     1      23.700  24.195  29.402  1.00  0.00     0.178 HD
ENDBRANCH  15  17
ENDBRANCH  11  15
ENDBRANCH   9  10
ENDBRANCH   6   9
BRANCH   1  20
HETATM   20  N1  UNL     1      25.620  27.425  22.260  1.00  0.00    -0.233 N 
ATOM     21  H12 UNL     1      25.168  28.301  22.520  1.00  0.00     0.174 HD
ATOM     22  H11 UNL     1      25.881  27.516  21.278  1.00  0.00     0.174 HD
ENDBRANCH   1  20
TORSDOF 6
ENDMDL
MODEL 5
REMARK VINA RESULT: -5.580840524      3.043      3.648
REMARK  6 active torsions:
REMARK  status: ('A' for Active; 'I' for Inactive)
REMARK    1  A    between atoms: N1_1  and  C1_4 
REMARK    2  A    between atoms: C2_9  and  O1_10 
REMARK    3  A    between atoms: O1_10  and  N4_11 
REMARK    4  A    between atoms: N5_13  and  O2_14 
REMARK    5  A    between atoms: N5_13  and  N6_16 
REMARK    6  A    between atoms: N6_16  and  N7_18 
ROOT
HETATM    1  C1  UNL     1      25.677  25.016  28.531  1.00  0.00     0.693 A 
HETATM    2  N2  UNL     1      24.431  25.004  29.036  1.00  0.00    -0.129 N 
ATOM      3  H2  UNL     1      24.072  24.351  29.731  1.00  0.00     0.205 HD
HETATM    4  N3  UNL     1      23.744  26.003  28.462  1.00  0.00    -0.249 N 
ATOM      5  H3  UNL     1      22.769  26.233  28.655  1.00  0.00     0.191 HD
HETATM    6  C2  UNL     1      24.545  26.660  27.587  1.00  0.00     0.278 A 
HETATM    7  N8  UNL     1      25.721  26.035  27.651  1.00  0.00    -0.151 N 
ATOM      8  H8  UNL     1      26.544  26.294  27.107  1.00  0.00     0.188 HD
ENDROOT
BRANCH   6   9
HETATM    9  O1  UNL     1      24.198  27.762  26.791  1.00  0.00    -0.180 OA
BRANCH   9  10
HETATM   10  N4  UNL     1      23.879  27.468  25.490  1.00  0.00    -0.155 N 
HETATM   11  N5  UNL     1      23.315  28.236  24.676  1.00  0.00    -0.060 N 
ATOM     12  H4  UNL     1      24.125  26.537  25.153  1.00  0.00     0.221 HD
BRANCH  11  13
HETATM   13  O2  UNL     1      22.960  29.493  25.057  1.00  0.00    -0.251 OA
ATOM     14  H2  UNL     1      22.044  29.745  25.074  1.00  0.00     0.248 HD
ENDBRANCH  11  13
BRANCH  11  15
HETATM   15  N6  UNL     1      23.055  27.806  23.387  1.00  0.00    -0.205 N 
ATOM     16  H6  UNL     1      23.221  28.405  22.579  1.00  0.00     0.212 HD
BRANCH  15  17
HETATM   17  N7  UNL     1      22.548  26.497  23.246  1.00  0.00    -0.328 N 
ATOM     18  H72 UNL     1      23.179  25.703  23.136  1.00  0.00     0.178 HD
ATOM     19  H71 UNL     1      21.533  26.394  23.260  1.00  0.00     0.178 HD
ENDBRANCH  15  17
ENDBRANCH  11  15
ENDBRANCH   9  10
ENDBRANCH   6   9
BRANCH   1  20
HETATM   20  N1  UNL     1      26.613  24.196  28.852  1.00  0.00    -0.233 N 
ATOM     21  H12 UNL     1      26.749  23.700  29.733  1.00  0.00     0.174 HD
ATOM     22  H11 UNL     1      27.383  23.917  28.244  1.00  0.00     0.174 HD
ENDBRANCH   1  20
TORSDOF 6
ENDMDL
