MODEL 1
REMARK VINA RESULT: -5.721624996      0.000      0.000
REMARK  6 active torsions:
REMARK  status: ('A' for Active; 'I' for Inactive)
REMARK    1  A    between atoms: C2_3  and  N2_4 
REMARK    2  A    between atoms: C2_3  and  C3_8 
REMARK    3  A    between atoms: C3_8  and  N3_9 
REMARK    4  A    between atoms: C3_8  and  C4_13 
REMARK    5  A    between atoms: C4_13  and  N4_14 
REMARK    6  A    between atoms: C6_18  and  N6_19 
ROOT
HETATM    1  N1  UNL     1      23.713  28.320  22.550  1.00  0.00    -0.195 NA
HETATM    2  C1  UNL     1      24.314  27.485  23.057  1.00  0.00     0.094 C 
HETATM    3  C2  UNL     1      25.070  26.406  23.716  1.00  0.00     0.321 C 
ENDROOT
BRANCH   3   4
HETATM    4  N2  UNL     1      25.439  25.380  22.765  1.00  0.00    -0.060 N 
ATOM      5  H23 UNL     1      25.416  24.451  23.185  1.00  0.00     0.276 HD
ATOM      6  H22 UNL     1      24.718  25.246  22.056  1.00  0.00     0.276 HD
ATOM      7  H21 UNL     1      26.347  25.582  22.346  1.00  0.00     0.276 HD
ENDBRANCH   3   4
BRANCH   3   8
HETATM    8  C3  UNL     1      24.229  25.748  24.775  1.00  0.00     0.247 C 
BRANCH   8   9
HETATM    9  N3  UNL     1      22.840  25.629  24.376  1.00  0.00    -0.070 N 
ATOM     10  H33 UNL     1      22.382  26.540  24.360  1.00  0.00     0.274 HD
ATOM     11  H32 UNL     1      22.760  25.390  23.387  1.00  0.00     0.274 HD
ATOM     12  H31 UNL     1      22.327  24.969  24.959  1.00  0.00     0.274 HD
ENDBRANCH   8   9
BRANCH   8  13
HETATM   13  C4  UNL     1      24.274  26.559  26.035  1.00  0.00     0.186 C 
BRANCH  13  14
HETATM   14  N4  UNL     1      24.802  25.841  27.166  1.00  0.00    -0.271 N 
HETATM   15  C5  UNL     1      24.192  25.539  28.322  1.00  0.00     0.218 A 
HETATM   16  N5  UNL     1      25.059  24.856  29.093  1.00  0.00    -0.185 N 
HETATM   17  C6  UNL     1      26.218  24.724  28.428  1.00  0.00     0.691 A 
ATOM     18  H5  UNL     1      24.867  24.498  30.029  1.00  0.00     0.185 HD
HETATM   19  N7  UNL     1      26.029  25.338  27.249  1.00  0.00    -0.129 N 
ATOM     20  H7  UNL     1      26.734  25.409  26.514  1.00  0.00     0.206 HD
BRANCH  17  21
HETATM   21  N6  UNL     1      27.313  24.123  28.833  1.00  0.00    -0.233 N 
ATOM     22  H62 UNL     1      28.128  24.563  29.261  1.00  0.00     0.174 HD
ATOM     23  H61 UNL     1      27.531  23.128  28.790  1.00  0.00     0.174 HD
ENDBRANCH  17  21
ENDBRANCH  13  14
ENDBRANCH   8  13
ENDBRANCH   3   8
TORSDOF 6
ENDMDL
MODEL 2
REMARK VINA RESULT: -5.396210143      1.000      1.263
REMARK  6 active torsions:
REMARK  status: ('A' for Active; 'I' for Inactive)
REMARK    1  A    between atoms: C2_3  and  N2_4 
REMARK    2  A    between atoms: C2_3  and  C3_8 
REMARK    3  A    between atoms: C3_8  and  N3_9 
REMARK    4  A    between atoms: C3_8  and  C4_13 
REMARK    5  A    between atoms: C4_13  and  N4_14 
REMARK    6  A    between atoms: C6_18  and  N6_19 
ROOT
HETATM    1  N1  UNL     1      22.251  27.390  23.263  1.00  0.00    -0.195 NA
HETATM    2  C1  UNL     1      23.367  27.405  23.529  1.00  0.00     0.094 C 
HETATM    3  C2  UNL     1      24.800  27.405  23.872  1.00  0.00     0.321 C 
ENDROOT
BRANCH   3   4
HETATM    4  N2  UNL     1      25.614  27.587  22.689  1.00  0.00    -0.060 N 
ATOM      5  H23 UNL     1      25.422  28.479  22.234  1.00  0.00     0.276 HD
ATOM      6  H22 UNL     1      26.594  27.741  22.926  1.00  0.00     0.276 HD
ATOM      7  H21 UNL     1      25.500  26.803  22.046  1.00  0.00     0.276 HD
ENDBRANCH   3   4
BRANCH   3   8
HETATM    8  C3  UNL     1      25.193  26.088  24.483  1.00  0.00     0.247 C 
BRANCH   8   9
HETATM    9  N3  UNL     1      25.266  25.028  23.497  1.00  0.00    -0.070 N 
ATOM     10  H33 UNL     1      25.467  24.129  23.935  1.00  0.00     0.274 HD
ATOM     11  H32 UNL     1      24.345  24.817  23.112  1.00  0.00     0.274 HD
ATOM     12  H31 UNL     1      25.937  25.235  22.758  1.00  0.00     0.274 HD
ENDBRANCH   8   9
BRANCH   8  13
HETATM   13  C4  UNL     1      24.181  25.685  25.513  1.00  0.00     0.186 C 
BRANCH  13  14
HETATM   14  N4  UNL     1      24.758  25.350  26.790  1.00  0.00    -0.271 N 
HETATM   15  C5  UNL     1      24.213  25.471  28.009  1.00  0.00     0.218 A 
HETATM   16  N5  UNL     1      25.106  25.036  28.918  1.00  0.00    -0.185 N 
HETATM   17  C6  UNL     1      26.217  24.638  28.276  1.00  0.00     0.691 A 
ATOM     18  H5  UNL     1      24.963  25.011  29.927  1.00  0.00     0.185 HD
HETATM   19  N7  UNL     1      25.972  24.843  26.971  1.00  0.00    -0.129 N 
ATOM     20  H7  UNL     1      26.632  24.636  26.220  1.00  0.00     0.206 HD
BRANCH  17  21
HETATM   21  N6  UNL     1      27.317  24.149  28.800  1.00  0.00    -0.233 N 
ATOM     22  H62 UNL     1      28.269  24.478  28.638  1.00  0.00     0.174 HD
ATOM     23  H61 UNL     1      27.405  23.368  29.450  1.00  0.00     0.174 HD
ENDBRANCH  17  21
ENDBRANCH  13  14
ENDBRANCH   8  13
ENDBRANCH   3   8
TORSDOF 6
ENDMDL
MODEL 3
REMARK VINA RESULT: -5.374574337      1.382      1.772
REMARK  6 active torsions:
REMARK  status: ('A' for Active; 'I' for Inactive)
REMARK    1  A    between atoms: C2_3  and  N2_4 
REMARK    2  A    between atoms: C2_3  and  C3_8 
REMARK    3  A    between atoms: C3_8  and  N3_9 
REMARK    4  A    between atoms: C3_8  and  C4_13 
REMARK    5  A    between atoms: C4_13  and  N4_14 
REMARK    6  A    between atoms: C6_18  and  N6_19 
ROOT
HETATM    1  N1  UNL     1      23.739  28.355  22.507  1.00  0.00    -0.195 NA
HETATM    2  C1  UNL     1      24.549  27.598  22.799  1.00  0.00     0.094 C 
HETATM    3  C2  UNL     1      25.577  26.611  23.176  1.00  0.00     0.321 C 
ENDROOT
BRANCH   3   4
HETATM    4  N2  UNL     1      26.368  26.226  22.027  1.00  0.00    -0.060 N 
ATOM      5  H23 UNL     1      26.826  27.031  21.599  1.00  0.00     0.276 HD
ATOM      6  H22 UNL     1      27.200  25.703  22.301  1.00  0.00     0.276 HD
ATOM      7  H21 UNL     1      25.803  25.710  21.353  1.00  0.00     0.276 HD
ENDBRANCH   3   4
BRANCH   3   8
HETATM    8  C3  UNL     1      24.934  25.362  23.710  1.00  0.00     0.247 C 
BRANCH   8   9
HETATM    9  N3  UNL     1      23.634  25.623  24.299  1.00  0.00    -0.070 N 
ATOM     10  H33 UNL     1      23.254  24.786  24.741  1.00  0.00     0.274 HD
ATOM     11  H32 UNL     1      23.716  26.219  25.122  1.00  0.00     0.274 HD
ATOM     12  H31 UNL     1      22.978  26.013  23.623  1.00  0.00     0.274 HD
ENDBRANCH   8   9
BRANCH   8  13
HETATM   13  C4  UNL     1      25.803  24.759  24.773  1.00  0.00     0.186 C 
BRANCH  13  14
HETATM   14  N4  UNL     1      25.522  25.251  26.097  1.00  0.00    -0.271 N 
HETATM   15  C5  UNL     1      25.890  26.416  26.650  1.00  0.00     0.218 A 
HETATM   16  N5  UNL     1      25.408  26.461  27.906  1.00  0.00    -0.185 N 
HETATM   17  C6  UNL     1      24.734  25.325  28.151  1.00  0.00     0.691 A 
ATOM     18  H5  UNL     1      25.533  27.230  28.564  1.00  0.00     0.185 HD
HETATM   19  N7  UNL     1      24.822  24.603  27.022  1.00  0.00    -0.129 N 
ATOM     20  H7  UNL     1      24.407  23.680  26.892  1.00  0.00     0.206 HD
BRANCH  17  21
HETATM   21  N6  UNL     1      24.115  24.980  29.256  1.00  0.00    -0.233 N 
ATOM     22  H62 UNL     1      23.749  25.609  29.973  1.00  0.00     0.174 HD
ATOM     23  H61 UNL     1      23.897  24.039  29.583  1.00  0.00     0.174 HD
ENDBRANCH  17  21
ENDBRANCH  13  14
ENDBRANCH   8  13
ENDBRANCH   3   8
TORSDOF 6
ENDMDL
MODEL 4
REMARK VINA RESULT: -5.362855003      1.171      1.676
REMARK  6 active torsions:
REMARK  status: ('A' for Active; 'I' for Inactive)
REMARK    1  A    between atoms: C2_3  and  N2_4 
REMARK    2  A    between atoms: C2_3  and  C3_8 
REMARK    3  A    between atoms: C3_8  and  N3_9 
REMARK    4  A    between atoms: C3_8  and  C4_13 
REMARK    5  A    between atoms: C4_13  and  N4_14 
REMARK    6  A    between atoms: C6_18  and  N6_19 
ROOT
HETATM    1  N1  UNL     1      23.018  29.092  24.887  1.00  0.00    -0.195 NA
HETATM    2  C1  UNL     1      23.307  28.164  24.279  1.00  0.00     0.094 C 
HETATM    3  C2  UNL     1      23.687  26.965  23.513  1.00  0.00     0.321 C 
ENDROOT
BRANCH   3   4
HETATM    4  N2  UNL     1      22.552  26.084  23.336  1.00  0.00    -0.060 N 
ATOM      5  H23 UNL     1      22.680  25.460  22.539  1.00  0.00     0.276 HD
ATOM      6  H22 UNL     1      22.501  25.382  24.075  1.00  0.00     0.276 HD
ATOM      7  H21 UNL     1      21.686  26.618  23.262  1.00  0.00     0.276 HD
ENDBRANCH   3   4
BRANCH   3   8
HETATM    8  C3  UNL     1      24.743  26.185  24.247  1.00  0.00     0.247 C 
BRANCH   8   9
HETATM    9  N3  UNL     1      25.471  25.290  23.370  1.00  0.00    -0.070 N 
ATOM     10  H33 UNL     1      26.169  25.794  22.824  1.00  0.00     0.274 HD
ATOM     11  H32 UNL     1      26.093  24.678  23.901  1.00  0.00     0.274 HD
ATOM     12  H31 UNL     1      24.850  24.752  22.767  1.00  0.00     0.274 HD
ENDBRANCH   8   9
BRANCH   8  13
HETATM   13  C4  UNL     1      24.105  25.355  25.320  1.00  0.00     0.186 C 
BRANCH  13  14
HETATM   14  N4  UNL     1      24.802  25.403  26.580  1.00  0.00    -0.271 N 
HETATM   15  C5  UNL     1      24.709  26.323  27.550  1.00  0.00     0.218 A 
HETATM   16  N5  UNL     1      25.538  25.970  28.551  1.00  0.00    -0.185 N 
HETATM   17  C6  UNL     1      26.157  24.826  28.216  1.00  0.00     0.691 A 
ATOM     18  H5  UNL     1      25.674  26.486  29.420  1.00  0.00     0.185 HD
HETATM   19  N7  UNL     1      25.684  24.503  27.001  1.00  0.00    -0.129 N 
ATOM     20  H7  UNL     1      25.964  23.676  26.472  1.00  0.00     0.206 HD
BRANCH  17  21
HETATM   21  N6  UNL     1      27.039  24.154  28.918  1.00  0.00    -0.233 N 
ATOM     22  H62 UNL     1      26.918  23.224  29.322  1.00  0.00     0.174 HD
ATOM     23  H61 UNL     1      27.982  24.443  29.177  1.00  0.00     0.174 HD
ENDBRANCH  17  21
ENDBRANCH  13  14
ENDBRANCH   8  13
ENDBRANCH   3   8
TORSDOF 6
ENDMDL
MODEL 5
REMARK VINA RESULT: -5.361529233      1.668      5.474
REMARK  6 active torsions:
REMARK  status: ('A' for Active; 'I' for Inactive)
REMARK    1  A    between atoms: C2_3  and  N2_4 
REMARK    2  A    between atoms: C2_3  and  C3_8 
REMARK    3  A    between atoms: C3_8  and  N3_9 
REMARK    4  A    between atoms: C3_8  and  C4_13 
REMARK    5  A    between atoms: C4_13  and  N4_14 
REMARK    6  A    between atoms: C6_18  and  N6_19 
ROOT
HETATM    1  N1  UNL     1      27.362  24.194  28.711  1.00  0.00    -0.195 NA
HETATM    2  C1  UNL     1      26.395  24.791  28.559  1.00  0.00     0.094 C 
HETATM    3  C2  UNL     1      25.150  25.550  28.345  1.00  0.00     0.321 C 
ENDROOT
BRANCH   3   4
HETATM    4  N2  UNL     1      24.085  25.039  29.182  1.00  0.00    -0.060 N 
ATOM      5  H23 UNL     1      24.177  25.360  30.146  1.00  0.00     0.276 HD
ATOM      6  H22 UNL     1      23.189  25.474  28.959  1.00  0.00     0.276 HD
ATOM      7  H21 UNL     1      24.035  24.021  29.126  1.00  0.00     0.276 HD
ENDBRANCH   3   4
BRANCH   3   8
HETATM    8  C3  UNL     1      24.694  25.420  26.918  1.00  0.00     0.247 C 
BRANCH   8   9
HETATM    9  N3  UNL     1      24.907  24.084  26.395  1.00  0.00    -0.070 N 
ATOM     10  H33 UNL     1      25.819  23.721  26.671  1.00  0.00     0.274 HD
ATOM     11  H32 UNL     1      24.312  23.404  26.868  1.00  0.00     0.274 HD
ATOM     12  H31 UNL     1      24.784  24.043  25.384  1.00  0.00     0.274 HD
ENDBRANCH   8   9
BRANCH   8  13
HETATM   13  C4  UNL     1      25.458  26.376  26.053  1.00  0.00     0.186 C 
BRANCH  13  14
HETATM   14  N4  UNL     1      24.619  27.204  25.226  1.00  0.00    -0.271 N 
HETATM   15  C5  UNL     1      23.608  26.834  24.427  1.00  0.00     0.218 A 
HETATM   16  N5  UNL     1      23.102  27.937  23.843  1.00  0.00    -0.185 N 
HETATM   17  C6  UNL     1      23.792  29.007  24.271  1.00  0.00     0.691 A 
ATOM     18  H5  UNL     1      22.323  27.957  23.185  1.00  0.00     0.185 HD
HETATM   19  N7  UNL     1      24.716  28.525  25.118  1.00  0.00    -0.129 N 
ATOM     20  H7  UNL     1      25.400  29.098  25.613  1.00  0.00     0.206 HD
BRANCH  17  21
HETATM   21  N6  UNL     1      23.611  30.264  23.939  1.00  0.00    -0.233 N 
ATOM     22  H62 UNL     1      23.843  30.699  23.045  1.00  0.00     0.174 HD
ATOM     23  H61 UNL     1      23.214  31.010  24.511  1.00  0.00     0.174 HD
ENDBRANCH  17  21
ENDBRANCH  13  14
ENDBRANCH   8  13
ENDBRANCH   3   8
TORSDOF 6
ENDMDL
