MODEL 1
REMARK VINA RESULT: -5.664380724      0.000      0.000
REMARK  5 active torsions:
REMARK  status: ('A' for Active; 'I' for Inactive)
REMARK    1  A    between atoms: O1_2  and  C2_3 
REMARK    2  A    between atoms: C4_5  and  O2_6 
REMARK    3  A    between atoms: O2_6  and  N1_7 
REMARK    4  A    between atoms: N1_7  and  N2_8 
REMARK    5  A    between atoms: C5_13  and  N4_14 
ROOT
HETATM    1  C2  UNL     1      24.890  25.204  24.863  1.00  0.00     0.161 A 
HETATM    2  C3  UNL     1      23.843  26.078  24.968  1.00  0.00     0.115 A 
HETATM    3  C4  UNL     1      23.686  27.027  23.979  1.00  0.00     0.186 A 
HETATM    4  N3  UNL     1      24.584  27.021  22.977  1.00  0.00    -0.169 N 
ATOM      5  H3  UNL     1      24.484  27.717  22.237  1.00  0.00     0.186 HD
HETATM    6  C5  UNL     1      25.607  26.151  22.894  1.00  0.00     0.679 A 
HETATM    7  N5  UNL     1      25.782  25.215  23.847  1.00  0.00    -0.171 N 
ATOM      8  H5  UNL     1      26.551  24.547  23.805  1.00  0.00     0.186 HD
ENDROOT
BRANCH   3   9
HETATM    9  O2  UNL     1      22.656  27.963  23.989  1.00  0.00    -0.205 OA
BRANCH   9  10
HETATM   10  N1  UNL     1      22.663  29.102  24.700  1.00  0.00     0.021 NA
BRANCH  10  11
HETATM   11  N2  UNL     1      23.405  30.108  24.028  1.00  0.00    -0.322 N 
ATOM     12  H22 UNL     1      24.081  29.916  23.288  1.00  0.00     0.174 HD
ATOM     13  H21 UNL     1      23.167  31.032  24.388  1.00  0.00     0.174 HD
ENDBRANCH  10  11
ENDBRANCH   9  10
ENDBRANCH   3   9
BRANCH   1  14
HETATM   14  O1  UNL     1      25.082  24.237  25.835  1.00  0.00    -0.340 OA
HETATM   15  C1  UNL     1      25.637  24.562  27.077  1.00  0.00     0.211 C 
ENDBRANCH   1  14
BRANCH   6  16
HETATM   16  N4  UNL     1      26.464  26.156  21.925  1.00  0.00    -0.234 N 
ATOM     17  H42 UNL     1      26.102  26.374  20.997  1.00  0.00     0.174 HD
ATOM     18  H41 UNL     1      27.456  25.955  22.056  1.00  0.00     0.174 HD
ENDBRANCH   6  16
TORSDOF 5
ENDMDL
MODEL 2
REMARK VINA RESULT: -5.606254070      3.011      4.991
REMARK  5 active torsions:
REMARK  status: ('A' for Active; 'I' for Inactive)
REMARK    1  A    between atoms: O1_2  and  C2_3 
REMARK    2  A    between atoms: C4_5  and  O2_6 
REMARK    3  A    between atoms: O2_6  and  N1_7 
REMARK    4  A    between atoms: N1_7  and  N2_8 
REMARK    5  A    between atoms: C5_13  and  N4_14 
ROOT
HETATM    1  C2  UNL     1      24.283  27.551  27.056  1.00  0.00     0.161 A 
HETATM    2  C3  UNL     1      24.387  26.939  25.837  1.00  0.00     0.115 A 
HETATM    3  C4  UNL     1      24.448  25.561  25.804  1.00  0.00     0.186 A 
HETATM    4  N3  UNL     1      24.402  24.918  26.986  1.00  0.00    -0.169 N 
ATOM      5  H3  UNL     1      24.447  23.899  26.980  1.00  0.00     0.186 HD
HETATM    6  C5  UNL     1      24.299  25.542  28.174  1.00  0.00     0.679 A 
HETATM    7  N5  UNL     1      24.239  26.886  28.232  1.00  0.00    -0.171 N 
ATOM      8  H5  UNL     1      24.162  27.379  29.121  1.00  0.00     0.186 HD
ENDROOT
BRANCH   3   9
HETATM    9  O2  UNL     1      24.554  24.839  24.620  1.00  0.00    -0.205 OA
BRANCH   9  10
HETATM   10  N1  UNL     1      25.484  23.901  24.375  1.00  0.00     0.021 NA
BRANCH  10  11
HETATM   11  N2  UNL     1      26.712  24.500  23.992  1.00  0.00    -0.322 N 
ATOM     12  H22 UNL     1      27.314  25.019  24.630  1.00  0.00     0.174 HD
ATOM     13  H21 UNL     1      26.898  24.337  23.002  1.00  0.00     0.174 HD
ENDBRANCH  10  11
ENDBRANCH   9  10
ENDBRANCH   3   9
BRANCH   1  14
HETATM   14  O1  UNL     1      24.219  28.932  27.131  1.00  0.00    -0.340 OA
HETATM   15  C1  UNL     1      24.575  29.731  26.040  1.00  0.00     0.211 C 
ENDBRANCH   1  14
BRANCH   6  16
HETATM   16  N4  UNL     1      24.257  24.912  29.302  1.00  0.00    -0.234 N 
ATOM     17  H42 UNL     1      23.332  24.761  29.706  1.00  0.00     0.174 HD
ATOM     18  H41 UNL     1      25.090  24.574  29.785  1.00  0.00     0.174 HD
ENDBRANCH   6  16
TORSDOF 5
ENDMDL
MODEL 3
REMARK VINA RESULT: -5.571328050      3.114      4.061
REMARK  5 active torsions:
REMARK  status: ('A' for Active; 'I' for Inactive)
REMARK    1  A    between atoms: O1_2  and  C2_3 
REMARK    2  A    between atoms: C4_5  and  O2_6 
REMARK    3  A    between atoms: O2_6  and  N1_7 
REMARK    4  A    between atoms: N1_7  and  N2_8 
REMARK    5  A    between atoms: C5_13  and  N4_14 
ROOT
HETATM    1  C2  UNL     1      24.340  29.349  26.281  1.00  0.00     0.161 A 
HETATM    2  C3  UNL     1      23.685  28.617  25.330  1.00  0.00     0.115 A 
HETATM    3  C4  UNL     1      23.824  28.993  24.009  1.00  0.00     0.186 A 
HETATM    4  N3  UNL     1      24.600  30.062  23.756  1.00  0.00    -0.169 N 
ATOM      5  H3  UNL     1      24.714  30.355  22.785  1.00  0.00     0.186 HD
HETATM    6  C5  UNL     1      25.236  30.768  24.709  1.00  0.00     0.679 A 
HETATM    7  N5  UNL     1      25.115  30.422  26.005  1.00  0.00    -0.171 N 
ATOM      8  H5  UNL     1      25.587  30.943  26.744  1.00  0.00     0.186 HD
ENDROOT
BRANCH   3   9
HETATM    9  O2  UNL     1      23.202  28.318  22.963  1.00  0.00    -0.205 OA
BRANCH   9  10
HETATM   10  N1  UNL     1      22.162  27.480  23.103  1.00  0.00     0.021 NA
BRANCH  10  11
HETATM   11  N2  UNL     1      22.613  26.150  23.310  1.00  0.00    -0.322 N 
ATOM     12  H22 UNL     1      23.040  25.823  24.176  1.00  0.00     0.174 HD
ATOM     13  H21 UNL     1      22.451  25.582  22.478  1.00  0.00     0.174 HD
ENDBRANCH  10  11
ENDBRANCH   9  10
ENDBRANCH   3   9
BRANCH   1  14
HETATM   14  O1  UNL     1      24.225  29.004  27.617  1.00  0.00    -0.340 OA
HETATM   15  C1  UNL     1      24.305  27.669  28.027  1.00  0.00     0.211 C 
ENDBRANCH   1  14
BRANCH   6  16
HETATM   16  N4  UNL     1      25.979  31.795  24.452  1.00  0.00    -0.234 N 
ATOM     17  H42 UNL     1      26.984  31.630  24.405  1.00  0.00     0.174 HD
ATOM     18  H41 UNL     1      25.604  32.732  24.302  1.00  0.00     0.174 HD
ENDBRANCH   6  16
TORSDOF 5
ENDMDL
MODEL 4
REMARK VINA RESULT: -5.474675869      0.986      1.049
REMARK  5 active torsions:
REMARK  status: ('A' for Active; 'I' for Inactive)
REMARK    1  A    between atoms: O1_2  and  C2_3 
REMARK    2  A    between atoms: C4_5  and  O2_6 
REMARK    3  A    between atoms: O2_6  and  N1_7 
REMARK    4  A    between atoms: N1_7  and  N2_8 
REMARK    5  A    between atoms: C5_13  and  N4_14 
ROOT
HETATM    1  C2  UNL     1      24.379  25.595  24.320  1.00  0.00     0.161 A 
HETATM    2  C3  UNL     1      23.614  26.727  24.257  1.00  0.00     0.115 A 
HETATM    3  C4  UNL     1      23.947  27.686  23.322  1.00  0.00     0.186 A 
HETATM    4  N3  UNL     1      25.010  27.432  22.537  1.00  0.00    -0.169 N 
ATOM      5  H3  UNL     1      25.271  28.131  21.841  1.00  0.00     0.186 HD
HETATM    6  C5  UNL     1      25.749  26.310  22.617  1.00  0.00     0.679 A 
HETATM    7  N5  UNL     1      25.444  25.359  23.521  1.00  0.00    -0.171 N 
ATOM      8  H5  UNL     1      25.991  24.502  23.601  1.00  0.00     0.186 HD
ENDROOT
BRANCH   3   9
HETATM    9  O2  UNL     1      23.236  28.873  23.173  1.00  0.00    -0.205 OA
BRANCH   9  10
HETATM   10  N1  UNL     1      23.754  30.101  23.333  1.00  0.00     0.021 NA
BRANCH  10  11
HETATM   11  N2  UNL     1      24.217  30.281  24.663  1.00  0.00    -0.322 N 
ATOM     12  H22 UNL     1      24.051  31.123  25.214  1.00  0.00     0.174 HD
ATOM     13  H21 UNL     1      24.729  29.458  24.979  1.00  0.00     0.174 HD
ENDBRANCH  10  11
ENDBRANCH   9  10
ENDBRANCH   3   9
BRANCH   1  14
HETATM   14  O1  UNL     1      24.077  24.609  25.244  1.00  0.00    -0.340 OA
HETATM   15  C1  UNL     1      24.857  24.434  26.392  1.00  0.00     0.211 C 
ENDBRANCH   1  14
BRANCH   6  16
HETATM   16  N4  UNL     1      26.769  26.079  21.857  1.00  0.00    -0.234 N 
ATOM     17  H42 UNL     1      27.614  26.614  22.053  1.00  0.00     0.174 HD
ATOM     18  H41 UNL     1      26.754  25.402  21.093  1.00  0.00     0.174 HD
ENDBRANCH   6  16
TORSDOF 5
ENDMDL
MODEL 5
REMARK VINA RESULT: -5.440990600      1.054      1.138
REMARK  5 active torsions:
REMARK  status: ('A' for Active; 'I' for Inactive)
REMARK    1  A    between atoms: O1_2  and  C2_3 
REMARK    2  A    between atoms: C4_5  and  O2_6 
REMARK    3  A    between atoms: O2_6  and  N1_7 
REMARK    4  A    between atoms: N1_7  and  N2_8 
REMARK    5  A    between atoms: C5_13  and  N4_14 
ROOT
HETATM    1  C2  UNL     1      25.459  24.891  25.507  1.00  0.00     0.161 A 
HETATM    2  C3  UNL     1      24.180  25.358  25.392  1.00  0.00     0.115 A 
HETATM    3  C4  UNL     1      23.839  26.047  24.245  1.00  0.00     0.186 A 
HETATM    4  N3  UNL     1      24.802  26.207  23.319  1.00  0.00    -0.169 N 
ATOM      5  H3  UNL     1      24.568  26.715  22.465  1.00  0.00     0.186 HD
HETATM    6  C5  UNL     1      26.056  25.738  23.454  1.00  0.00     0.679 A 
HETATM    7  N5  UNL     1      26.413  25.063  24.564  1.00  0.00    -0.171 N 
ATOM      8  H5  UNL     1      27.358  24.700  24.688  1.00  0.00     0.186 HD
ENDROOT
BRANCH   3   9
HETATM    9  O2  UNL     1      22.566  26.564  24.026  1.00  0.00    -0.205 OA
BRANCH   9  10
HETATM   10  N1  UNL     1      22.309  27.746  23.442  1.00  0.00     0.021 NA
BRANCH  10  11
HETATM   11  N2  UNL     1      22.848  28.811  24.209  1.00  0.00    -0.322 N 
ATOM     12  H22 UNL     1      23.740  28.762  24.702  1.00  0.00     0.174 HD
ATOM     13  H21 UNL     1      22.223  29.617  24.195  1.00  0.00     0.174 HD
ENDBRANCH  10  11
ENDBRANCH   9  10
ENDBRANCH   3   9
BRANCH   1  14
HETATM   14  O1  UNL     1      25.840  24.195  26.642  1.00  0.00    -0.340 OA
HETATM   15  C1  UNL     1      26.116  24.864  27.839  1.00  0.00     0.211 C 
ENDBRANCH   1  14
BRANCH   6  16
HETATM   16  N4  UNL     1      26.973  25.900  22.556  1.00  0.00    -0.234 N 
ATOM     17  H42 UNL     1      27.077  25.152  21.871  1.00  0.00     0.174 HD
ATOM     18  H41 UNL     1      27.575  26.723  22.516  1.00  0.00     0.174 HD
ENDBRANCH   6  16
TORSDOF 5
ENDMDL
