MODEL 1
REMARK VINA RESULT: -6.905737359      0.000      0.000
REMARK  11 active torsions:
REMARK  status: ('A' for Active; 'I' for Inactive)
REMARK       I    between atoms: C2_2  and  N1_4 
REMARK    1  A    between atoms: N1_4  and  C3_6 
REMARK    2  A    between atoms: C5_10  and  C6_11 
REMARK    3  A    between atoms: C6_11  and  O2_12 
REMARK    4  A    between atoms: C6_11  and  N3_14 
REMARK    5  A    between atoms: N3_14  and  C7_16 
REMARK    6  A    between atoms: N4_19  and  C10_20 
REMARK    7  A    between atoms: C11_24  and  N6_25 
REMARK    8  A    between atoms: C13_31  and  N9_32 
REMARK    9  A    between atoms: N9_32  and  C14_34 
REMARK   10  A    between atoms: N12_37  and  N13_38 
REMARK   11  A    between atoms: C16_47  and  N16_48 
ROOT
HETATM    1  N6  UNL     1      42.123  -6.480  24.312  1.00  0.00    -0.066 N 
HETATM    2  N7  UNL     1      41.869  -5.261  24.726  1.00  0.00    -0.261 N 
ATOM      3  H7  UNL     1      42.409  -4.876  25.502  1.00  0.00     0.189 HD
HETATM    4  C12 UNL     1      40.910  -4.504  24.153  1.00  0.00     0.181 A 
HETATM    5  N8  UNL     1      40.466  -3.253  24.389  1.00  0.00    -0.171 N 
ATOM      6  H8  UNL     1      40.805  -2.607  25.102  1.00  0.00     0.186 HD
HETATM    7  C13 UNL     1      39.483  -3.027  23.494  1.00  0.00     0.684 A 
HETATM    8  N14 UNL     1      39.332  -4.118  22.729  1.00  0.00    -0.172 N 
ATOM      9  H14 UNL     1      38.655  -4.215  21.974  1.00  0.00     0.186 HD
HETATM   10  C15 UNL     1      40.213  -5.074  23.111  1.00  0.00     0.182 A 
HETATM   11  N15 UNL     1      40.483  -6.322  22.698  1.00  0.00    -0.171 N 
ATOM     12  H15 UNL     1      39.955  -6.727  21.925  1.00  0.00     0.186 HD
HETATM   13  C16 UNL     1      41.444  -7.035  23.296  1.00  0.00     0.698 A 
ENDROOT
BRANCH   1  14
HETATM   14  C11 UNL     1      43.161  -7.242  24.967  1.00  0.00     0.475 C 
HETATM   15  N5  UNL     1      43.506  -6.690  26.293  1.00  0.00     0.017 N 
HETATM   16  C10 UNL     1      42.396  -7.499  26.787  1.00  0.00     0.446 C 
ATOM     17  H52 UNL     1      43.561  -5.686  26.464  1.00  0.00     0.287 HD
ATOM     18  H51 UNL     1      44.446  -6.765  26.683  1.00  0.00     0.287 HD
HETATM   19  O4  UNL     1      42.697  -8.361  25.702  1.00  0.00    -0.291 OA
BRANCH  16  20
HETATM   20  N4  UNL     1      42.523  -8.059  28.088  1.00  0.00    -0.266 N 
HETATM   21  C3  UNL     1      43.364  -9.085  28.426  1.00  0.00     0.130 A 
HETATM   22  C4  UNL     1      43.158  -9.288  29.768  1.00  0.00     0.138 A 
HETATM   23  N2  UNL     1      42.237  -8.432  30.235  1.00  0.00    -0.348 N 
HETATM   24  C5  UNL     1      41.848  -7.675  29.194  1.00  0.00     0.138 A 
ATOM     25  H2  UNL     1      41.897  -8.368  31.195  1.00  0.00     0.166 HD
BRANCH  21  26
HETATM   26  N1  UNL     1      44.234  -9.766  27.542  1.00  0.00    -0.312 N 
HETATM   27  C2  UNL     1      44.028 -11.056  27.060  1.00  0.00     0.219 C 
HETATM   28  C1  UNL     1      44.971 -11.735  26.114  1.00  0.00     0.117 C 
HETATM   29  O1  UNL     1      43.030 -11.724  27.396  1.00  0.00    -0.274 OA
ATOM     30  H1  UNL     1      45.075  -9.275  27.235  1.00  0.00     0.170 HD
ENDBRANCH  21  26
BRANCH  24  31
HETATM   31  C6  UNL     1      40.810  -6.619  29.361  1.00  0.00     0.283 C 
BRANCH  31  32
HETATM   32  O2  UNL     1      39.590  -7.233  29.705  1.00  0.00    -0.370 OA
ATOM     33  H2  UNL     1      38.951  -7.045  29.028  1.00  0.00     0.212 HD
ENDBRANCH  31  32
BRANCH  31  34
HETATM   34  N3  UNL     1      41.108  -5.620  30.305  1.00  0.00    -0.387 N 
ATOM     35  H3  UNL     1      41.093  -5.839  31.301  1.00  0.00     0.156 HD
BRANCH  34  36
HETATM   36  C7  UNL     1      41.427  -4.314  29.872  1.00  0.00     0.071 C 
HETATM   37  C8  UNL     1      41.385  -4.239  28.366  1.00  0.00     0.031 C 
HETATM   38  C9  UNL     1      42.849  -3.905  30.266  1.00  0.00     0.031 C 
ENDBRANCH  34  36
ENDBRANCH  31  34
ENDBRANCH  24  31
ENDBRANCH  16  20
ENDBRANCH   1  14
BRANCH  13  39
HETATM   39  N16 UNL     1      41.723  -8.258  22.904  1.00  0.00    -0.233 N 
ATOM     40 2H16 UNL     1      42.544  -8.750  23.259  1.00  0.00     0.174 HD
ATOM     41 1H16 UNL     1      41.117  -8.734  22.235  1.00  0.00     0.174 HD
ENDBRANCH  13  39
BRANCH   7  42
HETATM   42  N9  UNL     1      38.741  -1.803  23.406  1.00  0.00    -0.182 N 
ATOM     43  H9  UNL     1      39.138  -0.978  22.957  1.00  0.00     0.182 HD
BRANCH  42  44
HETATM   44  C14 UNL     1      37.418  -1.776  23.973  1.00  0.00     0.377 C 
HETATM   45  N10 UNL     1      36.510  -1.398  22.882  1.00  0.00    -0.073 NA
HETATM   46  N11 UNL     1      36.186  -2.662  22.366  1.00  0.00    -0.005 NA
HETATM   47  N12 UNL     1      36.128  -3.490  23.483  1.00  0.00     0.006 NA
HETATM   48  O3  UNL     1      37.034  -3.040  24.363  1.00  0.00    -0.223 OA
BRANCH  47  49
HETATM   49  N13 UNL     1      36.344  -4.830  23.131  1.00  0.00    -0.324 NA
ATOM     50 2H13 UNL     1      37.133  -5.242  23.628  1.00  0.00     0.174 HD
ATOM     51 1H13 UNL     1      36.531  -4.922  22.133  1.00  0.00     0.174 HD
ENDBRANCH  47  49
ENDBRANCH  42  44
ENDBRANCH   7  42
TORSDOF 11
ENDMDL
MODEL 2
REMARK VINA RESULT: -6.755153148      5.108      8.281
REMARK  11 active torsions:
REMARK  status: ('A' for Active; 'I' for Inactive)
REMARK       I    between atoms: C2_2  and  N1_4 
REMARK    1  A    between atoms: N1_4  and  C3_6 
REMARK    2  A    between atoms: C5_10  and  C6_11 
REMARK    3  A    between atoms: C6_11  and  O2_12 
REMARK    4  A    between atoms: C6_11  and  N3_14 
REMARK    5  A    between atoms: N3_14  and  C7_16 
REMARK    6  A    between atoms: N4_19  and  C10_20 
REMARK    7  A    between atoms: C11_24  and  N6_25 
REMARK    8  A    between atoms: C13_31  and  N9_32 
REMARK    9  A    between atoms: N9_32  and  C14_34 
REMARK   10  A    between atoms: N12_37  and  N13_38 
REMARK   11  A    between atoms: C16_47  and  N16_48 
ROOT
HETATM    1  N6  UNL     1      39.925   0.725  21.170  1.00  0.00    -0.066 N 
HETATM    2  N7  UNL     1      38.858   0.952  21.899  1.00  0.00    -0.261 N 
ATOM      3  H7  UNL     1      38.443   0.183  22.427  1.00  0.00     0.189 HD
HETATM    4  C12 UNL     1      38.295   2.176  21.969  1.00  0.00     0.181 A 
HETATM    5  N8  UNL     1      37.222   2.657  22.629  1.00  0.00    -0.171 N 
ATOM      6  H8  UNL     1      36.596   2.135  23.242  1.00  0.00     0.186 HD
HETATM    7  C13 UNL     1      37.142   3.966  22.317  1.00  0.00     0.684 A 
HETATM    8  N14 UNL     1      38.145   4.276  21.482  1.00  0.00    -0.172 N 
ATOM      9  H14 UNL     1      38.317   5.201  21.090  1.00  0.00     0.186 HD
HETATM   10  C15 UNL     1      38.897   3.176  21.237  1.00  0.00     0.182 A 
HETATM   11  N15 UNL     1      39.988   2.930  20.495  1.00  0.00    -0.171 N 
ATOM     12  H15 UNL     1      40.419   3.683  19.959  1.00  0.00     0.186 HD
HETATM   13  C16 UNL     1      40.511   1.699  20.457  1.00  0.00     0.698 A 
ENDROOT
BRANCH   1  14
HETATM   14  C11 UNL     1      40.481  -0.608  21.135  1.00  0.00     0.475 C 
HETATM   15  N5  UNL     1      41.509  -0.811  22.176  1.00  0.00     0.017 N 
HETATM   16  C10 UNL     1      40.389  -1.142  23.051  1.00  0.00     0.446 C 
ATOM     17  H52 UNL     1      42.187  -0.087  22.416  1.00  0.00     0.287 HD
ATOM     18  H51 UNL     1      42.297  -1.445  22.042  1.00  0.00     0.287 HD
HETATM   19  O4  UNL     1      39.744  -1.574  21.864  1.00  0.00    -0.291 OA
BRANCH  16  20
HETATM   20  N4  UNL     1      40.606  -2.136  24.045  1.00  0.00    -0.266 N 
HETATM   21  C3  UNL     1      39.879  -3.287  24.180  1.00  0.00     0.130 A 
HETATM   22  C4  UNL     1      40.436  -3.937  25.254  1.00  0.00     0.138 A 
HETATM   23  N2  UNL     1      41.455  -3.223  25.756  1.00  0.00    -0.348 N 
HETATM   24  C5  UNL     1      41.556  -2.112  25.006  1.00  0.00     0.138 A 
ATOM     25  H2  UNL     1      42.041  -3.475  26.553  1.00  0.00     0.166 HD
BRANCH  21  26
HETATM   26  N1  UNL     1      38.787  -3.675  23.368  1.00  0.00    -0.312 N 
HETATM   27  C2  UNL     1      37.463  -3.304  23.586  1.00  0.00     0.219 C 
HETATM   28  C1  UNL     1      36.338  -3.729  22.692  1.00  0.00     0.117 C 
HETATM   29  O1  UNL     1      37.139  -2.586  24.552  1.00  0.00    -0.274 OA
ATOM     30  H1  UNL     1      38.985  -4.271  22.564  1.00  0.00     0.170 HD
ENDBRANCH  21  26
BRANCH  24  31
HETATM   31  C6  UNL     1      42.590  -1.080  25.302  1.00  0.00     0.283 C 
BRANCH  31  32
HETATM   32  O2  UNL     1      43.514  -1.046  24.240  1.00  0.00    -0.370 OA
ATOM     33  H2  UNL     1      43.346  -0.274  23.713  1.00  0.00     0.212 HD
ENDBRANCH  31  32
BRANCH  31  34
HETATM   34  N3  UNL     1      42.102   0.218  25.532  1.00  0.00    -0.387 N 
ATOM     35  H3  UNL     1      41.339   0.367  26.192  1.00  0.00     0.156 HD
BRANCH  34  36
HETATM   36  C7  UNL     1      42.671   1.316  24.850  1.00  0.00     0.071 C 
HETATM   37  C8  UNL     1      43.407   2.208  25.819  1.00  0.00     0.031 C 
HETATM   38  C9  UNL     1      41.609   2.205  24.196  1.00  0.00     0.031 C 
ENDBRANCH  34  36
ENDBRANCH  31  34
ENDBRANCH  24  31
ENDBRANCH  16  20
ENDBRANCH   1  14
BRANCH  13  39
HETATM   39  N16 UNL     1      41.580   1.440  19.737  1.00  0.00    -0.233 N 
ATOM     40 2H16 UNL     1      42.095   0.567  19.855  1.00  0.00     0.174 HD
ATOM     41 1H16 UNL     1      41.909   2.114  19.046  1.00  0.00     0.174 HD
ENDBRANCH  13  39
BRANCH   7  42
HETATM   42  N9  UNL     1      36.131   4.852  22.815  1.00  0.00    -0.182 N 
ATOM     43  H9  UNL     1      35.334   5.119  22.237  1.00  0.00     0.182 HD
BRANCH  42  44
HETATM   44  C14 UNL     1      36.275   5.353  24.157  1.00  0.00     0.377 C 
HETATM   45  N10 UNL     1      35.085   4.909  24.894  1.00  0.00    -0.073 NA
HETATM   46  N11 UNL     1      35.531   3.672  25.383  1.00  0.00    -0.005 NA
HETATM   47  N12 UNL     1      36.877   3.877  25.673  1.00  0.00     0.006 NA
HETATM   48  O3  UNL     1      37.350   4.757  24.781  1.00  0.00    -0.223 OA
BRANCH  47  49
HETATM   49  N13 UNL     1      37.587   2.667  25.660  1.00  0.00    -0.324 NA
ATOM     50 2H13 UNL     1      38.548   2.775  25.984  1.00  0.00     0.174 HD
ATOM     51 1H13 UNL     1      37.624   2.274  24.719  1.00  0.00     0.174 HD
ENDBRANCH  47  49
ENDBRANCH  42  44
ENDBRANCH   7  42
TORSDOF 11
ENDMDL
MODEL 3
REMARK VINA RESULT: -6.683418710      3.721      6.410
REMARK  11 active torsions:
REMARK  status: ('A' for Active; 'I' for Inactive)
REMARK       I    between atoms: C2_2  and  N1_4 
REMARK    1  A    between atoms: N1_4  and  C3_6 
REMARK    2  A    between atoms: C5_10  and  C6_11 
REMARK    3  A    between atoms: C6_11  and  O2_12 
REMARK    4  A    between atoms: C6_11  and  N3_14 
REMARK    5  A    between atoms: N3_14  and  C7_16 
REMARK    6  A    between atoms: N4_19  and  C10_20 
REMARK    7  A    between atoms: C11_24  and  N6_25 
REMARK    8  A    between atoms: C13_31  and  N9_32 
REMARK    9  A    between atoms: N9_32  and  C14_34 
REMARK   10  A    between atoms: N12_37  and  N13_38 
REMARK   11  A    between atoms: C16_47  and  N16_48 
ROOT
HETATM    1  N6  UNL     1      38.482  -1.873  22.694  1.00  0.00    -0.066 N 
HETATM    2  N7  UNL     1      39.163  -0.752  22.743  1.00  0.00    -0.261 N 
ATOM      3  H7  UNL     1      40.168  -0.772  22.564  1.00  0.00     0.189 HD
HETATM    4  C12 UNL     1      38.568   0.426  23.024  1.00  0.00     0.181 A 
HETATM    5  N8  UNL     1      39.035   1.687  23.132  1.00  0.00    -0.171 N 
ATOM      6  H8  UNL     1      39.999   1.995  23.010  1.00  0.00     0.186 HD
HETATM    7  C13 UNL     1      37.971   2.458  23.433  1.00  0.00     0.684 A 
HETATM    8  N14 UNL     1      36.879   1.682  23.508  1.00  0.00    -0.172 N 
ATOM      9  H14 UNL     1      35.939   2.013  23.722  1.00  0.00     0.186 HD
HETATM   10  C15 UNL     1      37.211   0.393  23.256  1.00  0.00     0.182 A 
HETATM   11  N15 UNL     1      36.527  -0.761  23.203  1.00  0.00    -0.171 N 
ATOM     12  H15 UNL     1      35.522  -0.765  23.379  1.00  0.00     0.186 HD
HETATM   13  C16 UNL     1      37.160  -1.905  22.920  1.00  0.00     0.698 A 
ENDROOT
BRANCH   1  14
HETATM   14  C11 UNL     1      39.176  -3.103  22.389  1.00  0.00     0.475 C 
HETATM   15  N5  UNL     1      40.631  -2.996  22.623  1.00  0.00     0.017 N 
HETATM   16  C10 UNL     1      40.316  -3.343  24.004  1.00  0.00     0.446 C 
ATOM     17  H52 UNL     1      41.157  -2.155  22.383  1.00  0.00     0.287 HD
ATOM     18  H51 UNL     1      41.308  -3.525  22.072  1.00  0.00     0.287 HD
HETATM   19  O4  UNL     1      39.211  -4.040  23.452  1.00  0.00    -0.291 OA
BRANCH  16  20
HETATM   20  N4  UNL     1      41.264  -4.132  24.713  1.00  0.00    -0.266 N 
HETATM   21  C3  UNL     1      41.489  -5.466  24.509  1.00  0.00     0.130 A 
HETATM   22  C4  UNL     1      42.478  -5.801  25.401  1.00  0.00     0.138 A 
HETATM   23  N2  UNL     1      42.845  -4.728  26.119  1.00  0.00    -0.348 N 
HETATM   24  C5  UNL     1      42.092  -3.700  25.690  1.00  0.00     0.138 A 
ATOM     25  H2  UNL     1      43.557  -4.699  26.849  1.00  0.00     0.166 HD
BRANCH  21  26
HETATM   26  N1  UNL     1      40.814  -6.285  23.574  1.00  0.00    -0.312 N 
HETATM   27  C2  UNL     1      41.156  -6.404  22.229  1.00  0.00     0.219 C 
HETATM   28  C1  UNL     1      40.420  -7.294  21.275  1.00  0.00     0.117 C 
HETATM   29  O1  UNL     1      42.111  -5.767  21.742  1.00  0.00    -0.274 OA
ATOM     30  H1  UNL     1      40.018  -6.828  23.909  1.00  0.00     0.170 HD
ENDBRANCH  21  26
BRANCH  24  31
HETATM   31  C6  UNL     1      42.233  -2.345  26.294  1.00  0.00     0.283 C 
BRANCH  31  32
HETATM   32  O2  UNL     1      42.982  -2.454  27.482  1.00  0.00    -0.370 OA
ATOM     33  H2  UNL     1      42.402  -2.724  28.185  1.00  0.00     0.212 HD
ENDBRANCH  31  32
BRANCH  31  34
HETATM   34  N3  UNL     1      42.817  -1.370  25.467  1.00  0.00    -0.387 N 
ATOM     35  H3  UNL     1      43.771  -1.494  25.128  1.00  0.00     0.156 HD
BRANCH  34  36
HETATM   36  C7  UNL     1      42.082  -0.220  25.106  1.00  0.00     0.071 C 
HETATM   37  C8  UNL     1      42.452   0.218  23.710  1.00  0.00     0.031 C 
HETATM   38  C9  UNL     1      42.396   0.976  26.010  1.00  0.00     0.031 C 
ENDBRANCH  34  36
ENDBRANCH  31  34
ENDBRANCH  24  31
ENDBRANCH  16  20
ENDBRANCH   1  14
BRANCH  13  39
HETATM   39  N16 UNL     1      36.507  -3.044  22.863  1.00  0.00    -0.233 N 
ATOM     40 2H16 UNL     1      37.003  -3.933  22.802  1.00  0.00     0.174 HD
ATOM     41 1H16 UNL     1      35.486  -3.051  22.878  1.00  0.00     0.174 HD
ENDBRANCH  13  39
BRANCH   7  42
HETATM   42  N9  UNL     1      38.036   3.875  23.635  1.00  0.00    -0.182 N 
ATOM     43  H9  UNL     1      38.330   4.501  22.885  1.00  0.00     0.182 HD
BRANCH  42  44
HETATM   44  C14 UNL     1      37.675   4.389  24.931  1.00  0.00     0.377 C 
HETATM   45  N10 UNL     1      36.608   5.372  24.702  1.00  0.00    -0.073 NA
HETATM   46  N11 UNL     1      35.475   4.549  24.791  1.00  0.00    -0.005 NA
HETATM   47  N12 UNL     1      35.795   3.621  25.778  1.00  0.00     0.006 NA
HETATM   48  O3  UNL     1      37.114   3.395  25.704  1.00  0.00    -0.223 OA
BRANCH  47  49
HETATM   49  N13 UNL     1      35.042   2.447  25.630  1.00  0.00    -0.324 NA
ATOM     50 2H13 UNL     1      34.146   2.495  26.115  1.00  0.00     0.174 HD
ATOM     51 1H13 UNL     1      35.545   1.639  25.998  1.00  0.00     0.174 HD
ENDBRANCH  47  49
ENDBRANCH  42  44
ENDBRANCH   7  42
TORSDOF 11
ENDMDL
MODEL 4
REMARK VINA RESULT: -6.617976904      6.345      9.837
REMARK  11 active torsions:
REMARK  status: ('A' for Active; 'I' for Inactive)
REMARK       I    between atoms: C2_2  and  N1_4 
REMARK    1  A    between atoms: N1_4  and  C3_6 
REMARK    2  A    between atoms: C5_10  and  C6_11 
REMARK    3  A    between atoms: C6_11  and  O2_12 
REMARK    4  A    between atoms: C6_11  and  N3_14 
REMARK    5  A    between atoms: N3_14  and  C7_16 
REMARK    6  A    between atoms: N4_19  and  C10_20 
REMARK    7  A    between atoms: C11_24  and  N6_25 
REMARK    8  A    between atoms: C13_31  and  N9_32 
REMARK    9  A    between atoms: N9_32  and  C14_34 
REMARK   10  A    between atoms: N12_37  and  N13_38 
REMARK   11  A    between atoms: C16_47  and  N16_48 
ROOT
HETATM    1  N6  UNL     1      38.814  -8.119  20.049  1.00  0.00    -0.066 N 
HETATM    2  N7  UNL     1      38.100  -7.020  20.105  1.00  0.00    -0.261 N 
ATOM      3  H7  UNL     1      37.198  -6.987  19.629  1.00  0.00     0.189 HD
HETATM    4  C12 UNL     1      38.530  -5.930  20.775  1.00  0.00     0.181 A 
HETATM    5  N8  UNL     1      37.996  -4.708  20.977  1.00  0.00    -0.171 N 
ATOM      6  H8  UNL     1      37.101  -4.365  20.629  1.00  0.00     0.186 HD
HETATM    7  C13 UNL     1      38.884  -4.030  21.732  1.00  0.00     0.684 A 
HETATM    8  N14 UNL     1      39.937  -4.822  21.984  1.00  0.00    -0.172 N 
ATOM      9  H14 UNL     1      40.753  -4.555  22.533  1.00  0.00     0.186 HD
HETATM   10  C15 UNL     1      39.753  -6.031  21.399  1.00  0.00     0.182 A 
HETATM   11  N15 UNL     1      40.473  -7.161  21.334  1.00  0.00    -0.171 N 
ATOM     12  H15 UNL     1      41.378  -7.216  21.802  1.00  0.00     0.186 HD
HETATM   13  C16 UNL     1      40.006  -8.217  20.657  1.00  0.00     0.698 A 
ENDROOT
BRANCH   1  14
HETATM   14  C11 UNL     1      38.302  -9.253  19.315  1.00  0.00     0.475 C 
HETATM   15  N5  UNL     1      37.422  -8.844  18.200  1.00  0.00     0.017 N 
HETATM   16  C10 UNL     1      38.654  -8.714  17.430  1.00  0.00     0.446 C 
ATOM     17  H52 UNL     1      36.757  -8.075  18.290  1.00  0.00     0.287 HD
ATOM     18  H51 UNL     1      36.645  -9.423  17.884  1.00  0.00     0.287 HD
HETATM   19  O4  UNL     1      39.156  -9.726  18.288  1.00  0.00    -0.291 OA
BRANCH  16  20
HETATM   20  N4  UNL     1      38.598  -9.036  16.046  1.00  0.00    -0.266 N 
HETATM   21  C3  UNL     1      38.625 -10.304  15.530  1.00  0.00     0.130 A 
HETATM   22  C4  UNL     1      38.545 -10.136  14.169  1.00  0.00     0.138 A 
HETATM   23  N2  UNL     1      38.472  -8.832  13.861  1.00  0.00    -0.348 N 
HETATM   24  C5  UNL     1      38.505  -8.157  15.024  1.00  0.00     0.138 A 
ATOM     25  H2  UNL     1      38.405  -8.431  12.925  1.00  0.00     0.166 HD
BRANCH  21  26
HETATM   26  N1  UNL     1      38.726 -11.499  16.279  1.00  0.00    -0.312 N 
HETATM   27  C2  UNL     1      37.653 -12.151  16.884  1.00  0.00     0.219 C 
HETATM   28  C1  UNL     1      37.803 -13.423  17.659  1.00  0.00     0.117 C 
HETATM   29  O1  UNL     1      36.493 -11.701  16.808  1.00  0.00    -0.274 OA
ATOM     30  H1  UNL     1      39.651 -11.915  16.384  1.00  0.00     0.170 HD
ENDBRANCH  21  26
BRANCH  24  31
HETATM   31  C6  UNL     1      38.457  -6.668  15.045  1.00  0.00     0.283 C 
BRANCH  31  32
HETATM   32  O2  UNL     1      39.057  -6.179  13.867  1.00  0.00    -0.370 OA
ATOM     33  H2  UNL     1      38.393  -5.747  13.343  1.00  0.00     0.212 HD
ENDBRANCH  31  32
BRANCH  31  34
HETATM   34  N3  UNL     1      37.178  -6.104  15.181  1.00  0.00    -0.387 N 
ATOM     35  H3  UNL     1      36.401  -6.461  14.624  1.00  0.00     0.156 HD
BRANCH  34  36
HETATM   36  C7  UNL     1      36.967  -5.043  16.089  1.00  0.00     0.071 C 
HETATM   37  C8  UNL     1      37.013  -3.720  15.365  1.00  0.00     0.031 C 
HETATM   38  C9  UNL     1      38.064  -4.968  17.156  1.00  0.00     0.031 C 
ENDBRANCH  34  36
ENDBRANCH  31  34
ENDBRANCH  24  31
ENDBRANCH  16  20
ENDBRANCH   1  14
BRANCH  13  39
HETATM   39  N16 UNL     1      40.697  -9.333  20.583  1.00  0.00    -0.233 N 
ATOM     40 2H16 UNL     1      41.308  -9.522  19.788  1.00  0.00     0.174 HD
ATOM     41 1H16 UNL     1      40.629 -10.029  21.327  1.00  0.00     0.174 HD
ENDBRANCH  13  39
BRANCH   7  42
HETATM   42  N9  UNL     1      38.698  -2.678  22.173  1.00  0.00    -0.182 N 
ATOM     43  H9  UNL     1      39.124  -1.898  21.673  1.00  0.00     0.182 HD
BRANCH  42  44
HETATM   44  C14 UNL     1      37.892  -2.457  23.345  1.00  0.00     0.377 C 
HETATM   45  N10 UNL     1      36.695  -1.736  22.893  1.00  0.00    -0.073 NA
HETATM   46  N11 UNL     1      35.843  -2.812  22.597  1.00  0.00    -0.005 NA
HETATM   47  N12 UNL     1      36.139  -3.766  23.566  1.00  0.00     0.006 NA
HETATM   48  O3  UNL     1      37.442  -3.655  23.854  1.00  0.00    -0.223 OA
BRANCH  47  49
HETATM   49  N13 UNL     1      35.795  -5.054  23.128  1.00  0.00    -0.324 NA
ATOM     50 2H13 UNL     1      35.154  -5.525  23.766  1.00  0.00     0.174 HD
ATOM     51 1H13 UNL     1      36.622  -5.643  23.036  1.00  0.00     0.174 HD
ENDBRANCH  47  49
ENDBRANCH  42  44
ENDBRANCH   7  42
TORSDOF 11
ENDMDL
MODEL 5
REMARK VINA RESULT: -6.609823498      6.680     10.426
REMARK  11 active torsions:
REMARK  status: ('A' for Active; 'I' for Inactive)
REMARK       I    between atoms: C2_2  and  N1_4 
REMARK    1  A    between atoms: N1_4  and  C3_6 
REMARK    2  A    between atoms: C5_10  and  C6_11 
REMARK    3  A    between atoms: C6_11  and  O2_12 
REMARK    4  A    between atoms: C6_11  and  N3_14 
REMARK    5  A    between atoms: N3_14  and  C7_16 
REMARK    6  A    between atoms: N4_19  and  C10_20 
REMARK    7  A    between atoms: C11_24  and  N6_25 
REMARK    8  A    between atoms: C13_31  and  N9_32 
REMARK    9  A    between atoms: N9_32  and  C14_34 
REMARK   10  A    between atoms: N12_37  and  N13_38 
REMARK   11  A    between atoms: C16_47  and  N16_48 
ROOT
HETATM    1  N6  UNL     1      38.181  -7.548  19.166  1.00  0.00    -0.066 N 
HETATM    2  N7  UNL     1      37.723  -6.337  19.385  1.00  0.00    -0.261 N 
ATOM      3  H7  UNL     1      36.921  -6.004  18.849  1.00  0.00     0.189 HD
HETATM    4  C12 UNL     1      38.285  -5.523  20.303  1.00  0.00     0.181 A 
HETATM    5  N8  UNL     1      38.009  -4.266  20.706  1.00  0.00    -0.171 N 
ATOM      6  H8  UNL     1      37.266  -3.661  20.359  1.00  0.00     0.186 HD
HETATM    7  C13 UNL     1      38.914  -3.969  21.660  1.00  0.00     0.684 A 
HETATM    8  N14 UNL     1      39.726  -5.024  21.834  1.00  0.00    -0.172 N 
ATOM      9  H14 UNL     1      40.499  -5.065  22.496  1.00  0.00     0.186 HD
HETATM   10  C15 UNL     1      39.363  -6.026  20.997  1.00  0.00     0.182 A 
HETATM   11  N15 UNL     1      39.821  -7.266  20.762  1.00  0.00    -0.171 N 
ATOM     12  H15 UNL     1      40.621  -7.620  21.286  1.00  0.00     0.186 HD
HETATM   13  C16 UNL     1      39.230  -8.037  19.843  1.00  0.00     0.698 A 
ENDROOT
BRANCH   1  14
HETATM   14  C11 UNL     1      37.536  -8.372  18.170  1.00  0.00     0.475 C 
HETATM   15  N5  UNL     1      36.887  -7.567  17.114  1.00  0.00     0.017 N 
HETATM   16  C10 UNL     1      38.199  -7.562  16.475  1.00  0.00     0.446 C 
ATOM     17  H52 UNL     1      36.384  -6.705  17.324  1.00  0.00     0.287 HD
ATOM     18  H51 UNL     1      36.049  -7.887  16.628  1.00  0.00     0.287 HD
HETATM   19  O4  UNL     1      38.388  -8.809  17.125  1.00  0.00    -0.291 OA
BRANCH  16  20
HETATM   20  N4  UNL     1      38.234  -7.584  15.054  1.00  0.00    -0.266 N 
HETATM   21  C3  UNL     1      38.870  -8.529  14.295  1.00  0.00     0.130 A 
HETATM   22  C4  UNL     1      38.638  -8.157  12.994  1.00  0.00     0.138 A 
HETATM   23  N2  UNL     1      37.897  -7.039  12.951  1.00  0.00    -0.348 N 
HETATM   24  C5  UNL     1      37.650  -6.689  14.226  1.00  0.00     0.138 A 
ATOM     25  H2  UNL     1      37.582  -6.550  12.113  1.00  0.00     0.166 HD
BRANCH  21  26
HETATM   26  N1  UNL     1      39.606  -9.630  14.793  1.00  0.00    -0.312 N 
HETATM   27  C2  UNL     1      40.987  -9.649  14.969  1.00  0.00     0.219 C 
HETATM   28  C1  UNL     1      41.725 -10.835  15.511  1.00  0.00     0.117 C 
HETATM   29  O1  UNL     1      41.693  -8.663  14.680  1.00  0.00    -0.274 OA
ATOM     30  H1  UNL     1      39.086 -10.472  15.041  1.00  0.00     0.170 HD
ENDBRANCH  21  26
BRANCH  24  31
HETATM   31  C6  UNL     1      36.855  -5.470  14.544  1.00  0.00     0.283 C 
BRANCH  31  32
HETATM   32  O2  UNL     1      35.552  -5.861  14.910  1.00  0.00    -0.370 OA
ATOM     33  H2  UNL     1      35.295  -5.379  15.687  1.00  0.00     0.212 HD
ENDBRANCH  31  32
BRANCH  31  34
HETATM   34  N3  UNL     1      37.389  -4.643  15.547  1.00  0.00    -0.387 N 
ATOM     35  H3  UNL     1      37.936  -5.049  16.305  1.00  0.00     0.156 HD
BRANCH  34  36
HETATM   36  C7  UNL     1      37.166  -3.248  15.504  1.00  0.00     0.071 C 
HETATM   37  C8  UNL     1      36.838  -2.817  14.095  1.00  0.00     0.031 C 
HETATM   38  C9  UNL     1      38.412  -2.450  15.900  1.00  0.00     0.031 C 
ENDBRANCH  34  36
ENDBRANCH  31  34
ENDBRANCH  24  31
ENDBRANCH  16  20
ENDBRANCH   1  14
BRANCH  13  39
HETATM   39  N16 UNL     1      39.665  -9.254  19.600  1.00  0.00    -0.233 N 
ATOM     40 2H16 UNL     1      39.671  -9.631  18.652  1.00  0.00     0.174 HD
ATOM     41 1H16 UNL     1      40.002  -9.840  20.364  1.00  0.00     0.174 HD
ENDBRANCH  13  39
BRANCH   7  42
HETATM   42  N9  UNL     1      38.970  -2.716  22.354  1.00  0.00    -0.182 N 
ATOM     43  H9  UNL     1      39.562  -1.956  22.019  1.00  0.00     0.182 HD
BRANCH  42  44
HETATM   44  C14 UNL     1      38.166  -2.565  23.538  1.00  0.00     0.377 C 
HETATM   45  N10 UNL     1      37.103  -1.612  23.196  1.00  0.00    -0.073 NA
HETATM   46  N11 UNL     1      36.114  -2.487  22.722  1.00  0.00    -0.005 NA
HETATM   47  N12 UNL     1      36.234  -3.616  23.527  1.00  0.00     0.006 NA
HETATM   48  O3  UNL     1      37.529  -3.748  23.843  1.00  0.00    -0.223 OA
BRANCH  47  49
HETATM   49  N13 UNL     1      35.721  -4.752  22.883  1.00  0.00    -0.324 NA
ATOM     50 2H13 UNL     1      36.117  -4.885  21.952  1.00  0.00     0.174 HD
ATOM     51 1H13 UNL     1      34.709  -4.689  22.778  1.00  0.00     0.174 HD
ENDBRANCH  47  49
ENDBRANCH  42  44
ENDBRANCH   7  42
TORSDOF 11
ENDMDL
