MODEL 1
REMARK VINA RESULT: -7.300953086      0.000      0.000
REMARK  15 active torsions:
REMARK  status: ('A' for Active; 'I' for Inactive)
REMARK    1  A    between atoms: C4_6  and  O1_7 
REMARK    2  A    between atoms: C5_9  and  C6_10 
REMARK    3  A    between atoms: N4_15  and  C7_16 
REMARK    4  A    between atoms: C7_16  and  C8_17 
REMARK    5  A    between atoms: C8_17  and  N5_18 
REMARK    6  A    between atoms: C8_17  and  C9_22 
REMARK    7  A    between atoms: C9_22  and  N6_23 
REMARK    8  A    between atoms: C11_28  and  C12_29 
REMARK    9  A    between atoms: C12_29  and  N9_30 
REMARK   10  A    between atoms: C12_29  and  O2_34 
REMARK   11  A    between atoms: C13_36  and  C14_37 
REMARK   12  A    between atoms: C14_37  and  O3_38 
REMARK   13  A    between atoms: C16_44  and  C17_45 
REMARK   14  A    between atoms: C17_45  and  O4_49 
REMARK   15  A    between atoms: C18_52  and  O5_53 
ROOT
HETATM    1  C6  UNL     1      37.904  -3.883  22.056  1.00  0.00     0.152 A 
HETATM    2  N2  UNL     1      37.028  -4.792  22.538  1.00  0.00    -0.268 N 
ATOM      3  H2  UNL     1      36.440  -4.681  23.364  1.00  0.00     0.190 HD
HETATM    4  N3  UNL     1      37.067  -5.816  21.773  1.00  0.00    -0.224 N 
ATOM      5  H3  UNL     1      36.499  -6.655  21.898  1.00  0.00     0.210 HD
HETATM    6  N4  UNL     1      37.937  -5.640  20.804  1.00  0.00    -0.216 N 
HETATM    7  N10 UNL     1      38.456  -4.451  20.947  1.00  0.00    -0.266 N 
ATOM      8  H10 UNL     1      39.153  -4.023  20.337  1.00  0.00     0.190 HD
ENDROOT
BRANCH   6   9
HETATM    9  C7  UNL     1      38.203  -6.723  19.875  1.00  0.00     0.209 C 
BRANCH   9  10
HETATM   10  C8  UNL     1      37.156  -6.718  18.705  1.00  0.00     0.243 C 
BRANCH  10  11
HETATM   11  N5  UNL     1      37.123  -8.216  18.446  1.00  0.00    -0.069 N 
ATOM     12  H53 UNL     1      37.517  -8.537  17.562  1.00  0.00     0.275 HD
ATOM     13  H52 UNL     1      37.749  -8.792  19.010  1.00  0.00     0.275 HD
ATOM     14  H51 UNL     1      36.122  -8.360  18.580  1.00  0.00     0.275 HD
ENDBRANCH  10  11
BRANCH  10  15
HETATM   15  C9  UNL     1      37.889  -6.196  17.539  1.00  0.00     0.107 C 
BRANCH  15  16
HETATM   16  N6  UNL     1      37.716  -4.923  16.936  1.00  0.00    -0.298 N 
HETATM   17  C10 UNL     1      38.694  -3.920  17.193  1.00  0.00     0.199 A 
HETATM   18  N7  UNL     1      39.729  -3.917  18.108  1.00  0.00    -0.063 NA
HETATM   19  N8  UNL     1      38.417  -2.887  16.371  1.00  0.00    -0.328 N 
HETATM   20  C11 UNL     1      37.350  -3.133  15.623  1.00  0.00     0.093 A 
ATOM     21  H8  UNL     1      38.959  -2.025  16.329  1.00  0.00     0.168 HD
HETATM   22  C13 UNL     1      36.925  -4.419  16.011  1.00  0.00     0.069 A 
BRANCH  20  23
HETATM   23  C12 UNL     1      36.638  -2.306  14.606  1.00  0.00     0.369 C 
BRANCH  23  24
HETATM   24  N9  UNL     1      36.879  -2.984  13.317  1.00  0.00    -0.047 N 
ATOM     25  H93 UNL     1      37.858  -3.218  13.151  1.00  0.00     0.277 HD
ATOM     26  H92 UNL     1      36.522  -3.939  13.281  1.00  0.00     0.277 HD
ATOM     27  H91 UNL     1      36.477  -2.368  12.610  1.00  0.00     0.277 HD
ENDBRANCH  23  24
BRANCH  23  28
HETATM   28  O2  UNL     1      37.227  -1.041  14.511  1.00  0.00    -0.365 OA
ATOM     29  H2  UNL     1      36.706  -0.400  14.980  1.00  0.00     0.212 HD
ENDBRANCH  23  28
ENDBRANCH  20  23
BRANCH  22  30
HETATM   30  C14 UNL     1      35.757  -5.054  15.355  1.00  0.00     0.224 C 
BRANCH  30  31
HETATM   31  O3  UNL     1      36.132  -5.729  14.186  1.00  0.00    -0.395 OA
ATOM     32  H3  UNL     1      35.623  -5.438  13.439  1.00  0.00     0.209 HD
ENDBRANCH  30  31
ENDBRANCH  22  30
ENDBRANCH  15  16
ENDBRANCH  10  15
ENDBRANCH   9  10
ENDBRANCH   6   9
BRANCH   1  33
HETATM   33  C5  UNL     1      38.202  -2.584  22.672  1.00  0.00     0.074 A 
HETATM   34  C4  UNL     1      37.199  -1.662  22.946  1.00  0.00     0.126 A 
HETATM   35  C3  UNL     1      37.517  -0.475  23.537  1.00  0.00     0.149 A 
HETATM   36  N1  UNL     1      36.867   0.600  23.977  1.00  0.00    -0.340 N 
HETATM   37  N13 UNL     1      38.823  -0.164  23.879  1.00  0.00    -0.268 N 
HETATM   38  C2  UNL     1      37.519   1.504  24.530  1.00  0.00     0.059 A 
ATOM     39  H1  UNL     1      35.857   0.681  23.863  1.00  0.00     0.167 HD
HETATM   40  C1  UNL     1      37.130   2.831  25.147  1.00  0.00     0.072 C 
HETATM   41  C18 UNL     1      38.868   1.054  24.501  1.00  0.00     0.171 A 
HETATM   42  C16 UNL     1      39.832  -1.050  23.616  1.00  0.00     0.118 A 
HETATM   43  C15 UNL     1      39.471  -2.270  23.006  1.00  0.00     0.095 A 
HETATM   44  N11 UNL     1      40.475  -3.298  22.826  1.00  0.00    -0.099 NA
BRANCH  34  45
HETATM   45  O1  UNL     1      35.910  -1.943  22.619  1.00  0.00    -0.356 OA
ATOM     46  H1  UNL     1      35.702  -2.715  22.108  1.00  0.00     0.218 HD
ENDBRANCH  34  45
BRANCH  41  47
HETATM   47  O5  UNL     1      39.947   1.727  25.020  1.00  0.00    -0.344 OA
ATOM     48  H5  UNL     1      40.177   1.777  25.940  1.00  0.00     0.219 HD
ENDBRANCH  41  47
BRANCH  42  49
HETATM   49  C17 UNL     1      41.136  -0.603  23.798  1.00  0.00     0.163 C 
HETATM   50  N12 UNL     1      42.331   0.023  23.728  1.00  0.00    -0.378 N 
ATOM     51 2H12 UNL     1      42.045   0.621  22.953  1.00  0.00     0.158 HD
ATOM     52 1H12 UNL     1      43.288   0.351  23.861  1.00  0.00     0.158 HD
BRANCH  49  53
HETATM   53  O4  UNL     1      41.569  -1.508  24.972  1.00  0.00    -0.345 OA
ATOM     54  H4  UNL     1      41.835  -0.847  25.601  1.00  0.00     0.219 HD
ENDBRANCH  49  53
ENDBRANCH  42  49
ENDBRANCH   1  33
TORSDOF 15
ENDMDL
MODEL 2
REMARK VINA RESULT: -7.031325919      1.125      2.465
REMARK  15 active torsions:
REMARK  status: ('A' for Active; 'I' for Inactive)
REMARK    1  A    between atoms: C4_6  and  O1_7 
REMARK    2  A    between atoms: C5_9  and  C6_10 
REMARK    3  A    between atoms: N4_15  and  C7_16 
REMARK    4  A    between atoms: C7_16  and  C8_17 
REMARK    5  A    between atoms: C8_17  and  N5_18 
REMARK    6  A    between atoms: C8_17  and  C9_22 
REMARK    7  A    between atoms: C9_22  and  N6_23 
REMARK    8  A    between atoms: C11_28  and  C12_29 
REMARK    9  A    between atoms: C12_29  and  N9_30 
REMARK   10  A    between atoms: C12_29  and  O2_34 
REMARK   11  A    between atoms: C13_36  and  C14_37 
REMARK   12  A    between atoms: C14_37  and  O3_38 
REMARK   13  A    between atoms: C16_44  and  C17_45 
REMARK   14  A    between atoms: C17_45  and  O4_49 
REMARK   15  A    between atoms: C18_52  and  O5_53 
ROOT
HETATM    1  C6  UNL     1      38.101  -3.821  22.162  1.00  0.00     0.152 A 
HETATM    2  N2  UNL     1      37.111  -4.627  22.606  1.00  0.00    -0.268 N 
ATOM      3  H2  UNL     1      36.493  -4.441  23.396  1.00  0.00     0.190 HD
HETATM    4  N3  UNL     1      37.085  -5.663  21.858  1.00  0.00    -0.224 N 
ATOM      5  H3  UNL     1      36.428  -6.437  21.961  1.00  0.00     0.210 HD
HETATM    6  N4  UNL     1      38.021  -5.596  20.937  1.00  0.00    -0.216 N 
HETATM    7  N10 UNL     1      38.652  -4.464  21.094  1.00  0.00    -0.266 N 
ATOM      8  H10 UNL     1      39.422  -4.121  20.519  1.00  0.00     0.190 HD
ENDROOT
BRANCH   6   9
HETATM    9  C7  UNL     1      38.225  -6.718  20.039  1.00  0.00     0.209 C 
BRANCH   9  10
HETATM   10  C8  UNL     1      37.196  -6.671  18.853  1.00  0.00     0.243 C 
BRANCH  10  11
HETATM   11  N5  UNL     1      37.123  -8.164  18.579  1.00  0.00    -0.069 N 
ATOM     12  H53 UNL     1      37.331  -8.785  19.361  1.00  0.00     0.275 HD
ATOM     13  H52 UNL     1      36.193  -8.558  18.429  1.00  0.00     0.275 HD
ATOM     14  H51 UNL     1      37.766  -8.194  17.788  1.00  0.00     0.275 HD
ENDBRANCH  10  11
BRANCH  10  15
HETATM   15  C9  UNL     1      37.962  -6.159  17.704  1.00  0.00     0.107 C 
BRANCH  15  16
HETATM   16  N6  UNL     1      37.783  -4.905  17.065  1.00  0.00    -0.298 N 
HETATM   17  C10 UNL     1      38.772  -3.900  17.270  1.00  0.00     0.199 A 
HETATM   18  N7  UNL     1      39.826  -3.874  18.163  1.00  0.00    -0.063 NA
HETATM   19  N8  UNL     1      38.484  -2.893  16.420  1.00  0.00    -0.328 N 
HETATM   20  C11 UNL     1      37.401  -3.155  15.702  1.00  0.00     0.093 A 
ATOM     21  H8  UNL     1      39.030  -2.036  16.340  1.00  0.00     0.168 HD
HETATM   22  C13 UNL     1      36.977  -4.427  16.140  1.00  0.00     0.069 A 
BRANCH  20  23
HETATM   23  C12 UNL     1      36.674  -2.358  14.673  1.00  0.00     0.369 C 
BRANCH  23  24
HETATM   24  N9  UNL     1      36.902  -3.067  13.398  1.00  0.00    -0.047 N 
ATOM     25  H93 UNL     1      36.847  -4.083  13.477  1.00  0.00     0.277 HD
ATOM     26  H92 UNL     1      36.144  -2.958  12.725  1.00  0.00     0.277 HD
ATOM     27  H91 UNL     1      37.803  -2.729  13.061  1.00  0.00     0.277 HD
ENDBRANCH  23  24
BRANCH  23  28
HETATM   28  O2  UNL     1      37.255  -1.093  14.539  1.00  0.00    -0.365 OA
ATOM     29  H2  UNL     1      37.649  -0.823  15.360  1.00  0.00     0.212 HD
ENDBRANCH  23  28
ENDBRANCH  20  23
BRANCH  22  30
HETATM   30  C14 UNL     1      35.793  -5.074  15.527  1.00  0.00     0.224 C 
BRANCH  30  31
HETATM   31  O3  UNL     1      36.142  -5.797  14.379  1.00  0.00    -0.395 OA
ATOM     32  H3  UNL     1      35.718  -5.444  13.605  1.00  0.00     0.209 HD
ENDBRANCH  30  31
ENDBRANCH  22  30
ENDBRANCH  15  16
ENDBRANCH  10  15
ENDBRANCH   9  10
ENDBRANCH   6   9
BRANCH   1  33
HETATM   33  C5  UNL     1      38.498  -2.549  22.778  1.00  0.00     0.074 A 
HETATM   34  C4  UNL     1      39.817  -2.295  23.137  1.00  0.00     0.126 A 
HETATM   35  C3  UNL     1      40.146  -1.092  23.688  1.00  0.00     0.149 A 
HETATM   36  N1  UNL     1      41.252  -0.482  24.107  1.00  0.00    -0.340 N 
HETATM   37  N13 UNL     1      39.194  -0.106  23.897  1.00  0.00    -0.268 N 
HETATM   38  C2  UNL     1      41.165   0.688  24.523  1.00  0.00     0.059 A 
ATOM     39  H1  UNL     1      42.151  -0.963  24.088  1.00  0.00     0.167 HD
HETATM   40  C1  UNL     1      42.182   1.675  25.054  1.00  0.00     0.072 C 
HETATM   41  C18 UNL     1      39.786   1.016  24.410  1.00  0.00     0.171 A 
HETATM   42  C16 UNL     1      37.888  -0.331  23.558  1.00  0.00     0.118 A 
HETATM   43  C15 UNL     1      37.579  -1.584  22.988  1.00  0.00     0.095 A 
HETATM   44  N11 UNL     1      36.241  -1.827  22.489  1.00  0.00    -0.099 NA
BRANCH  34  45
HETATM   45  O1  UNL     1      40.768  -3.246  22.944  1.00  0.00    -0.356 OA
ATOM     46  H1  UNL     1      40.944  -3.578  22.072  1.00  0.00     0.218 HD
ENDBRANCH  34  45
BRANCH  41  47
HETATM   47  O5  UNL     1      39.222   2.224  24.739  1.00  0.00    -0.344 OA
ATOM     48  H5  UNL     1      38.335   2.351  25.056  1.00  0.00     0.219 HD
ENDBRANCH  41  47
BRANCH  42  49
HETATM   49  C17 UNL     1      36.952   0.612  23.972  1.00  0.00     0.163 C 
HETATM   50  N12 UNL     1      36.045   1.608  24.064  1.00  0.00    -0.378 N 
ATOM     51 2H12 UNL     1      36.079   1.818  23.066  1.00  0.00     0.158 HD
ATOM     52 1H12 UNL     1      35.359   2.299  24.368  1.00  0.00     0.158 HD
BRANCH  49  53
HETATM   53  O4  UNL     1      36.901   0.294  25.483  1.00  0.00    -0.345 OA
ATOM     54  H4  UNL     1      36.931  -0.655  25.453  1.00  0.00     0.219 HD
ENDBRANCH  49  53
ENDBRANCH  42  49
ENDBRANCH   1  33
TORSDOF 15
ENDMDL
MODEL 3
REMARK VINA RESULT: -7.006107632      1.767      2.411
REMARK  15 active torsions:
REMARK  status: ('A' for Active; 'I' for Inactive)
REMARK    1  A    between atoms: C4_6  and  O1_7 
REMARK    2  A    between atoms: C5_9  and  C6_10 
REMARK    3  A    between atoms: N4_15  and  C7_16 
REMARK    4  A    between atoms: C7_16  and  C8_17 
REMARK    5  A    between atoms: C8_17  and  N5_18 
REMARK    6  A    between atoms: C8_17  and  C9_22 
REMARK    7  A    between atoms: C9_22  and  N6_23 
REMARK    8  A    between atoms: C11_28  and  C12_29 
REMARK    9  A    between atoms: C12_29  and  N9_30 
REMARK   10  A    between atoms: C12_29  and  O2_34 
REMARK   11  A    between atoms: C13_36  and  C14_37 
REMARK   12  A    between atoms: C14_37  and  O3_38 
REMARK   13  A    between atoms: C16_44  and  C17_45 
REMARK   14  A    between atoms: C17_45  and  O4_49 
REMARK   15  A    between atoms: C18_52  and  O5_53 
ROOT
HETATM    1  C6  UNL     1      38.746  -2.343  23.252  1.00  0.00     0.152 A 
HETATM    2  N2  UNL     1      39.136  -3.299  24.124  1.00  0.00    -0.268 N 
ATOM      3  H2  UNL     1      39.316  -3.166  25.119  1.00  0.00     0.190 HD
HETATM    4  N3  UNL     1      39.237  -4.399  23.480  1.00  0.00    -0.224 N 
ATOM      5  H3  UNL     1      39.508  -5.290  23.895  1.00  0.00     0.210 HD
HETATM    6  N4  UNL     1      38.943  -4.223  22.211  1.00  0.00    -0.216 N 
HETATM    7  N10 UNL     1      38.623  -2.969  22.047  1.00  0.00    -0.266 N 
ATOM      8  H10 UNL     1      38.333  -2.533  21.171  1.00  0.00     0.190 HD
ENDROOT
BRANCH   6   9
HETATM    9  C7  UNL     1      39.085  -5.331  21.284  1.00  0.00     0.209 C 
BRANCH   9  10
HETATM   10  C8  UNL     1      37.972  -5.271  20.177  1.00  0.00     0.243 C 
BRANCH  10  11
HETATM   11  N5  UNL     1      37.391  -6.661  20.388  1.00  0.00    -0.069 N 
ATOM     12  H53 UNL     1      37.967  -7.325  20.905  1.00  0.00     0.275 HD
ATOM     13  H52 UNL     1      36.607  -6.735  21.038  1.00  0.00     0.275 HD
ATOM     14  H51 UNL     1      37.200  -6.883  19.411  1.00  0.00     0.275 HD
ENDBRANCH  10  11
BRANCH  10  15
HETATM   15  C9  UNL     1      38.696  -5.405  18.901  1.00  0.00     0.107 C 
BRANCH  15  16
HETATM   16  N6  UNL     1      38.171  -5.157  17.606  1.00  0.00    -0.298 N 
HETATM   17  C10 UNL     1      38.515  -3.931  16.966  1.00  0.00     0.199 A 
HETATM   18  N7  UNL     1      39.151  -2.819  17.483  1.00  0.00    -0.063 NA
HETATM   19  N8  UNL     1      38.065  -4.016  15.697  1.00  0.00    -0.328 N 
HETATM   20  C11 UNL     1      37.458  -5.173  15.472  1.00  0.00     0.093 A 
ATOM     21  H8  UNL     1      38.177  -3.282  14.999  1.00  0.00     0.168 HD
HETATM   22  C13 UNL     1      37.533  -5.865  16.698  1.00  0.00     0.069 A 
BRANCH  20  23
HETATM   23  C12 UNL     1      36.776  -5.717  14.263  1.00  0.00     0.369 C 
BRANCH  23  24
HETATM   24  N9  UNL     1      37.817  -6.468  13.534  1.00  0.00    -0.047 N 
ATOM     25  H93 UNL     1      38.204  -7.252  14.060  1.00  0.00     0.277 HD
ATOM     26  H92 UNL     1      37.459  -7.016  12.752  1.00  0.00     0.277 HD
ATOM     27  H91 UNL     1      38.511  -5.771  13.264  1.00  0.00     0.277 HD
ENDBRANCH  23  24
BRANCH  23  28
HETATM   28  O2  UNL     1      36.370  -4.675  13.424  1.00  0.00    -0.365 OA
ATOM     29  H2  UNL     1      35.496  -4.841  13.090  1.00  0.00     0.212 HD
ENDBRANCH  23  28
ENDBRANCH  20  23
BRANCH  22  30
HETATM   30  C14 UNL     1      36.979  -7.234  16.821  1.00  0.00     0.224 C 
BRANCH  30  31
HETATM   31  O3  UNL     1      37.825  -8.182  16.230  1.00  0.00    -0.395 OA
ATOM     32  H3  UNL     1      37.904  -8.960  16.770  1.00  0.00     0.209 HD
ENDBRANCH  30  31
ENDBRANCH  22  30
ENDBRANCH  15  16
ENDBRANCH  10  15
ENDBRANCH   9  10
ENDBRANCH   6   9
BRANCH   1  33
HETATM   33  C5  UNL     1      38.562  -0.923  23.576  1.00  0.00     0.074 A 
HETATM   34  C4  UNL     1      37.313  -0.317  23.503  1.00  0.00     0.126 A 
HETATM   35  C3  UNL     1      37.182   1.000  23.832  1.00  0.00     0.149 A 
HETATM   36  N1  UNL     1      36.196   1.888  23.926  1.00  0.00    -0.340 N 
HETATM   37  N13 UNL     1      38.270   1.755  24.245  1.00  0.00    -0.268 N 
HETATM   38  C2  UNL     1      36.464   3.036  24.324  1.00  0.00     0.059 A 
ATOM     39  H1  UNL     1      35.240   1.633  23.677  1.00  0.00     0.167 HD
HETATM   40  C1  UNL     1      35.623   4.272  24.561  1.00  0.00     0.072 C 
HETATM   41  C18 UNL     1      37.866   3.022  24.563  1.00  0.00     0.171 A 
HETATM   42  C16 UNL     1      39.511   1.185  24.320  1.00  0.00     0.118 A 
HETATM   43  C15 UNL     1      39.614  -0.179  23.976  1.00  0.00     0.095 A 
HETATM   44  N11 UNL     1      40.875  -0.866  24.163  1.00  0.00    -0.099 NA
BRANCH  34  45
HETATM   45  O1  UNL     1      36.232  -1.035  23.101  1.00  0.00    -0.356 OA
ATOM     46  H1  UNL     1      36.092  -1.915  23.428  1.00  0.00     0.218 HD
ENDBRANCH  34  45
BRANCH  41  47
HETATM   47  O5  UNL     1      38.608   4.078  25.034  1.00  0.00    -0.344 OA
ATOM     48  H5  UNL     1      39.375   4.011  25.589  1.00  0.00     0.219 HD
ENDBRANCH  41  47
BRANCH  42  49
HETATM   49  C17 UNL     1      40.589   2.036  24.545  1.00  0.00     0.163 C 
HETATM   50  N12 UNL     1      41.622   2.900  24.447  1.00  0.00    -0.378 N 
ATOM     51 2H12 UNL     1      41.527   2.999  23.436  1.00  0.00     0.158 HD
ATOM     52 1H12 UNL     1      42.412   3.523  24.613  1.00  0.00     0.158 HD
BRANCH  49  53
HETATM   53  O4  UNL     1      40.733   1.886  26.076  1.00  0.00    -0.345 OA
ATOM     54  H4  UNL     1      41.632   2.175  26.186  1.00  0.00     0.219 HD
ENDBRANCH  49  53
ENDBRANCH  42  49
ENDBRANCH   1  33
TORSDOF 15
ENDMDL
MODEL 4
REMARK VINA RESULT: -6.958742349      1.827      2.396
REMARK  15 active torsions:
REMARK  status: ('A' for Active; 'I' for Inactive)
REMARK    1  A    between atoms: C4_6  and  O1_7 
REMARK    2  A    between atoms: C5_9  and  C6_10 
REMARK    3  A    between atoms: N4_15  and  C7_16 
REMARK    4  A    between atoms: C7_16  and  C8_17 
REMARK    5  A    between atoms: C8_17  and  N5_18 
REMARK    6  A    between atoms: C8_17  and  C9_22 
REMARK    7  A    between atoms: C9_22  and  N6_23 
REMARK    8  A    between atoms: C11_28  and  C12_29 
REMARK    9  A    between atoms: C12_29  and  N9_30 
REMARK   10  A    between atoms: C12_29  and  O2_34 
REMARK   11  A    between atoms: C13_36  and  C14_37 
REMARK   12  A    between atoms: C14_37  and  O3_38 
REMARK   13  A    between atoms: C16_44  and  C17_45 
REMARK   14  A    between atoms: C17_45  and  O4_49 
REMARK   15  A    between atoms: C18_52  and  O5_53 
ROOT
HETATM    1  C6  UNL     1      38.502  -3.589  22.689  1.00  0.00     0.152 A 
HETATM    2  N2  UNL     1      38.935  -4.645  23.412  1.00  0.00    -0.268 N 
ATOM      3  H2  UNL     1      39.241  -4.622  24.385  1.00  0.00     0.190 HD
HETATM    4  N3  UNL     1      38.891  -5.678  22.660  1.00  0.00    -0.224 N 
ATOM      5  H3  UNL     1      39.156  -6.619  22.952  1.00  0.00     0.210 HD
HETATM    6  N4  UNL     1      38.458  -5.362  21.460  1.00  0.00    -0.216 N 
HETATM    7  N10 UNL     1      38.198  -4.083  21.456  1.00  0.00    -0.266 N 
ATOM      8  H10 UNL     1      37.831  -3.548  20.668  1.00  0.00     0.190 HD
ENDROOT
BRANCH   6   9
HETATM    9  C7  UNL     1      38.420  -6.376  20.422  1.00  0.00     0.209 C 
BRANCH   9  10
HETATM   10  C8  UNL     1      37.387  -5.987  19.306  1.00  0.00     0.243 C 
BRANCH  10  11
HETATM   11  N5  UNL     1      36.718  -7.344  19.156  1.00  0.00    -0.069 N 
ATOM     12  H53 UNL     1      37.193  -8.139  19.584  1.00  0.00     0.275 HD
ATOM     13  H52 UNL     1      35.857  -7.491  19.683  1.00  0.00     0.275 HD
ATOM     14  H51 UNL     1      36.640  -7.351  18.139  1.00  0.00     0.275 HD
ENDBRANCH  10  11
BRANCH  10  15
HETATM   15  C9  UNL     1      38.183  -5.872  18.073  1.00  0.00     0.107 C 
BRANCH  15  16
HETATM   16  N6  UNL     1      38.490  -4.673  17.377  1.00  0.00    -0.298 N 
HETATM   17  C10 UNL     1      37.642  -4.286  16.300  1.00  0.00     0.199 A 
HETATM   18  N7  UNL     1      36.636  -4.997  15.674  1.00  0.00    -0.063 NA
HETATM   19  N8  UNL     1      38.019  -3.042  15.937  1.00  0.00    -0.328 N 
HETATM   20  C11 UNL     1      39.032  -2.605  16.672  1.00  0.00     0.093 A 
ATOM     21  H8  UNL     1      37.580  -2.505  15.189  1.00  0.00     0.168 HD
HETATM   22  C13 UNL     1      39.312  -3.661  17.564  1.00  0.00     0.069 A 
BRANCH  20  23
HETATM   23  C12 UNL     1      39.811  -1.334  16.635  1.00  0.00     0.369 C 
BRANCH  23  24
HETATM   24  N9  UNL     1      38.920  -0.352  15.987  1.00  0.00    -0.047 N 
ATOM     25  H93 UNL     1      39.408   0.311  15.383  1.00  0.00     0.277 HD
ATOM     26  H92 UNL     1      38.322  -0.752  15.264  1.00  0.00     0.277 HD
ATOM     27  H91 UNL     1      38.405   0.089  16.750  1.00  0.00     0.277 HD
ENDBRANCH  23  24
BRANCH  23  28
HETATM   28  O2  UNL     1      40.928  -1.474  15.806  1.00  0.00    -0.365 OA
ATOM     29  H2  UNL     1      41.255  -2.365  15.841  1.00  0.00     0.212 HD
ENDBRANCH  23  28
ENDBRANCH  20  23
BRANCH  22  30
HETATM   30  C14 UNL     1      40.381  -3.520  18.580  1.00  0.00     0.224 C 
BRANCH  30  31
HETATM   31  O3  UNL     1      39.952  -2.756  19.672  1.00  0.00    -0.395 OA
ATOM     32  H3  UNL     1      39.128  -3.079  20.020  1.00  0.00     0.209 HD
ENDBRANCH  30  31
ENDBRANCH  22  30
ENDBRANCH  15  16
ENDBRANCH  10  15
ENDBRANCH   9  10
ENDBRANCH   6   9
BRANCH   1  33
HETATM   33  C5  UNL     1      38.444  -2.201  23.166  1.00  0.00     0.074 A 
HETATM   34  C4  UNL     1      37.249  -1.492  23.196  1.00  0.00     0.126 A 
HETATM   35  C3  UNL     1      37.236  -0.211  23.664  1.00  0.00     0.149 A 
HETATM   36  N1  UNL     1      36.329   0.738  23.881  1.00  0.00    -0.340 N 
HETATM   37  N13 UNL     1      38.391   0.405  24.120  1.00  0.00    -0.268 N 
HETATM   38  C2  UNL     1      36.701   1.811  24.388  1.00  0.00     0.059 A 
ATOM     39  H1  UNL     1      35.350   0.589  23.637  1.00  0.00     0.167 HD
HETATM   40  C1  UNL     1      35.972   3.079  24.779  1.00  0.00     0.072 C 
HETATM   41  C18 UNL     1      38.102   1.659  24.581  1.00  0.00     0.171 A 
HETATM   42  C16 UNL     1      39.582  -0.268  24.096  1.00  0.00     0.118 A 
HETATM   43  C15 UNL     1      39.563  -1.591  23.608  1.00  0.00     0.095 A 
HETATM   44  N11 UNL     1      40.766  -2.394  23.683  1.00  0.00    -0.099 NA
BRANCH  34  45
HETATM   45  O1  UNL     1      36.103  -2.074  22.754  1.00  0.00    -0.356 OA
ATOM     46  H1  UNL     1      35.511  -1.597  22.184  1.00  0.00     0.218 HD
ENDBRANCH  34  45
BRANCH  41  47
HETATM   47  O5  UNL     1      38.939   2.596  25.137  1.00  0.00    -0.344 OA
ATOM     48  H5  UNL     1      39.595   3.098  24.668  1.00  0.00     0.219 HD
ENDBRANCH  41  47
BRANCH  42  49
HETATM   49  C17 UNL     1      40.732   0.464  24.376  1.00  0.00     0.163 C 
HETATM   50  N12 UNL     1      41.733   1.169  24.946  1.00  0.00    -0.378 N 
ATOM     51 2H12 UNL     1      41.329   1.109  25.881  1.00  0.00     0.158 HD
ATOM     52 1H12 UNL     1      42.576   1.706  25.151  1.00  0.00     0.158 HD
BRANCH  49  53
HETATM   53  O4  UNL     1      41.343   0.555  22.960  1.00  0.00    -0.345 OA
ATOM     54  H4  UNL     1      41.094   1.442  22.729  1.00  0.00     0.219 HD
ENDBRANCH  49  53
ENDBRANCH  42  49
ENDBRANCH   1  33
TORSDOF 15
ENDMDL
MODEL 5
REMARK VINA RESULT: -6.935098146      1.645      1.992
REMARK  15 active torsions:
REMARK  status: ('A' for Active; 'I' for Inactive)
REMARK    1  A    between atoms: C4_6  and  O1_7 
REMARK    2  A    between atoms: C5_9  and  C6_10 
REMARK    3  A    between atoms: N4_15  and  C7_16 
REMARK    4  A    between atoms: C7_16  and  C8_17 
REMARK    5  A    between atoms: C8_17  and  N5_18 
REMARK    6  A    between atoms: C8_17  and  C9_22 
REMARK    7  A    between atoms: C9_22  and  N6_23 
REMARK    8  A    between atoms: C11_28  and  C12_29 
REMARK    9  A    between atoms: C12_29  and  N9_30 
REMARK   10  A    between atoms: C12_29  and  O2_34 
REMARK   11  A    between atoms: C13_36  and  C14_37 
REMARK   12  A    between atoms: C14_37  and  O3_38 
REMARK   13  A    between atoms: C16_44  and  C17_45 
REMARK   14  A    between atoms: C17_45  and  O4_49 
REMARK   15  A    between atoms: C18_52  and  O5_53 
ROOT
HETATM    1  C6  UNL     1      38.610  -2.779  22.687  1.00  0.00     0.152 A 
HETATM    2  N2  UNL     1      37.957  -3.875  23.134  1.00  0.00    -0.268 N 
ATOM      3  H2  UNL     1      37.263  -3.898  23.881  1.00  0.00     0.190 HD
HETATM    4  N3  UNL     1      38.364  -4.877  22.452  1.00  0.00    -0.224 N 
ATOM      5  H3  UNL     1      38.031  -5.834  22.573  1.00  0.00     0.210 HD
HETATM    6  N4  UNL     1      39.268  -4.506  21.574  1.00  0.00    -0.216 N 
HETATM    7  N10 UNL     1      39.428  -3.216  21.688  1.00  0.00    -0.266 N 
ATOM      8  H10 UNL     1      40.054  -2.637  21.129  1.00  0.00     0.190 HD
ENDROOT
BRANCH   6   9
HETATM    9  C7  UNL     1      39.929  -5.510  20.758  1.00  0.00     0.209 C 
BRANCH   9  10
HETATM   10  C8  UNL     1      39.092  -5.809  19.464  1.00  0.00     0.243 C 
BRANCH  10  11
HETATM   11  N5  UNL     1      40.058  -6.784  18.809  1.00  0.00    -0.069 N 
ATOM     12  H53 UNL     1      40.959  -6.914  19.269  1.00  0.00     0.275 HD
ATOM     13  H52 UNL     1      39.815  -7.773  18.861  1.00  0.00     0.275 HD
ATOM     14  H51 UNL     1      40.074  -6.363  17.880  1.00  0.00     0.275 HD
ENDBRANCH  10  11
BRANCH  10  15
HETATM   15  C9  UNL     1      39.228  -4.600  18.634  1.00  0.00     0.107 C 
BRANCH  15  16
HETATM   16  N6  UNL     1      38.512  -4.312  17.442  1.00  0.00    -0.298 N 
HETATM   17  C10 UNL     1      38.861  -3.136  16.718  1.00  0.00     0.199 A 
HETATM   18  N7  UNL     1      39.687  -2.091  17.084  1.00  0.00    -0.063 NA
HETATM   19  N8  UNL     1      38.188  -3.187  15.549  1.00  0.00    -0.328 N 
HETATM   20  C11 UNL     1      37.438  -4.276  15.465  1.00  0.00     0.093 A 
ATOM     21  H8  UNL     1      38.250  -2.476  14.821  1.00  0.00     0.168 HD
HETATM   22  C13 UNL     1      37.655  -4.959  16.680  1.00  0.00     0.069 A 
BRANCH  20  23
HETATM   23  C12 UNL     1      36.502  -4.759  14.409  1.00  0.00     0.369 C 
BRANCH  23  24
HETATM   24  N9  UNL     1      37.225  -5.843  13.716  1.00  0.00    -0.047 N 
ATOM     25  H93 UNL     1      37.103  -5.838  12.703  1.00  0.00     0.277 HD
ATOM     26  H92 UNL     1      38.238  -5.726  13.714  1.00  0.00     0.277 HD
ATOM     27  H91 UNL     1      36.911  -6.705  14.163  1.00  0.00     0.277 HD
ENDBRANCH  23  24
BRANCH  23  28
HETATM   28  O2  UNL     1      36.279  -3.755  13.463  1.00  0.00    -0.365 OA
ATOM     29  H2  UNL     1      35.346  -3.615  13.344  1.00  0.00     0.212 HD
ENDBRANCH  23  28
ENDBRANCH  20  23
BRANCH  22  30
HETATM   30  C14 UNL     1      36.997  -6.261  16.937  1.00  0.00     0.224 C 
BRANCH  30  31
HETATM   31  O3  UNL     1      37.795  -7.331  16.511  1.00  0.00    -0.395 OA
ATOM     32  H3  UNL     1      38.491  -7.513  17.132  1.00  0.00     0.209 HD
ENDBRANCH  30  31
ENDBRANCH  22  30
ENDBRANCH  15  16
ENDBRANCH  10  15
ENDBRANCH   9  10
ENDBRANCH   6   9
BRANCH   1  33
HETATM   33  C5  UNL     1      38.470  -1.426  23.238  1.00  0.00     0.074 A 
HETATM   34  C4  UNL     1      37.240  -0.779  23.275  1.00  0.00     0.126 A 
HETATM   35  C3  UNL     1      37.151   0.471  23.814  1.00  0.00     0.149 A 
HETATM   36  N1  UNL     1      36.192   1.360  24.059  1.00  0.00    -0.340 N 
HETATM   37  N13 UNL     1      38.262   1.116  24.334  1.00  0.00    -0.268 N 
HETATM   38  C2  UNL     1      36.497   2.420  24.635  1.00  0.00     0.059 A 
ATOM     39  H1  UNL     1      35.228   1.177  23.779  1.00  0.00     0.167 HD
HETATM   40  C1  UNL     1      35.694   3.626  25.075  1.00  0.00     0.072 C 
HETATM   41  C18 UNL     1      37.898   2.326  24.857  1.00  0.00     0.171 A 
HETATM   42  C16 UNL     1      39.486   0.505  24.306  1.00  0.00     0.118 A 
HETATM   43  C15 UNL     1      39.545  -0.788  23.745  1.00  0.00     0.095 A 
HETATM   44  N11 UNL     1      40.786  -1.533  23.808  1.00  0.00    -0.099 NA
BRANCH  34  45
HETATM   45  O1  UNL     1      36.136  -1.390  22.771  1.00  0.00    -0.356 OA
ATOM     46  H1  UNL     1      35.322  -1.392  23.260  1.00  0.00     0.218 HD
ENDBRANCH  34  45
BRANCH  41  47
HETATM   47  O5  UNL     1      38.673   3.270  25.486  1.00  0.00    -0.344 OA
ATOM     48  H5  UNL     1      39.620   3.250  25.557  1.00  0.00     0.219 HD
ENDBRANCH  41  47
BRANCH  42  49
HETATM   49  C17 UNL     1      40.590   1.276  24.657  1.00  0.00     0.163 C 
HETATM   50  N12 UNL     1      41.537   1.998  25.292  1.00  0.00    -0.378 N 
ATOM     51 2H12 UNL     1      41.109   1.873  26.210  1.00  0.00     0.158 HD
ATOM     52 1H12 UNL     1      42.347   2.563  25.550  1.00  0.00     0.158 HD
BRANCH  49  53
HETATM   53  O4  UNL     1      41.238   1.465  23.268  1.00  0.00    -0.345 OA
ATOM     54  H4  UNL     1      41.693   2.287  23.409  1.00  0.00     0.219 HD
ENDBRANCH  49  53
ENDBRANCH  42  49
ENDBRANCH   1  33
TORSDOF 15
ENDMDL
