MODEL 1
REMARK VINA RESULT: -7.095364758      0.000      0.000
REMARK  16 active torsions:
REMARK  status: ('A' for Active; 'I' for Inactive)
REMARK    1  A    between atoms: N1_1  and  C1_4 
REMARK    2  A    between atoms: C2_7  and  N3_8 
REMARK    3  A    between atoms: C4_14  and  C5_15 
REMARK    4  A    between atoms: C6_18  and  N7_19 
REMARK    5  A    between atoms: C8_23  and  N9_24 
REMARK    6  A    between atoms: N9_24  and  C9_26 
REMARK    7  A    between atoms: C9_26  and  O1_27 
REMARK    8  A    between atoms: C9_26  and  C10_29 
REMARK    9  A    between atoms: C10_29  and  O2_30 
REMARK   10  A    between atoms: C11_32  and  O3_33 
REMARK   11  A    between atoms: N10_35  and  N11_36 
REMARK   12  A    between atoms: C12_39  and  C13_40 
REMARK   13  A    between atoms: C13_40  and  O4_41 
REMARK   14  A    between atoms: N13_45  and  N14_46 
REMARK   15  A    between atoms: N15_48  and  N16_50 
REMARK       I    between atoms: N16_50  and  C14_52 
REMARK   16  A    between atoms: N18_54  and  O5_56 
ROOT
HETATM    1  N3  UNL     1      37.043   3.053  23.132  1.00  0.00    -0.122 N 
HETATM    2  C3  UNL     1      36.347   4.049  23.683  1.00  0.00     0.225 A 
HETATM    3  N4  UNL     1      35.734   3.624  24.807  1.00  0.00    -0.293 N 
ATOM      4  H4  UNL     1      35.139   4.169  25.431  1.00  0.00     0.187 HD
HETATM    5  N5  UNL     1      36.070   2.352  24.929  1.00  0.00    -0.282 N 
ATOM      6  H5  UNL     1      35.765   1.739  25.686  1.00  0.00     0.188 HD
HETATM    7  C4  UNL     1      36.870   1.980  23.915  1.00  0.00     0.174 A 
ENDROOT
BRANCH   7   8
HETATM    8  C5  UNL     1      37.451   0.659  23.692  1.00  0.00     0.123 A 
HETATM    9  N6  UNL     1      36.881  -0.450  23.185  1.00  0.00    -0.183 N 
HETATM   10  C6  UNL     1      37.769  -1.459  23.149  1.00  0.00     0.713 A 
ATOM     11  H6  UNL     1      35.912  -0.516  22.872  1.00  0.00     0.184 HD
HETATM   12  N10 UNL     1      38.937  -1.009  23.637  1.00  0.00    -0.092 N 
HETATM   13  C12 UNL     1      38.750   0.289  23.973  1.00  0.00     0.106 A 
BRANCH  10  14
HETATM   14  N7  UNL     1      37.490  -2.784  22.665  1.00  0.00    -0.117 N 
HETATM   15  C7  UNL     1      36.498  -3.601  23.061  1.00  0.00     0.210 A 
HETATM   16  N8  UNL     1      36.630  -4.719  22.342  1.00  0.00    -0.334 N 
HETATM   17  C8  UNL     1      37.659  -4.680  21.490  1.00  0.00     0.161 A 
ATOM     18  H8  UNL     1      36.007  -5.522  22.432  1.00  0.00     0.168 HD
HETATM   19  C11 UNL     1      38.207  -3.397  21.724  1.00  0.00     0.208 A 
BRANCH  17  20
HETATM   20  N9  UNL     1      38.197  -5.570  20.551  1.00  0.00    -0.318 N 
ATOM     21  H9  UNL     1      38.838  -6.276  20.914  1.00  0.00     0.169 HD
BRANCH  20  22
HETATM   22  C9  UNL     1      37.957  -5.603  19.188  1.00  0.00     0.163 C 
BRANCH  22  23
HETATM   23  O1  UNL     1      36.964  -6.442  18.863  1.00  0.00    -0.345 OA
ATOM     24  H1  UNL     1      36.105  -6.065  19.013  1.00  0.00     0.219 HD
ENDBRANCH  22  23
BRANCH  22  25
HETATM   25  C10 UNL     1      38.506  -4.958  18.028  1.00  0.00     0.187 C 
BRANCH  25  26
HETATM   26  O2  UNL     1      38.857  -3.666  18.178  1.00  0.00    -0.368 OA
ATOM     27  H2  UNL     1      39.071  -3.196  17.381  1.00  0.00     0.216 HD
ENDBRANCH  25  26
ENDBRANCH  22  25
ENDBRANCH  20  22
ENDBRANCH  17  20
BRANCH  19  28
HETATM   28  O3  UNL     1      39.304  -2.866  21.082  1.00  0.00    -0.343 OA
ATOM     29  H3  UNL     1      39.454  -1.942  20.918  1.00  0.00     0.219 HD
ENDBRANCH  19  28
ENDBRANCH  10  14
BRANCH  12  30
HETATM   30  N11 UNL     1      40.145  -1.693  23.797  1.00  0.00    -0.324 N 
ATOM     31 2H11 UNL     1      40.276  -2.681  23.579  1.00  0.00     0.178 HD
ATOM     32 1H11 UNL     1      41.042  -1.343  24.135  1.00  0.00     0.178 HD
ENDBRANCH  12  30
BRANCH  13  33
HETATM   33  C13 UNL     1      39.781   1.187  24.555  1.00  0.00     0.226 C 
BRANCH  33  34
HETATM   34  O4  UNL     1      40.755   1.478  23.604  1.00  0.00    -0.395 OA
ATOM     35  H4  UNL     1      40.896   2.416  23.557  1.00  0.00     0.209 HD
ENDBRANCH  33  34
ENDBRANCH  13  33
ENDBRANCH   7   8
BRANCH   1  36
HETATM   36  C2  UNL     1      37.827   3.074  21.950  1.00  0.00     0.722 A 
HETATM   37  N2  UNL     1      39.102   3.505  21.920  1.00  0.00    -0.017 N 
HETATM   38  C1  UNL     1      39.571   3.404  20.672  1.00  0.00     0.728 A 
ATOM     39  H2  UNL     1      39.626   3.853  22.722  1.00  0.00     0.203 HD
HETATM   40  N13 UNL     1      38.580   2.908  19.918  1.00  0.00     0.010 N 
HETATM   41  N12 UNL     1      37.545   2.719  20.710  1.00  0.00    -0.093 N 
ATOM     42  H12 UNL     1      36.646   2.347  20.406  1.00  0.00     0.208 HD
BRANCH  38  43
HETATM   43  N1  UNL     1      40.778   3.735  20.275  1.00  0.00    -0.231 N 
ATOM     44  H12 UNL     1      41.429   4.364  20.745  1.00  0.00     0.174 HD
ATOM     45  H11 UNL     1      41.241   3.403  19.428  1.00  0.00     0.174 HD
ENDBRANCH  38  43
BRANCH  40  46
HETATM   46  N14 UNL     1      38.683   2.654  18.534  1.00  0.00    -0.191 N 
HETATM   47  N15 UNL     1      39.370   1.645  18.158  1.00  0.00    -0.224 N 
ATOM     48  H15 UNL     1      39.825   1.049  18.850  1.00  0.00     0.210 HD
ATOM     49  H14 UNL     1      38.222   3.258  17.853  1.00  0.00     0.212 HD
BRANCH  47  50
HETATM   50  N16 UNL     1      39.497   1.359  16.797  1.00  0.00    -0.256 N 
HETATM   51  C14 UNL     1      39.363   0.040  16.288  1.00  0.00     0.228 C 
HETATM   52  N17 UNL     1      38.135  -0.327  15.672  1.00  0.00    -0.060 NA
HETATM   53  N18 UNL     1      40.337  -0.765  16.399  1.00  0.00    -0.240 N 
ATOM     54  H18 UNL     1      41.185  -0.428  16.855  1.00  0.00     0.197 HD
ATOM     55  H16 UNL     1      39.691   2.122  16.148  1.00  0.00     0.191 HD
BRANCH  53  56
HETATM   56  O5  UNL     1      40.324  -2.062  15.947  1.00  0.00    -0.287 OA
ATOM     57  H5  UNL     1      40.507  -2.820  16.490  1.00  0.00     0.244 HD
ENDBRANCH  53  56
ENDBRANCH  47  50
ENDBRANCH  40  46
ENDBRANCH   1  36
TORSDOF 16
ENDMDL
MODEL 2
REMARK VINA RESULT: -6.864787404      1.808      2.234
REMARK  16 active torsions:
REMARK  status: ('A' for Active; 'I' for Inactive)
REMARK    1  A    between atoms: N1_1  and  C1_4 
REMARK    2  A    between atoms: C2_7  and  N3_8 
REMARK    3  A    between atoms: C4_14  and  C5_15 
REMARK    4  A    between atoms: C6_18  and  N7_19 
REMARK    5  A    between atoms: C8_23  and  N9_24 
REMARK    6  A    between atoms: N9_24  and  C9_26 
REMARK    7  A    between atoms: C9_26  and  O1_27 
REMARK    8  A    between atoms: C9_26  and  C10_29 
REMARK    9  A    between atoms: C10_29  and  O2_30 
REMARK   10  A    between atoms: C11_32  and  O3_33 
REMARK   11  A    between atoms: N10_35  and  N11_36 
REMARK   12  A    between atoms: C12_39  and  C13_40 
REMARK   13  A    between atoms: C13_40  and  O4_41 
REMARK   14  A    between atoms: N13_45  and  N14_46 
REMARK   15  A    between atoms: N15_48  and  N16_50 
REMARK       I    between atoms: N16_50  and  C14_52 
REMARK   16  A    between atoms: N18_54  and  O5_56 
ROOT
HETATM    1  N3  UNL     1      36.936   3.368  23.607  1.00  0.00    -0.122 N 
HETATM    2  C3  UNL     1      35.962   4.098  24.151  1.00  0.00     0.225 A 
HETATM    3  N4  UNL     1      35.654   3.628  25.377  1.00  0.00    -0.293 N 
ATOM      4  H4  UNL     1      34.950   3.991  26.020  1.00  0.00     0.187 HD
HETATM    5  N5  UNL     1      36.459   2.599  25.569  1.00  0.00    -0.282 N 
ATOM      6  H5  UNL     1      36.476   2.022  26.410  1.00  0.00     0.188 HD
HETATM    7  C4  UNL     1      37.253   2.420  24.499  1.00  0.00     0.174 A 
ENDROOT
BRANCH   7   8
HETATM    8  C5  UNL     1      38.274   1.391  24.324  1.00  0.00     0.123 A 
HETATM    9  N6  UNL     1      38.147   0.131  23.865  1.00  0.00    -0.183 N 
HETATM   10  C6  UNL     1      39.340  -0.489  23.861  1.00  0.00     0.713 A 
ATOM     11  H6  UNL     1      37.270  -0.293  23.562  1.00  0.00     0.184 HD
HETATM   12  N10 UNL     1      40.263   0.372  24.322  1.00  0.00    -0.092 N 
HETATM   13  C12 UNL     1      39.617   1.527  24.608  1.00  0.00     0.106 A 
BRANCH  10  14
HETATM   14  N7  UNL     1      39.562  -1.843  23.432  1.00  0.00    -0.117 N 
HETATM   15  C7  UNL     1      40.609  -2.310  22.730  1.00  0.00     0.210 A 
HETATM   16  N8  UNL     1      40.390  -3.617  22.563  1.00  0.00    -0.334 N 
HETATM   17  C8  UNL     1      39.250  -4.036  23.122  1.00  0.00     0.161 A 
ATOM     18  H8  UNL     1      41.028  -4.235  22.061  1.00  0.00     0.168 HD
HETATM   19  C11 UNL     1      38.727  -2.849  23.685  1.00  0.00     0.208 A 
BRANCH  17  20
HETATM   20  N9  UNL     1      38.595  -5.271  23.220  1.00  0.00    -0.318 N 
ATOM     21  H9  UNL     1      38.820  -5.837  24.037  1.00  0.00     0.169 HD
BRANCH  20  22
HETATM   22  C9  UNL     1      37.678  -5.810  22.335  1.00  0.00     0.163 C 
BRANCH  22  23
HETATM   23  O1  UNL     1      36.532  -6.160  22.935  1.00  0.00    -0.345 OA
ATOM     24  H1  UNL     1      36.087  -6.869  22.484  1.00  0.00     0.219 HD
ENDBRANCH  22  23
BRANCH  22  25
HETATM   25  C10 UNL     1      37.642  -6.088  20.926  1.00  0.00     0.187 C 
BRANCH  25  26
HETATM   26  O2  UNL     1      37.119  -7.277  20.570  1.00  0.00    -0.368 OA
ATOM     27  H2  UNL     1      37.616  -7.779  19.934  1.00  0.00     0.216 HD
ENDBRANCH  25  26
ENDBRANCH  22  25
ENDBRANCH  20  22
ENDBRANCH  17  20
BRANCH  19  28
HETATM   28  O3  UNL     1      37.543  -2.749  24.384  1.00  0.00    -0.343 OA
ATOM     29  H3  UNL     1      36.699  -3.065  24.086  1.00  0.00     0.219 HD
ENDBRANCH  19  28
ENDBRANCH  10  14
BRANCH  12  30
HETATM   30  N11 UNL     1      41.635   0.178  24.499  1.00  0.00    -0.324 N 
ATOM     31 2H11 UNL     1      42.049  -0.680  24.862  1.00  0.00     0.178 HD
ATOM     32 1H11 UNL     1      42.405   0.820  24.305  1.00  0.00     0.178 HD
ENDBRANCH  12  30
BRANCH  13  33
HETATM   33  C13 UNL     1      40.249   2.759  25.146  1.00  0.00     0.226 C 
BRANCH  33  34
HETATM   34  O4  UNL     1      40.944   2.469  26.317  1.00  0.00    -0.395 OA
ATOM     35  H4  UNL     1      41.858   2.713  26.225  1.00  0.00     0.209 HD
ENDBRANCH  33  34
ENDBRANCH  13  33
ENDBRANCH   7   8
BRANCH   1  36
HETATM   36  C2  UNL     1      37.551   3.523  22.338  1.00  0.00     0.722 A 
HETATM   37  N2  UNL     1      38.572   4.369  22.113  1.00  0.00    -0.017 N 
HETATM   38  C1  UNL     1      38.933   4.292  20.828  1.00  0.00     0.728 A 
ATOM     39  H2  UNL     1      39.002   4.975  22.812  1.00  0.00     0.203 HD
HETATM   40  N13 UNL     1      38.130   3.390  20.248  1.00  0.00     0.010 N 
HETATM   41  N12 UNL     1      37.310   2.943  21.176  1.00  0.00    -0.093 N 
ATOM     42  H12 UNL     1      36.585   2.244  21.019  1.00  0.00     0.208 HD
BRANCH  38  43
HETATM   43  N1  UNL     1      39.896   4.978  20.257  1.00  0.00    -0.231 N 
ATOM     44  H12 UNL     1      40.113   5.965  20.394  1.00  0.00     0.174 HD
ATOM     45  H11 UNL     1      40.573   4.613  19.586  1.00  0.00     0.174 HD
ENDBRANCH  38  43
BRANCH  40  46
HETATM   46  N14 UNL     1      38.195   3.023  18.886  1.00  0.00    -0.191 N 
HETATM   47  N15 UNL     1      39.149   2.258  18.516  1.00  0.00    -0.224 N 
ATOM     48  H15 UNL     1      39.835   1.929  19.196  1.00  0.00     0.210 HD
ATOM     49  H14 UNL     1      37.502   3.360  18.218  1.00  0.00     0.212 HD
BRANCH  47  50
HETATM   50  N16 UNL     1      39.249   1.872  17.177  1.00  0.00    -0.256 N 
HETATM   51  C14 UNL     1      39.961   0.710  16.779  1.00  0.00     0.228 C 
HETATM   52  N17 UNL     1      39.222  -0.466  16.474  1.00  0.00    -0.060 NA
HETATM   53  N18 UNL     1      41.227   0.755  16.710  1.00  0.00    -0.240 N 
ATOM     54  H18 UNL     1      41.686   1.635  16.947  1.00  0.00     0.197 HD
ATOM     55  H16 UNL     1      38.798   2.444  16.463  1.00  0.00     0.191 HD
BRANCH  53  56
HETATM   56  O5  UNL     1      42.020  -0.303  16.339  1.00  0.00    -0.287 OA
ATOM     57  H5  UNL     1      42.529  -0.334  15.537  1.00  0.00     0.244 HD
ENDBRANCH  53  56
ENDBRANCH  47  50
ENDBRANCH  40  46
ENDBRANCH   1  36
TORSDOF 16
ENDMDL
MODEL 3
REMARK VINA RESULT: -6.618382621      3.172      9.421
REMARK  16 active torsions:
REMARK  status: ('A' for Active; 'I' for Inactive)
REMARK    1  A    between atoms: N1_1  and  C1_4 
REMARK    2  A    between atoms: C2_7  and  N3_8 
REMARK    3  A    between atoms: C4_14  and  C5_15 
REMARK    4  A    between atoms: C6_18  and  N7_19 
REMARK    5  A    between atoms: C8_23  and  N9_24 
REMARK    6  A    between atoms: N9_24  and  C9_26 
REMARK    7  A    between atoms: C9_26  and  O1_27 
REMARK    8  A    between atoms: C9_26  and  C10_29 
REMARK    9  A    between atoms: C10_29  and  O2_30 
REMARK   10  A    between atoms: C11_32  and  O3_33 
REMARK   11  A    between atoms: N10_35  and  N11_36 
REMARK   12  A    between atoms: C12_39  and  C13_40 
REMARK   13  A    between atoms: C13_40  and  O4_41 
REMARK   14  A    between atoms: N13_45  and  N14_46 
REMARK   15  A    between atoms: N15_48  and  N16_50 
REMARK       I    between atoms: N16_50  and  C14_52 
REMARK   16  A    between atoms: N18_54  and  O5_56 
ROOT
HETATM    1  N3  UNL     1      38.189  -7.910  17.257  1.00  0.00    -0.122 N 
HETATM    2  C3  UNL     1      38.091  -9.166  16.816  1.00  0.00     0.225 A 
HETATM    3  N4  UNL     1      38.057  -9.187  15.468  1.00  0.00    -0.293 N 
ATOM      4  H4  UNL     1      37.986 -10.006  14.864  1.00  0.00     0.187 HD
HETATM    5  N5  UNL     1      38.135  -7.922  15.096  1.00  0.00    -0.282 N 
ATOM      6  H5  UNL     1      38.135  -7.598  14.129  1.00  0.00     0.188 HD
HETATM    7  C4  UNL     1      38.217  -7.121  16.173  1.00  0.00     0.174 A 
ENDROOT
BRANCH   7   8
HETATM    8  C5  UNL     1      38.317  -5.665  16.181  1.00  0.00     0.123 A 
HETATM    9  N6  UNL     1      39.173  -4.872  16.854  1.00  0.00    -0.183 N 
HETATM   10  C6  UNL     1      38.927  -3.579  16.580  1.00  0.00     0.713 A 
ATOM     11  H6  UNL     1      39.905  -5.205  17.481  1.00  0.00     0.184 HD
HETATM   12  N10 UNL     1      37.898  -3.519  15.718  1.00  0.00    -0.092 N 
HETATM   13  C12 UNL     1      37.518  -4.795  15.469  1.00  0.00     0.106 A 
BRANCH  10  14
HETATM   14  N7  UNL     1      39.655  -2.468  17.130  1.00  0.00    -0.117 N 
HETATM   15  C7  UNL     1      40.129  -1.399  16.466  1.00  0.00     0.210 A 
HETATM   16  N8  UNL     1      40.733  -0.633  17.379  1.00  0.00    -0.334 N 
HETATM   17  C8  UNL     1      40.680  -1.144  18.613  1.00  0.00     0.161 A 
ATOM     18  H8  UNL     1      41.188   0.252  17.157  1.00  0.00     0.168 HD
HETATM   19  C11 UNL     1      39.966  -2.350  18.420  1.00  0.00     0.208 A 
BRANCH  17  20
HETATM   20  N9  UNL     1      41.148  -0.736  19.869  1.00  0.00    -0.318 N 
ATOM     21  H9  UNL     1      42.156  -0.603  19.954  1.00  0.00     0.169 HD
BRANCH  20  22
HETATM   22  C9  UNL     1      40.400  -0.494  21.008  1.00  0.00     0.163 C 
BRANCH  22  23
HETATM   23  O1  UNL     1      40.298  -1.575  21.794  1.00  0.00    -0.345 OA
ATOM     24  H1  UNL     1      40.943  -1.579  22.492  1.00  0.00     0.219 HD
ENDBRANCH  22  23
BRANCH  22  25
HETATM   25  C10 UNL     1      39.703   0.631  21.566  1.00  0.00     0.187 C 
BRANCH  25  26
HETATM   26  O2  UNL     1      38.518   0.364  22.150  1.00  0.00    -0.368 OA
ATOM     27  H2  UNL     1      38.553  -0.148  22.950  1.00  0.00     0.216 HD
ENDBRANCH  25  26
ENDBRANCH  22  25
ENDBRANCH  20  22
ENDBRANCH  17  20
BRANCH  19  28
HETATM   28  O3  UNL     1      39.644  -3.256  19.406  1.00  0.00    -0.343 OA
ATOM     29  H3  UNL     1      39.209  -3.049  20.225  1.00  0.00     0.219 HD
ENDBRANCH  19  28
ENDBRANCH  10  14
BRANCH  12  30
HETATM   30  N11 UNL     1      37.288  -2.397  15.152  1.00  0.00    -0.324 N 
ATOM     31 2H11 UNL     1      36.740  -1.717  15.679  1.00  0.00     0.178 HD
ATOM     32 1H11 UNL     1      37.290  -2.087  14.180  1.00  0.00     0.178 HD
ENDBRANCH  12  30
BRANCH  13  33
HETATM   33  C13 UNL     1      36.412  -5.206  14.567  1.00  0.00     0.226 C 
BRANCH  33  34
HETATM   34  O4  UNL     1      36.478  -4.494  13.372  1.00  0.00    -0.395 OA
ATOM     35  H4  UNL     1      35.958  -4.925  12.704  1.00  0.00     0.209 HD
ENDBRANCH  33  34
ENDBRANCH  13  33
ENDBRANCH   7   8
BRANCH   1  36
HETATM   36  C2  UNL     1      38.253  -7.447  18.596  1.00  0.00     0.722 A 
HETATM   37  N2  UNL     1      39.345  -7.587  19.371  1.00  0.00    -0.017 N 
HETATM   38  C1  UNL     1      39.101  -7.055  20.573  1.00  0.00     0.728 A 
ATOM     39  H2  UNL     1      40.219  -8.029  19.086  1.00  0.00     0.203 HD
HETATM   40  N13 UNL     1      37.848  -6.582  20.547  1.00  0.00     0.010 N 
HETATM   41  N12 UNL     1      37.362  -6.830  19.349  1.00  0.00    -0.093 N 
ATOM     42  H12 UNL     1      36.422  -6.579  19.043  1.00  0.00     0.208 HD
BRANCH  38  43
HETATM   43  N1  UNL     1      39.942  -7.014  21.581  1.00  0.00    -0.231 N 
ATOM     44  H12 UNL     1      40.692  -7.675  21.784  1.00  0.00     0.174 HD
ATOM     45  H11 UNL     1      39.964  -6.303  22.312  1.00  0.00     0.174 HD
ENDBRANCH  38  43
BRANCH  40  46
HETATM   46  N14 UNL     1      37.214  -5.942  21.635  1.00  0.00    -0.191 N 
HETATM   47  N15 UNL     1      37.195  -4.665  21.651  1.00  0.00    -0.224 N 
ATOM     48  H15 UNL     1      37.629  -4.137  20.893  1.00  0.00     0.210 HD
ATOM     49  H14 UNL     1      36.785  -6.484  22.385  1.00  0.00     0.212 HD
BRANCH  47  50
HETATM   50  N16 UNL     1      36.579  -3.994  22.710  1.00  0.00    -0.256 N 
HETATM   51  C14 UNL     1      36.972  -2.688  23.105  1.00  0.00     0.228 C 
HETATM   52  N17 UNL     1      36.178  -1.585  22.688  1.00  0.00    -0.060 NA
HETATM   53  N18 UNL     1      38.015  -2.547  23.814  1.00  0.00    -0.240 N 
ATOM     54  H18 UNL     1      38.533  -3.387  24.072  1.00  0.00     0.197 HD
ATOM     55  H16 UNL     1      35.822  -4.456  23.214  1.00  0.00     0.191 HD
BRANCH  53  56
HETATM   56  O5  UNL     1      38.493  -1.337  24.255  1.00  0.00    -0.287 OA
ATOM     57  H5  UNL     1      39.394  -1.179  24.513  1.00  0.00     0.244 HD
ENDBRANCH  53  56
ENDBRANCH  47  50
ENDBRANCH  40  46
ENDBRANCH   1  36
TORSDOF 16
ENDMDL
MODEL 4
REMARK VINA RESULT: -6.574259507      3.285      9.318
REMARK  16 active torsions:
REMARK  status: ('A' for Active; 'I' for Inactive)
REMARK    1  A    between atoms: N1_1  and  C1_4 
REMARK    2  A    between atoms: C2_7  and  N3_8 
REMARK    3  A    between atoms: C4_14  and  C5_15 
REMARK    4  A    between atoms: C6_18  and  N7_19 
REMARK    5  A    between atoms: C8_23  and  N9_24 
REMARK    6  A    between atoms: N9_24  and  C9_26 
REMARK    7  A    between atoms: C9_26  and  O1_27 
REMARK    8  A    between atoms: C9_26  and  C10_29 
REMARK    9  A    between atoms: C10_29  and  O2_30 
REMARK   10  A    between atoms: C11_32  and  O3_33 
REMARK   11  A    between atoms: N10_35  and  N11_36 
REMARK   12  A    between atoms: C12_39  and  C13_40 
REMARK   13  A    between atoms: C13_40  and  O4_41 
REMARK   14  A    between atoms: N13_45  and  N14_46 
REMARK   15  A    between atoms: N15_48  and  N16_50 
REMARK       I    between atoms: N16_50  and  C14_52 
REMARK   16  A    between atoms: N18_54  and  O5_56 
ROOT
HETATM    1  N3  UNL     1      38.218  -6.900  15.962  1.00  0.00    -0.122 N 
HETATM    2  C3  UNL     1      38.041  -7.972  15.188  1.00  0.00     0.225 A 
HETATM    3  N4  UNL     1      38.060  -7.618  13.887  1.00  0.00    -0.293 N 
ATOM      4  H4  UNL     1      37.950  -8.230  13.078  1.00  0.00     0.187 HD
HETATM    5  N5  UNL     1      38.252  -6.311  13.883  1.00  0.00    -0.282 N 
ATOM      6  H5  UNL     1      38.316  -5.735  13.043  1.00  0.00     0.188 HD
HETATM    7  C4  UNL     1      38.352  -5.849  15.141  1.00  0.00     0.174 A 
ENDROOT
BRANCH   7   8
HETATM    8  C5  UNL     1      38.565  -4.465  15.555  1.00  0.00     0.123 A 
HETATM    9  N6  UNL     1      39.480  -3.960  16.405  1.00  0.00    -0.183 N 
HETATM   10  C6  UNL     1      39.335  -2.627  16.510  1.00  0.00     0.713 A 
ATOM     11  H6  UNL     1      40.182  -4.510  16.899  1.00  0.00     0.184 HD
HETATM   12  N10 UNL     1      38.315  -2.251  15.720  1.00  0.00    -0.092 N 
HETATM   13  C12 UNL     1      37.838  -3.372  15.132  1.00  0.00     0.106 A 
BRANCH  10  14
HETATM   14  N7  UNL     1      40.147  -1.773  17.334  1.00  0.00    -0.117 N 
HETATM   15  C7  UNL     1      40.853  -0.699  16.942  1.00  0.00     0.210 A 
HETATM   16  N8  UNL     1      41.447  -0.224  18.040  1.00  0.00    -0.334 N 
HETATM   17  C8  UNL     1      41.167  -0.932  19.138  1.00  0.00     0.161 A 
ATOM     18  H8  UNL     1      42.053   0.597  18.041  1.00  0.00     0.168 HD
HETATM   19  C11 UNL     1      40.311  -1.945  18.645  1.00  0.00     0.208 A 
BRANCH  17  20
HETATM   20  N9  UNL     1      41.532  -0.844  20.489  1.00  0.00    -0.318 N 
ATOM     21  H9  UNL     1      42.532  -0.820  20.685  1.00  0.00     0.169 HD
BRANCH  20  22
HETATM   22  C9  UNL     1      40.690  -0.786  21.586  1.00  0.00     0.163 C 
BRANCH  22  23
HETATM   23  O1  UNL     1      40.624  -1.951  22.244  1.00  0.00    -0.345 OA
ATOM     24  H1  UNL     1      39.970  -1.943  22.933  1.00  0.00     0.219 HD
ENDBRANCH  22  23
BRANCH  22  25
HETATM   25  C10 UNL     1      39.866   0.217  22.203  1.00  0.00     0.187 C 
BRANCH  25  26
HETATM   26  O2  UNL     1      38.570  -0.107  22.377  1.00  0.00    -0.368 OA
ATOM     27  H2  UNL     1      38.242  -0.053  23.268  1.00  0.00     0.216 HD
ENDBRANCH  25  26
ENDBRANCH  22  25
ENDBRANCH  20  22
ENDBRANCH  17  20
BRANCH  19  28
HETATM   28  O3  UNL     1      39.738  -2.946  19.398  1.00  0.00    -0.343 OA
ATOM     29  H3  UNL     1      39.945  -3.141  20.304  1.00  0.00     0.219 HD
ENDBRANCH  19  28
ENDBRANCH  10  14
BRANCH  12  30
HETATM   30  N11 UNL     1      37.796  -0.971  15.504  1.00  0.00    -0.324 N 
ATOM     31 2H11 UNL     1      36.800  -0.765  15.421  1.00  0.00     0.178 HD
ATOM     32 1H11 UNL     1      38.292  -0.086  15.401  1.00  0.00     0.178 HD
ENDBRANCH  12  30
BRANCH  13  33
HETATM   33  C13 UNL     1      36.704  -3.428  14.173  1.00  0.00     0.226 C 
BRANCH  33  34
HETATM   34  O4  UNL     1      36.857  -2.453  13.192  1.00  0.00    -0.395 OA
ATOM     35  H4  UNL     1      36.025  -2.284  12.765  1.00  0.00     0.209 HD
ENDBRANCH  33  34
ENDBRANCH  13  33
ENDBRANCH   7   8
BRANCH   1  36
HETATM   36  C2  UNL     1      38.264  -6.831  17.378  1.00  0.00     0.722 A 
HETATM   37  N2  UNL     1      39.301  -7.289  18.103  1.00  0.00    -0.017 N 
HETATM   38  C1  UNL     1      39.053  -7.085  19.401  1.00  0.00     0.728 A 
ATOM     39  H2  UNL     1      40.142  -7.722  17.723  1.00  0.00     0.203 HD
HETATM   40  N13 UNL     1      37.853  -6.496  19.485  1.00  0.00     0.010 N 
HETATM   41  N12 UNL     1      37.401  -6.355  18.256  1.00  0.00    -0.093 N 
ATOM     42  H12 UNL     1      36.504  -5.935  18.015  1.00  0.00     0.208 HD
BRANCH  38  43
HETATM   43  N1  UNL     1      39.848  -7.408  20.396  1.00  0.00    -0.231 N 
ATOM     44  H12 UNL     1      40.836  -7.655  20.338  1.00  0.00     0.174 HD
ATOM     45  H11 UNL     1      39.584  -7.456  21.380  1.00  0.00     0.174 HD
ENDBRANCH  38  43
BRANCH  40  46
HETATM   46  N14 UNL     1      37.232  -6.118  20.695  1.00  0.00    -0.191 N 
HETATM   47  N15 UNL     1      37.297  -4.892  21.045  1.00  0.00    -0.224 N 
ATOM     48  H15 UNL     1      37.786  -4.217  20.455  1.00  0.00     0.210 HD
ATOM     49  H14 UNL     1      36.747  -6.805  21.273  1.00  0.00     0.212 HD
BRANCH  47  50
HETATM   50  N16 UNL     1      36.697  -4.476  22.236  1.00  0.00    -0.256 N 
HETATM   51  C14 UNL     1      37.068  -3.270  22.886  1.00  0.00     0.228 C 
HETATM   52  N17 UNL     1      36.231  -2.131  22.729  1.00  0.00    -0.060 NA
HETATM   53  N18 UNL     1      38.129  -3.245  23.582  1.00  0.00    -0.240 N 
ATOM     54  H18 UNL     1      38.677  -4.103  23.645  1.00  0.00     0.197 HD
ATOM     55  H16 UNL     1      35.970  -5.058  22.651  1.00  0.00     0.191 HD
BRANCH  53  56
HETATM   56  O5  UNL     1      38.587  -2.139  24.254  1.00  0.00    -0.287 OA
ATOM     57  H5  UNL     1      38.091  -1.336  24.364  1.00  0.00     0.244 HD
ENDBRANCH  53  56
ENDBRANCH  47  50
ENDBRANCH  40  46
ENDBRANCH   1  36
TORSDOF 16
ENDMDL
MODEL 5
REMARK VINA RESULT: -6.506684491      3.555      8.995
REMARK  16 active torsions:
REMARK  status: ('A' for Active; 'I' for Inactive)
REMARK    1  A    between atoms: N1_1  and  C1_4 
REMARK    2  A    between atoms: C2_7  and  N3_8 
REMARK    3  A    between atoms: C4_14  and  C5_15 
REMARK    4  A    between atoms: C6_18  and  N7_19 
REMARK    5  A    between atoms: C8_23  and  N9_24 
REMARK    6  A    between atoms: N9_24  and  C9_26 
REMARK    7  A    between atoms: C9_26  and  O1_27 
REMARK    8  A    between atoms: C9_26  and  C10_29 
REMARK    9  A    between atoms: C10_29  and  O2_30 
REMARK   10  A    between atoms: C11_32  and  O3_33 
REMARK   11  A    between atoms: N10_35  and  N11_36 
REMARK   12  A    between atoms: C12_39  and  C13_40 
REMARK   13  A    between atoms: C13_40  and  O4_41 
REMARK   14  A    between atoms: N13_45  and  N14_46 
REMARK   15  A    between atoms: N15_48  and  N16_50 
REMARK       I    between atoms: N16_50  and  C14_52 
REMARK   16  A    between atoms: N18_54  and  O5_56 
ROOT
HETATM    1  N3  UNL     1      37.066  -4.848  15.305  1.00  0.00    -0.122 N 
HETATM    2  C3  UNL     1      36.229  -4.821  14.266  1.00  0.00     0.225 A 
HETATM    3  N4  UNL     1      36.532  -3.793  13.448  1.00  0.00    -0.293 N 
ATOM      4  H4  UNL     1      36.061  -3.533  12.582  1.00  0.00     0.187 HD
HETATM    5  N5  UNL     1      37.568  -3.195  14.007  1.00  0.00    -0.282 N 
ATOM      6  H5  UNL     1      38.040  -2.373  13.629  1.00  0.00     0.188 HD
HETATM    7  C4  UNL     1      37.913  -3.822  15.145  1.00  0.00     0.174 A 
ENDROOT
BRANCH   7   8
HETATM    8  C5  UNL     1      39.003  -3.468  16.049  1.00  0.00     0.123 A 
HETATM    9  N6  UNL     1      38.966  -2.755  17.192  1.00  0.00    -0.183 N 
HETATM   10  C6  UNL     1      40.198  -2.658  17.723  1.00  0.00     0.713 A 
ATOM     11  H6  UNL     1      38.124  -2.347  17.597  1.00  0.00     0.184 HD
HETATM   12  N10 UNL     1      41.055  -3.314  16.922  1.00  0.00    -0.092 N 
HETATM   13  C12 UNL     1      40.329  -3.813  15.893  1.00  0.00     0.106 A 
BRANCH  10  14
HETATM   14  N7  UNL     1      40.517  -1.965  18.942  1.00  0.00    -0.117 N 
HETATM   15  C7  UNL     1      41.291  -0.873  19.076  1.00  0.00     0.210 A 
HETATM   16  N8  UNL     1      41.301  -0.585  20.380  1.00  0.00    -0.334 N 
HETATM   17  C8  UNL     1      40.572  -1.432  21.113  1.00  0.00     0.161 A 
ATOM     18  H8  UNL     1      41.814   0.202  20.778  1.00  0.00     0.168 HD
HETATM   19  C11 UNL     1      40.068  -2.329  20.142  1.00  0.00     0.208 A 
BRANCH  17  20
HETATM   20  N9  UNL     1      40.276  -1.553  22.477  1.00  0.00    -0.318 N 
ATOM     21  H9  UNL     1      41.038  -1.866  23.078  1.00  0.00     0.169 HD
BRANCH  20  22
HETATM   22  C9  UNL     1      39.068  -1.296  23.103  1.00  0.00     0.163 C 
BRANCH  22  23
HETATM   23  O1  UNL     1      38.936  -1.966  24.256  1.00  0.00    -0.345 OA
ATOM     24  H1  UNL     1      38.606  -1.418  24.959  1.00  0.00     0.219 HD
ENDBRANCH  22  23
BRANCH  22  25
HETATM   25  C10 UNL     1      37.915  -0.485  22.828  1.00  0.00     0.187 C 
BRANCH  25  26
HETATM   26  O2  UNL     1      36.785  -1.149  22.514  1.00  0.00    -0.368 OA
ATOM     27  H2  UNL     1      36.314  -0.835  21.751  1.00  0.00     0.216 HD
ENDBRANCH  25  26
ENDBRANCH  22  25
ENDBRANCH  20  22
ENDBRANCH  17  20
BRANCH  19  28
HETATM   28  O3  UNL     1      39.246  -3.405  20.395  1.00  0.00    -0.343 OA
ATOM     29  H3  UNL     1      38.477  -3.643  19.890  1.00  0.00     0.219 HD
ENDBRANCH  19  28
ENDBRANCH  10  14
BRANCH  12  30
HETATM   30  N11 UNL     1      42.434  -3.485  17.062  1.00  0.00    -0.324 N 
ATOM     31 2H11 UNL     1      43.129  -2.812  16.739  1.00  0.00     0.178 HD
ATOM     32 1H11 UNL     1      42.946  -4.260  17.485  1.00  0.00     0.178 HD
ENDBRANCH  12  30
BRANCH  13  33
HETATM   33  C13 UNL     1      40.870  -4.613  14.764  1.00  0.00     0.226 C 
BRANCH  33  34
HETATM   34  O4  UNL     1      41.784  -3.857  14.035  1.00  0.00    -0.395 OA
ATOM     35  H4  UNL     1      42.449  -4.421  13.659  1.00  0.00     0.209 HD
ENDBRANCH  33  34
ENDBRANCH  13  33
ENDBRANCH   7   8
BRANCH   1  36
HETATM   36  C2  UNL     1      37.096  -5.761  16.390  1.00  0.00     0.722 A 
HETATM   37  N2  UNL     1      36.948  -7.090  16.239  1.00  0.00    -0.017 N 
HETATM   38  C1  UNL     1      37.022  -7.680  17.436  1.00  0.00     0.728 A 
ATOM     39  H2  UNL     1      36.802  -7.570  15.351  1.00  0.00     0.203 HD
HETATM   40  N13 UNL     1      37.218  -6.711  18.341  1.00  0.00     0.010 N 
HETATM   41  N12 UNL     1      37.258  -5.569  17.687  1.00  0.00    -0.093 N 
ATOM     42  H12 UNL     1      37.396  -4.657  18.122  1.00  0.00     0.208 HD
BRANCH  38  43
HETATM   43  N1  UNL     1      36.920  -8.969  17.666  1.00  0.00    -0.231 N 
ATOM     44  H12 UNL     1      36.235  -9.612  17.270  1.00  0.00     0.174 HD
ATOM     45  H11 UNL     1      37.522  -9.515  18.283  1.00  0.00     0.174 HD
ENDBRANCH  38  43
BRANCH  40  46
HETATM   46  N14 UNL     1      37.349  -6.930  19.729  1.00  0.00    -0.191 N 
HETATM   47  N15 UNL     1      37.751  -5.959  20.455  1.00  0.00    -0.224 N 
ATOM     48  H15 UNL     1      37.967  -5.057  20.029  1.00  0.00     0.210 HD
ATOM     49  H14 UNL     1      37.128  -7.838  20.140  1.00  0.00     0.212 HD
BRANCH  47  50
HETATM   50  N16 UNL     1      37.894  -6.135  21.833  1.00  0.00    -0.256 N 
HETATM   51  C14 UNL     1      37.048  -5.484  22.768  1.00  0.00     0.228 C 
HETATM   52  N17 UNL     1      35.988  -6.227  23.355  1.00  0.00    -0.060 NA
HETATM   53  N18 UNL     1      37.262  -4.264  23.048  1.00  0.00    -0.240 N 
ATOM     54  H18 UNL     1      38.041  -3.798  22.584  1.00  0.00     0.197 HD
ATOM     55  H16 UNL     1      38.630  -6.751  22.178  1.00  0.00     0.191 HD
BRANCH  53  56
HETATM   56  O5  UNL     1      36.511  -3.531  23.934  1.00  0.00    -0.287 OA
ATOM     57  H5  UNL     1      35.760  -3.002  23.690  1.00  0.00     0.244 HD
ENDBRANCH  53  56
ENDBRANCH  47  50
ENDBRANCH  40  46
ENDBRANCH   1  36
TORSDOF 16
ENDMDL
