MODEL 1
REMARK VINA RESULT: -7.111151881      0.000      0.000
REMARK  15 active torsions:
REMARK  status: ('A' for Active; 'I' for Inactive)
REMARK    1  A    between atoms: N1_1  and  C1_4 
REMARK    2  A    between atoms: C2_7  and  O1_8 
REMARK    3  A    between atoms: O1_8  and  C3_9 
REMARK    4  A    between atoms: C3_9  and  O2_10 
REMARK    5  A    between atoms: C3_9  and  C4_12 
REMARK    6  A    between atoms: C3_9  and  C14_39 
REMARK    7  A    between atoms: C6_14  and  O3_15 
REMARK    8  A    between atoms: C7_17  and  O4_18 
REMARK    9  A    between atoms: C8_20  and  C9_21 
REMARK   10  A    between atoms: C10_26  and  C11_27 
REMARK   11  A    between atoms: C11_27  and  C12_28 
REMARK   12  A    between atoms: C12_28  and  N5_29 
REMARK   13  A    between atoms: C12_28  and  C13_33 
REMARK   14  A    between atoms: C15_49  and  N12_50 
REMARK   15  A    between atoms: N13_53  and  N14_54 
ROOT
HETATM    1  C3  UNL     1      41.108  -3.390  24.366  1.00  0.00     0.277 C 
ENDROOT
BRANCH   1   2
HETATM    2  O1  UNL     1      40.799  -4.321  25.382  1.00  0.00    -0.269 OA
BRANCH   2   3
HETATM    3  C2  UNL     1      41.388  -4.335  26.623  1.00  0.00     0.256 A 
HETATM    4  N2  UNL     1      40.727  -4.274  27.790  1.00  0.00    -0.152 N 
HETATM    5  C1  UNL     1      41.363  -4.292  28.968  1.00  0.00     0.715 A 
ATOM      6  H2  UNL     1      39.708  -4.213  27.779  1.00  0.00     0.188 HD
HETATM    7  N13 UNL     1      42.703  -4.373  29.011  1.00  0.00     0.083 N 
HETATM    8  C15 UNL     1      43.377  -4.433  27.862  1.00  0.00     0.715 A 
HETATM    9  N11 UNL     1      42.729  -4.415  26.685  1.00  0.00    -0.152 N 
ATOM     10  H11 UNL     1      43.266  -4.464  25.819  1.00  0.00     0.188 HD
BRANCH   5  11
HETATM   11  N1  UNL     1      40.700  -4.231  30.089  1.00  0.00    -0.232 N 
ATOM     12  H12 UNL     1      40.097  -5.013  30.348  1.00  0.00     0.174 HD
ATOM     13  H11 UNL     1      40.777  -3.419  30.701  1.00  0.00     0.174 HD
ENDBRANCH   5  11
BRANCH   7  14
HETATM   14  N14 UNL     1      43.327  -4.389  30.256  1.00  0.00    -0.309 N 
ATOM     15 2H14 UNL     1      43.276  -5.186  30.891  1.00  0.00     0.178 HD
ATOM     16 1H14 UNL     1      43.858  -3.567  30.545  1.00  0.00     0.178 HD
ENDBRANCH   7  14
BRANCH   8  17
HETATM   17  N12 UNL     1      44.673  -4.510  27.927  1.00  0.00    -0.232 N 
ATOM     18 2H12 UNL     1      45.215  -3.854  27.366  1.00  0.00     0.174 HD
ATOM     19 1H12 UNL     1      45.139  -5.200  28.515  1.00  0.00     0.174 HD
ENDBRANCH   8  17
ENDBRANCH   2   3
ENDBRANCH   1   2
BRANCH   1  20
HETATM   20  O2  UNL     1      42.036  -2.439  24.773  1.00  0.00    -0.354 OA
ATOM     21  H2  UNL     1      41.645  -1.734  25.275  1.00  0.00     0.214 HD
ENDBRANCH   1  20
BRANCH   1  22
HETATM   22  C4  UNL     1      39.826  -2.760  23.956  1.00  0.00     0.084 A 
HETATM   23  C5  UNL     1      38.713  -3.570  23.834  1.00  0.00     0.070 A 
HETATM   24  C6  UNL     1      37.480  -3.081  23.458  1.00  0.00     0.103 A 
HETATM   25  C7  UNL     1      37.368  -1.738  23.198  1.00  0.00     0.130 A 
HETATM   26  C8  UNL     1      38.495  -0.937  23.326  1.00  0.00     0.122 A 
HETATM   27  N6  UNL     1      39.667  -1.464  23.693  1.00  0.00    -0.349 N 
ATOM     28  H6  UNL     1      40.475  -0.846  23.776  1.00  0.00     0.166 HD
BRANCH  24  29
HETATM   29  O3  UNL     1      36.365  -3.882  23.333  1.00  0.00    -0.358 OA
ATOM     30  H3  UNL     1      36.225  -4.457  22.590  1.00  0.00     0.217 HD
ENDBRANCH  24  29
BRANCH  25  31
HETATM   31  O4  UNL     1      36.185  -1.117  22.811  1.00  0.00    -0.356 OA
ATOM     32  H4  UNL     1      35.809  -0.366  23.256  1.00  0.00     0.218 HD
ENDBRANCH  25  31
BRANCH  26  33
HETATM   33  C9  UNL     1      38.382   0.513  23.043  1.00  0.00     0.194 A 
HETATM   34  N3  UNL     1      39.177   1.177  22.189  1.00  0.00    -0.276 N 
HETATM   35  N4  UNL     1      38.784   2.453  22.193  1.00  0.00    -0.281 N 
ATOM     36  H3  UNL     1      39.939   0.780  21.640  1.00  0.00     0.189 HD
HETATM   37  C10 UNL     1      37.738   2.571  23.060  1.00  0.00     0.143 A 
ATOM     38  H4  UNL     1      39.195   3.207  21.643  1.00  0.00     0.189 HD
HETATM   39  O7  UNL     1      37.550   1.368  23.534  1.00  0.00    -0.276 OA
BRANCH  37  40
HETATM   40  C11 UNL     1      37.004   3.827  23.361  1.00  0.00     0.130 C 
BRANCH  40  41
HETATM   41  C12 UNL     1      37.330   4.274  24.769  1.00  0.00     0.290 C 
BRANCH  41  42
HETATM   42  N5  UNL     1      38.333   3.360  25.288  1.00  0.00    -0.065 N 
ATOM     43  H53 UNL     1      39.020   3.081  24.587  1.00  0.00     0.275 HD
ATOM     44  H52 UNL     1      38.982   3.805  25.937  1.00  0.00     0.275 HD
ATOM     45  H51 UNL     1      37.836   2.569  25.698  1.00  0.00     0.275 HD
ENDBRANCH  41  42
BRANCH  41  46
HETATM   46  C13 UNL     1      36.084   4.187  25.569  1.00  0.00     0.204 C 
HETATM   47  O5  UNL     1      35.681   5.224  26.151  1.00  0.00    -0.646 OA
HETATM   48  O6  UNL     1      35.384   3.010  25.677  1.00  0.00    -0.646 OA
ENDBRANCH  41  46
ENDBRANCH  40  41
ENDBRANCH  37  40
ENDBRANCH  26  33
ENDBRANCH   1  22
BRANCH   1  49
HETATM   49  C14 UNL     1      41.716  -4.086  23.177  1.00  0.00     0.181 A 
HETATM   50  N7  UNL     1      41.915  -5.410  23.046  1.00  0.00    -0.266 N 
HETATM   51  N8  UNL     1      42.470  -5.688  21.879  1.00  0.00    -0.005 NA
ATOM     52  H7  UNL     1      41.671  -6.105  23.752  1.00  0.00     0.185 HD
HETATM   53  N9  UNL     1      42.624  -4.528  21.264  1.00  0.00    -0.225 N 
HETATM   54  N10 UNL     1      42.174  -3.554  22.033  1.00  0.00    -0.270 N 
ATOM     55  H9  UNL     1      43.029  -4.404  20.337  1.00  0.00     0.205 HD
ATOM     56  H10 UNL     1      42.173  -2.562  21.798  1.00  0.00     0.189 HD
ENDBRANCH   1  49
TORSDOF 15
ENDMDL
MODEL 2
REMARK VINA RESULT: -7.106927099      0.148      1.322
REMARK  15 active torsions:
REMARK  status: ('A' for Active; 'I' for Inactive)
REMARK    1  A    between atoms: N1_1  and  C1_4 
REMARK    2  A    between atoms: C2_7  and  O1_8 
REMARK    3  A    between atoms: O1_8  and  C3_9 
REMARK    4  A    between atoms: C3_9  and  O2_10 
REMARK    5  A    between atoms: C3_9  and  C4_12 
REMARK    6  A    between atoms: C3_9  and  C14_39 
REMARK    7  A    between atoms: C6_14  and  O3_15 
REMARK    8  A    between atoms: C7_17  and  O4_18 
REMARK    9  A    between atoms: C8_20  and  C9_21 
REMARK   10  A    between atoms: C10_26  and  C11_27 
REMARK   11  A    between atoms: C11_27  and  C12_28 
REMARK   12  A    between atoms: C12_28  and  N5_29 
REMARK   13  A    between atoms: C12_28  and  C13_33 
REMARK   14  A    between atoms: C15_49  and  N12_50 
REMARK   15  A    between atoms: N13_53  and  N14_54 
ROOT
HETATM    1  C3  UNL     1      41.069  -3.489  24.334  1.00  0.00     0.277 C 
ENDROOT
BRANCH   1   2
HETATM    2  O1  UNL     1      40.774  -4.354  25.411  1.00  0.00    -0.269 OA
BRANCH   2   3
HETATM    3  C2  UNL     1      41.456  -4.363  26.603  1.00  0.00     0.256 A 
HETATM    4  N2  UNL     1      42.793  -4.405  26.725  1.00  0.00    -0.152 N 
HETATM    5  C1  UNL     1      43.396  -4.411  27.920  1.00  0.00     0.715 A 
ATOM      6  H2  UNL     1      43.366  -4.433  25.881  1.00  0.00     0.188 HD
HETATM    7  N13 UNL     1      42.666  -4.373  29.046  1.00  0.00     0.083 N 
HETATM    8  C15 UNL     1      41.337  -4.331  28.945  1.00  0.00     0.715 A 
HETATM    9  N11 UNL     1      40.740  -4.326  27.741  1.00  0.00    -0.152 N 
ATOM     10  H11 UNL     1      39.722  -4.292  27.689  1.00  0.00     0.188 HD
BRANCH   5  11
HETATM   11  N1  UNL     1      44.696  -4.453  28.014  1.00  0.00    -0.232 N 
ATOM     12  H12 UNL     1      45.195  -5.238  27.595  1.00  0.00     0.174 HD
ATOM     13  H11 UNL     1      45.211  -3.717  28.497  1.00  0.00     0.174 HD
ENDBRANCH   5  11
BRANCH   7  14
HETATM   14  N14 UNL     1      43.332  -4.380  30.270  1.00  0.00    -0.309 N 
ATOM     15 2H14 UNL     1      43.339  -3.579  30.900  1.00  0.00     0.178 HD
ATOM     16 1H14 UNL     1      43.833  -5.224  30.545  1.00  0.00     0.178 HD
ENDBRANCH   7  14
BRANCH   8  17
HETATM   17  N12 UNL     1      40.649  -4.296  30.048  1.00  0.00    -0.232 N 
ATOM     18 2H12 UNL     1      39.978  -5.047  30.212  1.00  0.00     0.174 HD
ATOM     19 1H12 UNL     1      40.769  -3.548  30.730  1.00  0.00     0.174 HD
ENDBRANCH   8  17
ENDBRANCH   2   3
ENDBRANCH   1   2
BRANCH   1  20
HETATM   20  O2  UNL     1      42.030  -2.538  24.655  1.00  0.00    -0.354 OA
ATOM     21  H2  UNL     1      42.787  -2.913  25.089  1.00  0.00     0.214 HD
ENDBRANCH   1  20
BRANCH   1  22
HETATM   22  C4  UNL     1      39.787  -2.855  23.929  1.00  0.00     0.084 A 
HETATM   23  C5  UNL     1      38.673  -3.663  23.802  1.00  0.00     0.070 A 
HETATM   24  C6  UNL     1      37.440  -3.170  23.430  1.00  0.00     0.103 A 
HETATM   25  C7  UNL     1      37.330  -1.825  23.181  1.00  0.00     0.130 A 
HETATM   26  C8  UNL     1      38.458  -1.026  23.313  1.00  0.00     0.122 A 
HETATM   27  N6  UNL     1      39.629  -1.557  23.676  1.00  0.00    -0.349 N 
ATOM     28  H6  UNL     1      40.438  -0.941  23.763  1.00  0.00     0.166 HD
BRANCH  24  29
HETATM   29  O3  UNL     1      36.324  -3.968  23.301  1.00  0.00    -0.358 OA
ATOM     30  H3  UNL     1      36.017  -4.292  22.461  1.00  0.00     0.217 HD
ENDBRANCH  24  29
BRANCH  25  31
HETATM   31  O4  UNL     1      36.147  -1.199  22.800  1.00  0.00    -0.356 OA
ATOM     32  H4  UNL     1      36.091  -0.535  22.123  1.00  0.00     0.218 HD
ENDBRANCH  25  31
BRANCH  26  33
HETATM   33  C9  UNL     1      38.346   0.426  23.042  1.00  0.00     0.194 A 
HETATM   34  N3  UNL     1      39.134   1.093  22.184  1.00  0.00    -0.276 N 
HETATM   35  N4  UNL     1      38.745   2.370  22.200  1.00  0.00    -0.281 N 
ATOM     36  H3  UNL     1      39.889   0.698  21.623  1.00  0.00     0.189 HD
HETATM   37  C10 UNL     1      37.708   2.486  23.078  1.00  0.00     0.143 A 
ATOM     38  H4  UNL     1      39.152   3.127  21.651  1.00  0.00     0.189 HD
HETATM   39  O7  UNL     1      37.522   1.280  23.547  1.00  0.00    -0.276 OA
BRANCH  37  40
HETATM   40  C11 UNL     1      36.982   3.742  23.396  1.00  0.00     0.130 C 
BRANCH  40  41
HETATM   41  C12 UNL     1      37.321   4.177  24.805  1.00  0.00     0.290 C 
BRANCH  41  42
HETATM   42  N5  UNL     1      38.351   3.276  25.295  1.00  0.00    -0.065 N 
ATOM     43  H53 UNL     1      38.941   2.902  24.552  1.00  0.00     0.275 HD
ATOM     44  H52 UNL     1      39.086   3.755  25.817  1.00  0.00     0.275 HD
ATOM     45  H51 UNL     1      37.883   2.551  25.837  1.00  0.00     0.275 HD
ENDBRANCH  41  42
BRANCH  41  46
HETATM   46  C13 UNL     1      36.090   4.052  25.623  1.00  0.00     0.204 C 
HETATM   47  O5  UNL     1      35.741   5.037  26.319  1.00  0.00    -0.646 OA
HETATM   48  O6  UNL     1      35.346   2.898  25.626  1.00  0.00    -0.646 OA
ENDBRANCH  41  46
ENDBRANCH  40  41
ENDBRANCH  37  40
ENDBRANCH  26  33
ENDBRANCH   1  22
BRANCH   1  49
HETATM   49  C14 UNL     1      41.622  -4.266  23.168  1.00  0.00     0.181 A 
HETATM   50  N7  UNL     1      41.891  -5.584  23.144  1.00  0.00    -0.266 N 
HETATM   51  N8  UNL     1      42.367  -5.945  21.965  1.00  0.00    -0.005 NA
ATOM     52  H7  UNL     1      41.746  -6.218  23.930  1.00  0.00     0.185 HD
HETATM   53  N9  UNL     1      42.402  -4.844  21.234  1.00  0.00    -0.225 N 
HETATM   54  N10 UNL     1      41.955  -3.825  21.945  1.00  0.00    -0.270 N 
ATOM     55  H9  UNL     1      42.724  -4.790  20.269  1.00  0.00     0.205 HD
ATOM     56  H10 UNL     1      41.877  -2.862  21.619  1.00  0.00     0.189 HD
ENDBRANCH   1  49
TORSDOF 15
ENDMDL
MODEL 3
REMARK VINA RESULT: -7.018437050      2.802      8.105
REMARK  15 active torsions:
REMARK  status: ('A' for Active; 'I' for Inactive)
REMARK    1  A    between atoms: N1_1  and  C1_4 
REMARK    2  A    between atoms: C2_7  and  O1_8 
REMARK    3  A    between atoms: O1_8  and  C3_9 
REMARK    4  A    between atoms: C3_9  and  O2_10 
REMARK    5  A    between atoms: C3_9  and  C4_12 
REMARK    6  A    between atoms: C3_9  and  C14_39 
REMARK    7  A    between atoms: C6_14  and  O3_15 
REMARK    8  A    between atoms: C7_17  and  O4_18 
REMARK    9  A    between atoms: C8_20  and  C9_21 
REMARK   10  A    between atoms: C10_26  and  C11_27 
REMARK   11  A    between atoms: C11_27  and  C12_28 
REMARK   12  A    between atoms: C12_28  and  N5_29 
REMARK   13  A    between atoms: C12_28  and  C13_33 
REMARK   14  A    between atoms: C15_49  and  N12_50 
REMARK   15  A    between atoms: N13_53  and  N14_54 
ROOT
HETATM    1  C3  UNL     1      38.414  -2.963  23.314  1.00  0.00     0.277 C 
ENDROOT
BRANCH   1   2
HETATM    2  O1  UNL     1      38.382  -1.878  22.411  1.00  0.00    -0.269 OA
BRANCH   2   3
HETATM    3  C2  UNL     1      38.228  -0.566  22.786  1.00  0.00     0.256 A 
HETATM    4  N2  UNL     1      37.116  -0.047  23.331  1.00  0.00    -0.152 N 
HETATM    5  C1  UNL     1      37.031   1.244  23.676  1.00  0.00     0.715 A 
ATOM      6  H2  UNL     1      36.312  -0.655  23.488  1.00  0.00     0.188 HD
HETATM    7  N13 UNL     1      38.075   2.066  23.482  1.00  0.00     0.083 N 
HETATM    8  C15 UNL     1      39.188   1.569  22.941  1.00  0.00     0.715 A 
HETATM    9  N11 UNL     1      39.264   0.272  22.599  1.00  0.00    -0.152 N 
ATOM     10  H11 UNL     1      40.126  -0.086  22.188  1.00  0.00     0.188 HD
BRANCH   5  11
HETATM   11  N1  UNL     1      35.939   1.727  24.203  1.00  0.00    -0.232 N 
ATOM     12  H12 UNL     1      35.180   1.086  24.435  1.00  0.00     0.174 HD
ATOM     13  H11 UNL     1      35.841   2.725  24.382  1.00  0.00     0.174 HD
ENDBRANCH   5  11
BRANCH   7  14
HETATM   14  N14 UNL     1      37.946   3.402  23.855  1.00  0.00    -0.309 N 
ATOM     15 2H14 UNL     1      38.028   4.172  23.191  1.00  0.00     0.178 HD
ATOM     16 1H14 UNL     1      37.760   3.618  24.834  1.00  0.00     0.178 HD
ENDBRANCH   7  14
BRANCH   8  17
HETATM   17  N12 UNL     1      40.186   2.382  22.761  1.00  0.00    -0.232 N 
ATOM     18 2H12 UNL     1      41.083   1.978  22.491  1.00  0.00     0.174 HD
ATOM     19 1H12 UNL     1      40.085   3.389  22.884  1.00  0.00     0.174 HD
ENDBRANCH   8  17
ENDBRANCH   2   3
ENDBRANCH   1   2
BRANCH   1  20
HETATM   20  O2  UNL     1      37.518  -2.815  24.365  1.00  0.00    -0.354 OA
ATOM     21  H2  UNL     1      37.484  -3.578  24.930  1.00  0.00     0.214 HD
ENDBRANCH   1  20
BRANCH   1  22
HETATM   22  C4  UNL     1      39.814  -3.075  23.801  1.00  0.00     0.084 A 
HETATM   23  C5  UNL     1      40.835  -2.994  22.873  1.00  0.00     0.070 A 
HETATM   24  C6  UNL     1      42.164  -3.088  23.226  1.00  0.00     0.103 A 
HETATM   25  C7  UNL     1      42.471  -3.269  24.551  1.00  0.00     0.130 A 
HETATM   26  C8  UNL     1      41.435  -3.349  25.471  1.00  0.00     0.122 A 
HETATM   27  N6  UNL     1      40.162  -3.252  25.075  1.00  0.00    -0.349 N 
ATOM     28  H6  UNL     1      39.425  -3.316  25.778  1.00  0.00     0.166 HD
BRANCH  24  29
HETATM   29  O3  UNL     1      43.188  -3.008  22.306  1.00  0.00    -0.358 OA
ATOM     30  H3  UNL     1      43.977  -2.499  22.457  1.00  0.00     0.217 HD
ENDBRANCH  24  29
BRANCH  25  31
HETATM   31  O4  UNL     1      43.768  -3.379  25.041  1.00  0.00    -0.356 OA
ATOM     32  H4  UNL     1      44.387  -2.659  25.072  1.00  0.00     0.218 HD
ENDBRANCH  25  31
BRANCH  26  33
HETATM   33  C9  UNL     1      41.758  -3.549  26.903  1.00  0.00     0.194 A 
HETATM   34  N3  UNL     1      42.689  -2.847  27.568  1.00  0.00    -0.276 N 
HETATM   35  N4  UNL     1      42.703  -3.298  28.825  1.00  0.00    -0.281 N 
ATOM     36  H3  UNL     1      43.278  -2.107  27.185  1.00  0.00     0.189 HD
HETATM   37  C10 UNL     1      41.770  -4.287  28.930  1.00  0.00     0.143 A 
ATOM     38  H4  UNL     1      43.305  -2.961  29.576  1.00  0.00     0.189 HD
HETATM   39  O7  UNL     1      41.241  -4.384  27.738  1.00  0.00    -0.276 OA
BRANCH  37  40
HETATM   40  C11 UNL     1      41.462  -5.056  30.162  1.00  0.00     0.130 C 
BRANCH  40  41
HETATM   41  C12 UNL     1      41.892  -6.495  29.978  1.00  0.00     0.290 C 
BRANCH  41  42
HETATM   42  N5  UNL     1      43.024  -6.490  29.066  1.00  0.00    -0.065 N 
ATOM     43  H53 UNL     1      42.755  -6.320  28.097  1.00  0.00     0.275 HD
ATOM     44  H52 UNL     1      43.626  -5.675  29.181  1.00  0.00     0.275 HD
ATOM     45  H51 UNL     1      43.518  -7.373  29.194  1.00  0.00     0.275 HD
ENDBRANCH  41  42
BRANCH  41  46
HETATM   46  C13 UNL     1      40.751  -7.234  29.384  1.00  0.00     0.204 C 
HETATM   47  O5  UNL     1      39.702  -7.347  30.066  1.00  0.00    -0.646 OA
HETATM   48  O6  UNL     1      40.828  -7.783  28.128  1.00  0.00    -0.646 OA
ENDBRANCH  41  46
ENDBRANCH  40  41
ENDBRANCH  37  40
ENDBRANCH  26  33
ENDBRANCH   1  22
BRANCH   1  49
HETATM   49  C14 UNL     1      38.033  -4.243  22.616  1.00  0.00     0.181 A 
HETATM   50  N7  UNL     1      38.686  -5.416  22.692  1.00  0.00    -0.266 N 
HETATM   51  N8  UNL     1      38.085  -6.336  21.956  1.00  0.00    -0.005 NA
ATOM     52  H7  UNL     1      39.531  -5.574  23.242  1.00  0.00     0.185 HD
HETATM   53  N9  UNL     1      37.041  -5.739  21.410  1.00  0.00    -0.225 N 
HETATM   54  N10 UNL     1      36.995  -4.479  21.798  1.00  0.00    -0.270 N 
ATOM     55  H9  UNL     1      36.371  -6.185  20.782  1.00  0.00     0.205 HD
ATOM     56  H10 UNL     1      36.289  -3.796  21.523  1.00  0.00     0.189 HD
ENDBRANCH   1  49
TORSDOF 15
ENDMDL
MODEL 4
REMARK VINA RESULT: -6.872817023      2.365      3.469
REMARK  15 active torsions:
REMARK  status: ('A' for Active; 'I' for Inactive)
REMARK    1  A    between atoms: N1_1  and  C1_4 
REMARK    2  A    between atoms: C2_7  and  O1_8 
REMARK    3  A    between atoms: O1_8  and  C3_9 
REMARK    4  A    between atoms: C3_9  and  O2_10 
REMARK    5  A    between atoms: C3_9  and  C4_12 
REMARK    6  A    between atoms: C3_9  and  C14_39 
REMARK    7  A    between atoms: C6_14  and  O3_15 
REMARK    8  A    between atoms: C7_17  and  O4_18 
REMARK    9  A    between atoms: C8_20  and  C9_21 
REMARK   10  A    between atoms: C10_26  and  C11_27 
REMARK   11  A    between atoms: C11_27  and  C12_28 
REMARK   12  A    between atoms: C12_28  and  N5_29 
REMARK   13  A    between atoms: C12_28  and  C13_33 
REMARK   14  A    between atoms: C15_49  and  N12_50 
REMARK   15  A    between atoms: N13_53  and  N14_54 
ROOT
HETATM    1  C3  UNL     1      39.621  -3.194  23.225  1.00  0.00     0.277 C 
ENDROOT
BRANCH   1   2
HETATM    2  O1  UNL     1      39.825  -2.847  24.579  1.00  0.00    -0.269 OA
BRANCH   2   3
HETATM    3  C2  UNL     1      40.842  -3.343  25.358  1.00  0.00     0.256 A 
HETATM    4  N2  UNL     1      42.152  -3.177  25.111  1.00  0.00    -0.152 N 
HETATM    5  C1  UNL     1      43.095  -3.688  25.912  1.00  0.00     0.715 A 
ATOM      6  H2  UNL     1      42.437  -2.646  24.288  1.00  0.00     0.188 HD
HETATM    7  N13 UNL     1      42.749  -4.390  27.003  1.00  0.00     0.083 N 
HETATM    8  C15 UNL     1      41.453  -4.565  27.265  1.00  0.00     0.715 A 
HETATM    9  N11 UNL     1      40.513  -4.049  26.454  1.00  0.00    -0.152 N 
ATOM     10  H11 UNL     1      39.528  -4.195  26.676  1.00  0.00     0.188 HD
BRANCH   5  11
HETATM   11  N1  UNL     1      44.362  -3.515  25.651  1.00  0.00    -0.232 N 
ATOM     12  H12 UNL     1      44.666  -2.624  25.258  1.00  0.00     0.174 HD
ATOM     13  H11 UNL     1      45.040  -4.253  25.834  1.00  0.00     0.174 HD
ENDBRANCH   5  11
BRANCH   7  14
HETATM   14  N14 UNL     1      43.760  -4.904  27.810  1.00  0.00    -0.309 N 
ATOM     15 2H14 UNL     1      43.613  -5.158  28.787  1.00  0.00     0.178 HD
ATOM     16 1H14 UNL     1      44.688  -5.031  27.406  1.00  0.00     0.178 HD
ENDBRANCH   7  14
BRANCH   8  17
HETATM   17  N12 UNL     1      41.139  -5.249  28.325  1.00  0.00    -0.232 N 
ATOM     18 2H12 UNL     1      41.684  -6.086  28.527  1.00  0.00     0.174 HD
ATOM     19 1H12 UNL     1      40.375  -4.965  28.938  1.00  0.00     0.174 HD
ENDBRANCH   8  17
ENDBRANCH   2   3
ENDBRANCH   1   2
BRANCH   1  20
HETATM   20  O2  UNL     1      40.463  -4.213  22.798  1.00  0.00    -0.354 OA
ATOM     21  H2  UNL     1      40.870  -4.681  23.518  1.00  0.00     0.214 HD
ENDBRANCH   1  20
BRANCH   1  22
HETATM   22  C4  UNL     1      39.819  -1.953  22.431  1.00  0.00     0.084 A 
HETATM   23  C5  UNL     1      40.712  -1.991  21.377  1.00  0.00     0.070 A 
HETATM   24  C6  UNL     1      40.966  -0.892  20.583  1.00  0.00     0.103 A 
HETATM   25  C7  UNL     1      40.299   0.275  20.860  1.00  0.00     0.130 A 
HETATM   26  C8  UNL     1      39.405   0.296  21.922  1.00  0.00     0.122 A 
HETATM   27  N6  UNL     1      39.197  -0.798  22.661  1.00  0.00    -0.349 N 
ATOM     28  H6  UNL     1      38.533  -0.746  23.434  1.00  0.00     0.166 HD
BRANCH  24  29
HETATM   29  O3  UNL     1      41.855  -0.921  19.530  1.00  0.00    -0.358 OA
ATOM     30  H3  UNL     1      41.808  -0.316  18.799  1.00  0.00     0.217 HD
ENDBRANCH  24  29
BRANCH  25  31
HETATM   31  O4  UNL     1      40.461   1.453  20.139  1.00  0.00    -0.356 OA
ATOM     32  H4  UNL     1      40.054   2.279  20.372  1.00  0.00     0.218 HD
ENDBRANCH  25  31
BRANCH  26  33
HETATM   33  C9  UNL     1      38.685   1.554  22.230  1.00  0.00     0.194 A 
HETATM   34  N3  UNL     1      37.725   2.080  21.453  1.00  0.00    -0.276 N 
HETATM   35  N4  UNL     1      37.309   3.204  22.042  1.00  0.00    -0.281 N 
ATOM     36  H3  UNL     1      37.376   1.693  20.575  1.00  0.00     0.189 HD
HETATM   37  C10 UNL     1      38.024   3.368  23.192  1.00  0.00     0.143 A 
ATOM     38  H4  UNL     1      36.584   3.831  21.693  1.00  0.00     0.189 HD
HETATM   39  O7  UNL     1      38.831   2.341  23.241  1.00  0.00    -0.276 OA
BRANCH  37  40
HETATM   40  C11 UNL     1      37.875   4.495  24.148  1.00  0.00     0.130 C 
BRANCH  40  41
HETATM   41  C12 UNL     1      37.234   3.991  25.423  1.00  0.00     0.290 C 
BRANCH  41  42
HETATM   42  N5  UNL     1      37.784   2.672  25.686  1.00  0.00    -0.065 N 
ATOM     43  H53 UNL     1      38.511   2.678  26.402  1.00  0.00     0.275 HD
ATOM     44  H52 UNL     1      37.129   2.056  26.169  1.00  0.00     0.275 HD
ATOM     45  H51 UNL     1      38.104   2.296  24.794  1.00  0.00     0.275 HD
ENDBRANCH  41  42
BRANCH  41  46
HETATM   46  C13 UNL     1      35.771   3.907  25.189  1.00  0.00     0.204 C 
HETATM   47  O5  UNL     1      35.176   2.859  25.541  1.00  0.00    -0.646 OA
HETATM   48  O6  UNL     1      35.079   4.939  24.604  1.00  0.00    -0.646 OA
ENDBRANCH  41  46
ENDBRANCH  40  41
ENDBRANCH  37  40
ENDBRANCH  26  33
ENDBRANCH   1  22
BRANCH   1  49
HETATM   49  C14 UNL     1      38.216  -3.695  23.013  1.00  0.00     0.181 A 
HETATM   50  N7  UNL     1      37.091  -3.136  23.493  1.00  0.00    -0.266 N 
HETATM   51  N8  UNL     1      36.028  -3.829  23.121  1.00  0.00    -0.005 NA
ATOM     52  H7  UNL     1      37.062  -2.292  24.065  1.00  0.00     0.185 HD
HETATM   53  N9  UNL     1      36.485  -4.837  22.399  1.00  0.00    -0.225 N 
HETATM   54  N10 UNL     1      37.801  -4.769  22.325  1.00  0.00    -0.270 N 
ATOM     55  H9  UNL     1      35.909  -5.558  21.966  1.00  0.00     0.205 HD
ATOM     56  H10 UNL     1      38.403  -5.425  21.826  1.00  0.00     0.189 HD
ENDBRANCH   1  49
TORSDOF 15
ENDMDL
MODEL 5
REMARK VINA RESULT: -6.782644489      2.870      8.634
REMARK  15 active torsions:
REMARK  status: ('A' for Active; 'I' for Inactive)
REMARK    1  A    between atoms: N1_1  and  C1_4 
REMARK    2  A    between atoms: C2_7  and  O1_8 
REMARK    3  A    between atoms: O1_8  and  C3_9 
REMARK    4  A    between atoms: C3_9  and  O2_10 
REMARK    5  A    between atoms: C3_9  and  C4_12 
REMARK    6  A    between atoms: C3_9  and  C14_39 
REMARK    7  A    between atoms: C6_14  and  O3_15 
REMARK    8  A    between atoms: C7_17  and  O4_18 
REMARK    9  A    between atoms: C8_20  and  C9_21 
REMARK   10  A    between atoms: C10_26  and  C11_27 
REMARK   11  A    between atoms: C11_27  and  C12_28 
REMARK   12  A    between atoms: C12_28  and  N5_29 
REMARK   13  A    between atoms: C12_28  and  C13_33 
REMARK   14  A    between atoms: C15_49  and  N12_50 
REMARK   15  A    between atoms: N13_53  and  N14_54 
ROOT
HETATM    1  C3  UNL     1      38.229  -2.586  23.248  1.00  0.00     0.277 C 
ENDROOT
BRANCH   1   2
HETATM    2  O1  UNL     1      38.311  -1.398  22.490  1.00  0.00    -0.269 OA
BRANCH   2   3
HETATM    3  C2  UNL     1      37.999  -0.150  22.973  1.00  0.00     0.256 A 
HETATM    4  N2  UNL     1      37.765   0.139  24.264  1.00  0.00    -0.152 N 
HETATM    5  C1  UNL     1      37.466   1.379  24.670  1.00  0.00     0.715 A 
ATOM      6  H2  UNL     1      37.818  -0.610  24.956  1.00  0.00     0.188 HD
HETATM    7  N13 UNL     1      37.392   2.382  23.781  1.00  0.00     0.083 N 
HETATM    8  C15 UNL     1      37.621   2.115  22.495  1.00  0.00     0.715 A 
HETATM    9  N11 UNL     1      37.921   0.866  22.097  1.00  0.00    -0.152 N 
ATOM     10  H11 UNL     1      38.093   0.686  21.107  1.00  0.00     0.188 HD
BRANCH   5  11
HETATM   11  N1  UNL     1      37.241   1.635  25.929  1.00  0.00    -0.232 N 
ATOM     12  H12 UNL     1      36.289   1.847  26.226  1.00  0.00     0.174 HD
ATOM     13  H11 UNL     1      38.001   1.626  26.610  1.00  0.00     0.174 HD
ENDBRANCH   5  11
BRANCH   7  14
HETATM   14  N14 UNL     1      37.078   3.658  24.245  1.00  0.00    -0.309 N 
ATOM     15 2H14 UNL     1      37.384   4.508  23.773  1.00  0.00     0.178 HD
ATOM     16 1H14 UNL     1      36.518   3.743  25.093  1.00  0.00     0.178 HD
ENDBRANCH   7  14
BRANCH   8  17
HETATM   17  N12 UNL     1      37.543   3.100  21.651  1.00  0.00    -0.232 N 
ATOM     18 2H12 UNL     1      37.714   2.895  20.667  1.00  0.00     0.174 HD
ATOM     19 1H12 UNL     1      37.320   4.047  21.954  1.00  0.00     0.174 HD
ENDBRANCH   8  17
ENDBRANCH   2   3
ENDBRANCH   1   2
BRANCH   1  20
HETATM   20  O2  UNL     1      37.224  -2.544  24.207  1.00  0.00    -0.354 OA
ATOM     21  H2  UNL     1      37.562  -2.547  25.095  1.00  0.00     0.214 HD
ENDBRANCH   1  20
BRANCH   1  22
HETATM   22  C4  UNL     1      39.565  -2.794  23.866  1.00  0.00     0.084 A 
HETATM   23  C5  UNL     1      40.660  -2.205  23.262  1.00  0.00     0.070 A 
HETATM   24  C6  UNL     1      41.939  -2.341  23.757  1.00  0.00     0.103 A 
HETATM   25  C7  UNL     1      42.118  -3.090  24.893  1.00  0.00     0.130 A 
HETATM   26  C8  UNL     1      41.008  -3.675  25.488  1.00  0.00     0.122 A 
HETATM   27  N6  UNL     1      39.789  -3.512  24.965  1.00  0.00    -0.349 N 
ATOM     28  H6  UNL     1      38.996  -3.957  25.428  1.00  0.00     0.166 HD
BRANCH  24  29
HETATM   29  O3  UNL     1      43.036  -1.757  23.161  1.00  0.00    -0.358 OA
ATOM     30  H3  UNL     1      43.172  -1.757  22.220  1.00  0.00     0.217 HD
ENDBRANCH  24  29
BRANCH  25  31
HETATM   31  O4  UNL     1      43.353  -3.306  25.496  1.00  0.00    -0.356 OA
ATOM     32  H4  UNL     1      43.775  -2.685  26.079  1.00  0.00     0.218 HD
ENDBRANCH  25  31
BRANCH  26  33
HETATM   33  C9  UNL     1      41.194  -4.488  26.712  1.00  0.00     0.194 A 
HETATM   34  N3  UNL     1      40.684  -4.169  27.912  1.00  0.00    -0.276 N 
HETATM   35  N4  UNL     1      41.055  -5.125  28.767  1.00  0.00    -0.281 N 
ATOM     36  H3  UNL     1      40.119  -3.348  28.131  1.00  0.00     0.189 HD
HETATM   37  C10 UNL     1      41.800  -6.040  28.083  1.00  0.00     0.143 A 
ATOM     38  H4  UNL     1      40.821  -5.165  29.759  1.00  0.00     0.189 HD
HETATM   39  O7  UNL     1      41.843  -5.594  26.855  1.00  0.00    -0.276 OA
BRANCH  37  40
HETATM   40  C11 UNL     1      42.409  -7.264  28.663  1.00  0.00     0.130 C 
BRANCH  40  41
HETATM   41  C12 UNL     1      41.487  -8.441  28.433  1.00  0.00     0.290 C 
BRANCH  41  42
HETATM   42  N5  UNL     1      40.635  -8.105  27.305  1.00  0.00    -0.065 N 
ATOM     43  H53 UNL     1      39.862  -7.489  27.558  1.00  0.00     0.275 HD
ATOM     44  H52 UNL     1      41.086  -7.481  26.636  1.00  0.00     0.275 HD
ATOM     45  H51 UNL     1      40.326  -8.983  26.888  1.00  0.00     0.275 HD
ENDBRANCH  41  42
BRANCH  41  46
HETATM   46  C13 UNL     1      40.675  -8.623  29.661  1.00  0.00     0.204 C 
HETATM   47  O5  UNL     1      40.684  -9.751  30.214  1.00  0.00    -0.646 OA
HETATM   48  O6  UNL     1      39.931  -7.595  30.187  1.00  0.00    -0.646 OA
ENDBRANCH  41  46
ENDBRANCH  40  41
ENDBRANCH  37  40
ENDBRANCH  26  33
ENDBRANCH   1  22
BRANCH   1  49
HETATM   49  C14 UNL     1      37.910  -3.760  22.360  1.00  0.00     0.181 A 
HETATM   50  N7  UNL     1      38.663  -4.216  21.342  1.00  0.00    -0.266 N 
HETATM   51  N8  UNL     1      38.093  -5.262  20.769  1.00  0.00    -0.005 NA
ATOM     52  H7  UNL     1      39.552  -3.809  21.053  1.00  0.00     0.185 HD
HETATM   53  N9  UNL     1      36.968  -5.471  21.430  1.00  0.00    -0.225 N 
HETATM   54  N10 UNL     1      36.844  -4.575  22.392  1.00  0.00    -0.270 N 
ATOM     55  H9  UNL     1      36.297  -6.212  21.228  1.00  0.00     0.205 HD
ATOM     56  H10 UNL     1      36.068  -4.512  23.050  1.00  0.00     0.189 HD
ENDBRANCH   1  49
TORSDOF 15
ENDMDL
