MODEL 1
REMARK VINA RESULT: -6.894248332      0.000      0.000
REMARK  11 active torsions:
REMARK  status: ('A' for Active; 'I' for Inactive)
REMARK    1  A    between atoms: C2_6  and  C3_7 
REMARK    2  A    between atoms: C3_7  and  O1_8 
REMARK    3  A    between atoms: C3_7  and  N4_10 
REMARK    4  A    between atoms: C4_11  and  C5_12 
REMARK    5  A    between atoms: C6_17  and  N7_18 
REMARK    6  A    between atoms: N7_18  and  C7_19 
REMARK    7  A    between atoms: N7_18  and  C9_23 
REMARK    8  A    between atoms: C7_19  and  C8_20 
REMARK    9  A    between atoms: C8_20  and  O2_21 
REMARK   10  A    between atoms: C9_23  and  N8_24 
REMARK   11  A    between atoms: C14_42  and  N17_43 
ROOT
HETATM    1  N4  UNL     1      39.876  -0.038  23.383  1.00  0.00    -0.281 N 
HETATM    2  C4  UNL     1      41.067  -0.611  23.456  1.00  0.00     0.144 A 
HETATM    3  N14 UNL     1      41.783  -0.107  22.409  1.00  0.00    -0.334 N 
ATOM      4  H14 UNL     1      42.747  -0.361  22.197  1.00  0.00     0.168 HD
HETATM    5  C12 UNL     1      41.067   0.754  21.705  1.00  0.00     0.121 A 
HETATM    6  C13 UNL     1      41.318   1.527  20.578  1.00  0.00     0.162 A 
HETATM    7  N15 UNL     1      42.593   1.445  19.970  1.00  0.00    -0.080 NA
HETATM    8  N16 UNL     1      40.368   2.333  20.080  1.00  0.00    -0.177 N 
ATOM      9  H16 UNL     1      40.548   2.902  19.253  1.00  0.00     0.185 HD
HETATM   10  C14 UNL     1      39.176   2.375  20.693  1.00  0.00     0.678 A 
HETATM   11  N18 UNL     1      38.920   1.633  21.780  1.00  0.00    -0.174 N 
ATOM     12  H18 UNL     1      37.998   1.697  22.211  1.00  0.00     0.186 HD
HETATM   13  C15 UNL     1      39.830   0.809  22.323  1.00  0.00     0.157 A 
ENDROOT
BRANCH   2  14
HETATM   14  C5  UNL     1      41.625  -1.582  24.399  1.00  0.00     0.135 A 
HETATM   15  N5  UNL     1      41.501  -2.906  24.240  1.00  0.00    -0.280 N 
HETATM   16  N6  UNL     1      41.996  -3.771  25.079  1.00  0.00    -0.131 N 
ATOM     17  H5  UNL     1      40.998  -3.253  23.425  1.00  0.00     0.188 HD
HETATM   18  C6  UNL     1      42.667  -3.367  26.168  1.00  0.00     0.701 A 
ATOM     19  H6  UNL     1      41.869  -4.768  24.906  1.00  0.00     0.205 HD
HETATM   20  N12 UNL     1      42.816  -2.066  26.369  1.00  0.00    -0.175 N 
HETATM   21  C11 UNL     1      42.313  -1.138  25.511  1.00  0.00     0.163 A 
ATOM     22  H12 UNL     1      43.324  -1.749  27.195  1.00  0.00     0.185 HD
HETATM   23  N13 UNL     1      42.495   0.248  25.761  1.00  0.00    -0.080 NA
BRANCH  18  24
HETATM   24  N7  UNL     1      43.190  -4.400  27.056  1.00  0.00    -0.172 N 
BRANCH  24  25
HETATM   25  C7  UNL     1      43.941  -3.922  28.166  1.00  0.00     0.174 C 
BRANCH  25  26
HETATM   26  C8  UNL     1      43.127  -3.455  29.326  1.00  0.00     0.185 C 
BRANCH  26  27
HETATM   27  O2  UNL     1      43.117  -4.494  30.267  1.00  0.00    -0.399 OA
ATOM     28  H2  UNL     1      42.285  -4.448  30.724  1.00  0.00     0.209 HD
ENDBRANCH  26  27
ENDBRANCH  25  26
ENDBRANCH  24  25
BRANCH  24  29
HETATM   29  C9  UNL     1      42.838  -5.733  26.743  1.00  0.00     0.247 C 
BRANCH  29  30
HETATM   30  N8  UNL     1      42.036  -6.394  27.715  1.00  0.00    -0.187 N 
HETATM   31  N9  UNL     1      42.265  -7.044  28.871  1.00  0.00    -0.250 N 
HETATM   32  C10 UNL     1      40.973  -7.343  29.029  1.00  0.00     0.225 A 
ATOM     33  H9  UNL     1      43.104  -7.236  29.418  1.00  0.00     0.192 HD
HETATM   34  N10 UNL     1      40.151  -8.040  29.989  1.00  0.00    -0.060 NA
HETATM   35  N11 UNL     1      40.765  -6.693  27.881  1.00  0.00    -0.250 N 
ATOM     36  H11 UNL     1      39.927  -6.500  27.333  1.00  0.00     0.192 HD
ENDBRANCH  29  30
ENDBRANCH  24  29
ENDBRANCH  18  24
ENDBRANCH   2  14
BRANCH   1  37
HETATM   37  C3  UNL     1      38.735  -0.227  24.244  1.00  0.00     0.283 C 
BRANCH  37  38
HETATM   38  C2  UNL     1      37.755  -1.181  23.619  1.00  0.00     0.115 A 
HETATM   39  N3  UNL     1      36.750  -0.867  22.809  1.00  0.00    -0.280 N 
HETATM   40  N2  UNL     1      36.092  -1.981  22.445  1.00  0.00    -0.019 NA
ATOM     41  H3  UNL     1      36.513   0.078  22.509  1.00  0.00     0.184 HD
HETATM   42  N1  UNL     1      36.700  -3.014  23.040  1.00  0.00    -0.265 N 
HETATM   43  C1  UNL     1      36.338  -4.419  22.943  1.00  0.00     0.176 C 
HETATM   44  C16 UNL     1      37.742  -2.539  23.779  1.00  0.00     0.159 A 
HETATM   45  N19 UNL     1      38.659  -3.282  24.569  1.00  0.00    -0.079 NA
ENDBRANCH  37  38
BRANCH  37  46
HETATM   46  O1  UNL     1      38.120   0.977  24.555  1.00  0.00    -0.370 OA
ATOM     47  H1  UNL     1      37.208   0.840  24.784  1.00  0.00     0.212 HD
ENDBRANCH  37  46
ENDBRANCH   1  37
BRANCH  10  48
HETATM   48  N17 UNL     1      38.259   3.136  20.236  1.00  0.00    -0.234 N 
ATOM     49 2H17 UNL     1      37.944   3.924  20.802  1.00  0.00     0.174 HD
ATOM     50 1H17 UNL     1      37.858   2.945  19.318  1.00  0.00     0.174 HD
ENDBRANCH  10  48
TORSDOF 11
ENDMDL
MODEL 2
REMARK VINA RESULT: -6.774017883      5.520      9.631
REMARK  11 active torsions:
REMARK  status: ('A' for Active; 'I' for Inactive)
REMARK    1  A    between atoms: C2_6  and  C3_7 
REMARK    2  A    between atoms: C3_7  and  O1_8 
REMARK    3  A    between atoms: C3_7  and  N4_10 
REMARK    4  A    between atoms: C4_11  and  C5_12 
REMARK    5  A    between atoms: C6_17  and  N7_18 
REMARK    6  A    between atoms: N7_18  and  C7_19 
REMARK    7  A    between atoms: N7_18  and  C9_23 
REMARK    8  A    between atoms: C7_19  and  C8_20 
REMARK    9  A    between atoms: C8_20  and  O2_21 
REMARK   10  A    between atoms: C9_23  and  N8_24 
REMARK   11  A    between atoms: C14_42  and  N17_43 
ROOT
HETATM    1  N4  UNL     1      39.183  -4.088  23.019  1.00  0.00    -0.281 N 
HETATM    2  C4  UNL     1      39.618  -4.756  21.961  1.00  0.00     0.144 A 
HETATM    3  N14 UNL     1      40.674  -5.500  22.404  1.00  0.00    -0.334 N 
ATOM      4  H14 UNL     1      41.223  -6.125  21.815  1.00  0.00     0.168 HD
HETATM    5  C12 UNL     1      40.893  -5.307  23.694  1.00  0.00     0.121 A 
HETATM    6  C13 UNL     1      41.814  -5.808  24.605  1.00  0.00     0.162 A 
HETATM    7  N15 UNL     1      42.780  -6.737  24.149  1.00  0.00    -0.080 NA
HETATM    8  N16 UNL     1      41.786  -5.417  25.888  1.00  0.00    -0.177 N 
ATOM      9  H16 UNL     1      42.461  -5.783  26.559  1.00  0.00     0.185 HD
HETATM   10  C14 UNL     1      40.851  -4.536  26.270  1.00  0.00     0.678 A 
HETATM   11  N18 UNL     1      39.957  -4.042  25.401  1.00  0.00    -0.174 N 
ATOM     12  H18 UNL     1      39.265  -3.372  25.737  1.00  0.00     0.186 HD
HETATM   13  C15 UNL     1      39.936  -4.395  24.106  1.00  0.00     0.157 A 
ENDROOT
BRANCH   2  14
HETATM   14  C5  UNL     1      39.159  -4.787  20.572  1.00  0.00     0.135 A 
HETATM   15  N5  UNL     1      39.571  -3.909  19.648  1.00  0.00    -0.280 N 
HETATM   16  N6  UNL     1      39.162  -3.933  18.412  1.00  0.00    -0.131 N 
ATOM     17  H5  UNL     1      40.237  -3.187  19.926  1.00  0.00     0.188 HD
HETATM   18  C6  UNL     1      38.288  -4.861  17.995  1.00  0.00     0.701 A 
ATOM     19  H6  UNL     1      39.511  -3.237  17.753  1.00  0.00     0.205 HD
HETATM   20  N12 UNL     1      37.851  -5.753  18.872  1.00  0.00    -0.175 N 
HETATM   21  C11 UNL     1      38.259  -5.754  20.169  1.00  0.00     0.163 A 
ATOM     22  H12 UNL     1      37.185  -6.462  18.565  1.00  0.00     0.185 HD
HETATM   23  N13 UNL     1      37.768  -6.728  21.078  1.00  0.00    -0.080 NA
BRANCH  18  24
HETATM   24  N7  UNL     1      37.883  -4.820  16.595  1.00  0.00    -0.172 N 
BRANCH  24  25
HETATM   25  C7  UNL     1      38.419  -3.739  15.839  1.00  0.00     0.174 C 
BRANCH  25  26
HETATM   26  C8  UNL     1      37.407  -2.798  15.277  1.00  0.00     0.185 C 
BRANCH  26  27
HETATM   27  O2  UNL     1      37.384  -2.998  13.891  1.00  0.00    -0.399 OA
ATOM     28  H2  UNL     1      36.617  -2.547  13.557  1.00  0.00     0.209 HD
ENDBRANCH  26  27
ENDBRANCH  25  26
ENDBRANCH  24  25
BRANCH  24  29
HETATM   29  C9  UNL     1      37.065  -5.883  16.147  1.00  0.00     0.247 C 
BRANCH  29  30
HETATM   30  N8  UNL     1      37.420  -6.431  14.882  1.00  0.00    -0.187 N 
HETATM   31  N9  UNL     1      38.116  -7.503  14.459  1.00  0.00    -0.250 N 
HETATM   32  C10 UNL     1      37.960  -7.173  13.174  1.00  0.00     0.225 A 
ATOM     33  H9  UNL     1      38.584  -8.274  14.936  1.00  0.00     0.192 HD
HETATM   34  N10 UNL     1      38.343  -7.699  11.886  1.00  0.00    -0.060 NA
HETATM   35  N11 UNL     1      37.272  -6.116  13.613  1.00  0.00    -0.250 N 
ATOM     36  H11 UNL     1      36.803  -5.345  13.137  1.00  0.00     0.192 HD
ENDBRANCH  29  30
ENDBRANCH  24  29
ENDBRANCH  18  24
ENDBRANCH   2  14
BRANCH   1  37
HETATM   37  C3  UNL     1      38.093  -3.149  23.100  1.00  0.00     0.283 C 
BRANCH  37  38
HETATM   38  C2  UNL     1      38.560  -1.766  22.739  1.00  0.00     0.115 A 
HETATM   39  N3  UNL     1      39.669  -1.450  22.082  1.00  0.00    -0.280 N 
HETATM   40  N2  UNL     1      39.752  -0.117  21.939  1.00  0.00    -0.019 NA
ATOM     41  H3  UNL     1      40.356  -2.120  21.737  1.00  0.00     0.184 HD
HETATM   42  N1  UNL     1      38.669   0.413  22.521  1.00  0.00    -0.265 N 
HETATM   43  C1  UNL     1      38.326   1.823  22.618  1.00  0.00     0.176 C 
HETATM   44  C16 UNL     1      37.909  -0.599  23.027  1.00  0.00     0.159 A 
HETATM   45  N19 UNL     1      36.674  -0.496  23.721  1.00  0.00    -0.079 NA
ENDBRANCH  37  38
BRANCH  37  46
HETATM   46  O1  UNL     1      37.500  -3.158  24.353  1.00  0.00    -0.370 OA
ATOM     47  H1  UNL     1      36.798  -3.797  24.390  1.00  0.00     0.212 HD
ENDBRANCH  37  46
ENDBRANCH   1  37
BRANCH  10  48
HETATM   48  N17 UNL     1      40.806  -4.152  27.485  1.00  0.00    -0.234 N 
ATOM     49 2H17 UNL     1      41.624  -4.296  28.078  1.00  0.00     0.174 HD
ATOM     50 1H17 UNL     1      39.959  -3.711  27.844  1.00  0.00     0.174 HD
ENDBRANCH  10  48
TORSDOF 11
ENDMDL
MODEL 3
REMARK VINA RESULT: -6.679843831      2.949      8.475
REMARK  11 active torsions:
REMARK  status: ('A' for Active; 'I' for Inactive)
REMARK    1  A    between atoms: C2_6  and  C3_7 
REMARK    2  A    between atoms: C3_7  and  O1_8 
REMARK    3  A    between atoms: C3_7  and  N4_10 
REMARK    4  A    between atoms: C4_11  and  C5_12 
REMARK    5  A    between atoms: C6_17  and  N7_18 
REMARK    6  A    between atoms: N7_18  and  C7_19 
REMARK    7  A    between atoms: N7_18  and  C9_23 
REMARK    8  A    between atoms: C7_19  and  C8_20 
REMARK    9  A    between atoms: C8_20  and  O2_21 
REMARK   10  A    between atoms: C9_23  and  N8_24 
REMARK   11  A    between atoms: C14_42  and  N17_43 
ROOT
HETATM    1  N4  UNL     1      39.667  -3.714  23.427  1.00  0.00    -0.281 N 
HETATM    2  C4  UNL     1      39.113  -2.777  22.673  1.00  0.00     0.144 A 
HETATM    3  N14 UNL     1      39.019  -3.318  21.424  1.00  0.00    -0.334 N 
ATOM      4  H14 UNL     1      38.629  -2.833  20.616  1.00  0.00     0.168 HD
HETATM    5  C12 UNL     1      39.496  -4.551  21.394  1.00  0.00     0.121 A 
HETATM    6  C13 UNL     1      39.627  -5.515  20.402  1.00  0.00     0.162 A 
HETATM    7  N15 UNL     1      39.185  -5.204  19.094  1.00  0.00    -0.080 NA
HETATM    8  N16 UNL     1      40.163  -6.712  20.682  1.00  0.00    -0.177 N 
ATOM      9  H16 UNL     1      40.262  -7.422  19.956  1.00  0.00     0.185 HD
HETATM   10  C14 UNL     1      40.566  -6.957  21.937  1.00  0.00     0.678 A 
HETATM   11  N18 UNL     1      40.447  -6.036  22.904  1.00  0.00    -0.174 N 
ATOM     12  H18 UNL     1      40.770  -6.268  23.843  1.00  0.00     0.186 HD
HETATM   13  C15 UNL     1      39.920  -4.821  22.684  1.00  0.00     0.157 A 
ENDROOT
BRANCH   2  14
HETATM   14  C5  UNL     1      38.651  -1.424  22.985  1.00  0.00     0.135 A 
HETATM   15  N5  UNL     1      39.487  -0.415  23.263  1.00  0.00    -0.280 N 
HETATM   16  N6  UNL     1      39.077   0.790  23.542  1.00  0.00    -0.131 N 
ATOM     17  H5  UNL     1      40.490  -0.598  23.256  1.00  0.00     0.188 HD
HETATM   18  C6  UNL     1      37.769   1.084  23.563  1.00  0.00     0.701 A 
ATOM     19  H6  UNL     1      39.761   1.518  23.747  1.00  0.00     0.205 HD
HETATM   20  N12 UNL     1      36.903   0.119  23.294  1.00  0.00    -0.175 N 
HETATM   21  C11 UNL     1      37.298  -1.148  22.999  1.00  0.00     0.163 A 
ATOM     22  H12 UNL     1      35.905   0.333  23.309  1.00  0.00     0.185 HD
HETATM   23  N13 UNL     1      36.338  -2.155  22.714  1.00  0.00    -0.080 NA
BRANCH  18  24
HETATM   24  N7  UNL     1      37.395   2.458  23.883  1.00  0.00    -0.172 N 
BRANCH  24  25
HETATM   25  C7  UNL     1      37.537   2.823  25.251  1.00  0.00     0.174 C 
BRANCH  25  26
HETATM   26  C8  UNL     1      36.637   3.920  25.709  1.00  0.00     0.185 C 
BRANCH  26  27
HETATM   27  O2  UNL     1      35.335   3.404  25.728  1.00  0.00    -0.399 OA
ATOM     28  H2  UNL     1      34.788   4.043  26.170  1.00  0.00     0.209 HD
ENDBRANCH  26  27
ENDBRANCH  25  26
ENDBRANCH  24  25
BRANCH  24  29
HETATM   29  C9  UNL     1      37.000   3.269  22.795  1.00  0.00     0.247 C 
BRANCH  29  30
HETATM   30  N8  UNL     1      37.824   3.179  21.638  1.00  0.00    -0.187 N 
HETATM   31  N9  UNL     1      39.050   3.616  21.293  1.00  0.00    -0.250 N 
HETATM   32  C10 UNL     1      38.948   3.113  20.060  1.00  0.00     0.225 A 
ATOM     33  H9  UNL     1      39.779   4.133  21.785  1.00  0.00     0.192 HD
HETATM   34  N10 UNL     1      39.759   3.044  18.868  1.00  0.00    -0.060 NA
HETATM   35  N11 UNL     1      37.735   2.687  20.421  1.00  0.00    -0.250 N 
ATOM     36  H11 UNL     1      37.006   2.169  19.931  1.00  0.00     0.192 HD
ENDBRANCH  29  30
ENDBRANCH  24  29
ENDBRANCH  18  24
ENDBRANCH   2  14
BRANCH   1  37
HETATM   37  C3  UNL     1      40.001  -3.656  24.828  1.00  0.00     0.283 C 
BRANCH  37  38
HETATM   38  C2  UNL     1      41.431  -3.228  25.013  1.00  0.00     0.115 A 
HETATM   39  N3  UNL     1      41.875  -1.983  25.134  1.00  0.00    -0.280 N 
HETATM   40  N2  UNL     1      43.210  -1.987  25.290  1.00  0.00    -0.019 NA
ATOM     41  H3  UNL     1      41.291  -1.148  25.113  1.00  0.00     0.184 HD
HETATM   42  N1  UNL     1      43.609  -3.265  25.265  1.00  0.00    -0.265 N 
HETATM   43  C1  UNL     1      44.969  -3.763  25.394  1.00  0.00     0.176 C 
HETATM   44  C16 UNL     1      42.514  -4.059  25.094  1.00  0.00     0.159 A 
HETATM   45  N19 UNL     1      42.470  -5.476  25.014  1.00  0.00    -0.079 NA
ENDBRANCH  37  38
BRANCH  37  46
HETATM   46  O1  UNL     1      39.764  -4.867  25.463  1.00  0.00    -0.370 OA
ATOM     47  H1  UNL     1      39.294  -4.733  26.278  1.00  0.00     0.212 HD
ENDBRANCH  37  46
ENDBRANCH   1  37
BRANCH  10  48
HETATM   48  N17 UNL     1      41.078  -8.090  22.224  1.00  0.00    -0.234 N 
ATOM     49 2H17 UNL     1      40.544  -8.937  22.025  1.00  0.00     0.174 HD
ATOM     50 1H17 UNL     1      42.005  -8.132  22.645  1.00  0.00     0.174 HD
ENDBRANCH  10  48
TORSDOF 11
ENDMDL
MODEL 4
REMARK VINA RESULT: -6.611863460      2.226      3.263
REMARK  11 active torsions:
REMARK  status: ('A' for Active; 'I' for Inactive)
REMARK    1  A    between atoms: C2_6  and  C3_7 
REMARK    2  A    between atoms: C3_7  and  O1_8 
REMARK    3  A    between atoms: C3_7  and  N4_10 
REMARK    4  A    between atoms: C4_11  and  C5_12 
REMARK    5  A    between atoms: C6_17  and  N7_18 
REMARK    6  A    between atoms: N7_18  and  C7_19 
REMARK    7  A    between atoms: N7_18  and  C9_23 
REMARK    8  A    between atoms: C7_19  and  C8_20 
REMARK    9  A    between atoms: C8_20  and  O2_21 
REMARK   10  A    between atoms: C9_23  and  N8_24 
REMARK   11  A    between atoms: C14_42  and  N17_43 
ROOT
HETATM    1  N4  UNL     1      38.854   1.045  23.295  1.00  0.00    -0.281 N 
HETATM    2  C4  UNL     1      40.006   0.880  22.663  1.00  0.00     0.144 A 
HETATM    3  N14 UNL     1      40.120   1.946  21.818  1.00  0.00    -0.334 N 
ATOM      4  H14 UNL     1      40.908   2.101  21.191  1.00  0.00     0.168 HD
HETATM    5  C12 UNL     1      39.077   2.753  21.917  1.00  0.00     0.121 A 
HETATM    6  C13 UNL     1      38.712   3.944  21.300  1.00  0.00     0.162 A 
HETATM    7  N15 UNL     1      39.582   4.497  20.330  1.00  0.00    -0.080 NA
HETATM    8  N16 UNL     1      37.560   4.551  21.620  1.00  0.00    -0.177 N 
ATOM      9  H16 UNL     1      37.289   5.425  21.168  1.00  0.00     0.185 HD
HETATM   10  C14 UNL     1      36.771   3.986  22.545  1.00  0.00     0.678 A 
HETATM   11  N18 UNL     1      37.110   2.837  23.147  1.00  0.00    -0.174 N 
ATOM     12  H18 UNL     1      36.477   2.444  23.843  1.00  0.00     0.186 HD
HETATM   13  C15 UNL     1      38.249   2.183  22.869  1.00  0.00     0.157 A 
ENDROOT
BRANCH   2  14
HETATM   14  C5  UNL     1      41.027  -0.165  22.757  1.00  0.00     0.135 A 
HETATM   15  N5  UNL     1      40.937  -1.333  22.109  1.00  0.00    -0.280 N 
HETATM   16  N6  UNL     1      41.843  -2.264  22.193  1.00  0.00    -0.131 N 
ATOM     17  H5  UNL     1      40.120  -1.502  21.522  1.00  0.00     0.188 HD
HETATM   18  C6  UNL     1      42.937  -2.093  22.951  1.00  0.00     0.701 A 
ATOM     19  H6  UNL     1      41.720  -3.135  21.676  1.00  0.00     0.205 HD
HETATM   20  N12 UNL     1      43.072  -0.953  23.612  1.00  0.00    -0.175 N 
HETATM   21  C11 UNL     1      42.144   0.039  23.544  1.00  0.00     0.163 A 
ATOM     22  H12 UNL     1      43.900  -0.814  24.191  1.00  0.00     0.185 HD
HETATM   23  N13 UNL     1      42.326   1.247  24.266  1.00  0.00    -0.080 NA
BRANCH  18  24
HETATM   24  N7  UNL     1      43.905  -3.184  22.989  1.00  0.00    -0.172 N 
BRANCH  24  25
HETATM   25  C7  UNL     1      45.214  -2.850  22.542  1.00  0.00     0.174 C 
BRANCH  25  26
HETATM   26  C8  UNL     1      46.254  -2.807  23.610  1.00  0.00     0.185 C 
BRANCH  26  27
HETATM   27  O2  UNL     1      45.661  -2.228  24.740  1.00  0.00    -0.399 OA
ATOM     28  H2  UNL     1      46.307  -2.250  25.436  1.00  0.00     0.209 HD
ENDBRANCH  26  27
ENDBRANCH  25  26
ENDBRANCH  24  25
BRANCH  24  29
HETATM   29  C9  UNL     1      43.445  -4.412  23.518  1.00  0.00     0.247 C 
BRANCH  29  30
HETATM   30  N8  UNL     1      42.862  -4.335  24.814  1.00  0.00    -0.187 N 
HETATM   31  N9  UNL     1      43.303  -4.050  26.054  1.00  0.00    -0.250 N 
HETATM   32  C10 UNL     1      42.104  -4.271  26.597  1.00  0.00     0.225 A 
ATOM     33  H9  UNL     1      44.208  -3.772  26.433  1.00  0.00     0.192 HD
HETATM   34  N10 UNL     1      41.506  -4.231  27.911  1.00  0.00    -0.060 NA
HETATM   35  N11 UNL     1      41.684  -4.549  25.360  1.00  0.00    -0.250 N 
ATOM     36  H11 UNL     1      40.779  -4.826  24.979  1.00  0.00     0.192 HD
ENDBRANCH  29  30
ENDBRANCH  24  29
ENDBRANCH  18  24
ENDBRANCH   2  14
BRANCH   1  37
HETATM   37  C3  UNL     1      38.247   0.197  24.289  1.00  0.00     0.283 C 
BRANCH  37  38
HETATM   38  C2  UNL     1      37.577  -0.982  23.639  1.00  0.00     0.115 A 
HETATM   39  N3  UNL     1      36.438  -0.968  22.956  1.00  0.00    -0.280 N 
HETATM   40  N2  UNL     1      36.152  -2.207  22.520  1.00  0.00    -0.019 NA
ATOM     41  H3  UNL     1      35.866  -0.141  22.788  1.00  0.00     0.184 HD
HETATM   42  N1  UNL     1      37.136  -3.012  22.939  1.00  0.00    -0.265 N 
HETATM   43  C1  UNL     1      37.257  -4.443  22.708  1.00  0.00     0.176 C 
HETATM   44  C16 UNL     1      38.037  -2.269  23.641  1.00  0.00     0.159 A 
HETATM   45  N19 UNL     1      39.235  -2.712  24.262  1.00  0.00    -0.079 NA
ENDBRANCH  37  38
BRANCH  37  46
HETATM   46  O1  UNL     1      37.351   0.897  25.083  1.00  0.00    -0.370 OA
ATOM     47  H1  UNL     1      37.736   1.102  25.927  1.00  0.00     0.212 HD
ENDBRANCH  37  46
ENDBRANCH   1  37
BRANCH  10  48
HETATM   48  N17 UNL     1      35.671   4.549  22.863  1.00  0.00    -0.234 N 
ATOM     49 2H17 UNL     1      35.616   5.062  23.744  1.00  0.00     0.174 HD
ATOM     50 1H17 UNL     1      34.870   4.476  22.238  1.00  0.00     0.174 HD
ENDBRANCH  10  48
TORSDOF 11
ENDMDL
MODEL 5
REMARK VINA RESULT: -6.565855328      3.131      7.923
REMARK  11 active torsions:
REMARK  status: ('A' for Active; 'I' for Inactive)
REMARK    1  A    between atoms: C2_6  and  C3_7 
REMARK    2  A    between atoms: C3_7  and  O1_8 
REMARK    3  A    between atoms: C3_7  and  N4_10 
REMARK    4  A    between atoms: C4_11  and  C5_12 
REMARK    5  A    between atoms: C6_17  and  N7_18 
REMARK    6  A    between atoms: N7_18  and  C7_19 
REMARK    7  A    between atoms: N7_18  and  C9_23 
REMARK    8  A    between atoms: C7_19  and  C8_20 
REMARK    9  A    between atoms: C8_20  and  O2_21 
REMARK   10  A    between atoms: C9_23  and  N8_24 
REMARK   11  A    between atoms: C14_42  and  N17_43 
ROOT
HETATM    1  N4  UNL     1      40.453  -3.858  22.613  1.00  0.00    -0.281 N 
HETATM    2  C4  UNL     1      39.298  -3.263  22.360  1.00  0.00     0.144 A 
HETATM    3  N14 UNL     1      38.546  -4.186  21.692  1.00  0.00    -0.334 N 
ATOM      4  H14 UNL     1      37.597  -4.021  21.359  1.00  0.00     0.168 HD
HETATM    5  C12 UNL     1      39.206  -5.320  21.532  1.00  0.00     0.121 A 
HETATM    6  C13 UNL     1      38.903  -6.541  20.940  1.00  0.00     0.162 A 
HETATM    7  N15 UNL     1      37.631  -6.706  20.343  1.00  0.00    -0.080 NA
HETATM    8  N16 UNL     1      39.802  -7.537  20.936  1.00  0.00    -0.177 N 
ATOM      9  H16 UNL     1      39.583  -8.434  20.503  1.00  0.00     0.185 HD
HETATM   10  C14 UNL     1      40.993  -7.330  21.516  1.00  0.00     0.678 A 
HETATM   11  N18 UNL     1      41.299  -6.157  22.088  1.00  0.00    -0.174 N 
ATOM     12  H18 UNL     1      42.218  -6.045  22.514  1.00  0.00     0.186 HD
HETATM   13  C15 UNL     1      40.442  -5.124  22.123  1.00  0.00     0.157 A 
ENDROOT
BRANCH   2  14
HETATM   14  C5  UNL     1      38.804  -1.921  22.676  1.00  0.00     0.135 A 
HETATM   15  N5  UNL     1      39.265  -0.815  22.077  1.00  0.00    -0.280 N 
HETATM   16  N6  UNL     1      38.828   0.379  22.358  1.00  0.00    -0.131 N 
ATOM     17  H5  UNL     1      39.992  -0.913  21.369  1.00  0.00     0.188 HD
HETATM   18  C6  UNL     1      37.872   0.562  23.281  1.00  0.00     0.701 A 
ATOM     19  H6  UNL     1      39.218   1.185  21.869  1.00  0.00     0.205 HD
HETATM   20  N12 UNL     1      37.383  -0.502  23.900  1.00  0.00    -0.175 N 
HETATM   21  C11 UNL     1      37.818  -1.761  23.629  1.00  0.00     0.163 A 
ATOM     22  H12 UNL     1      36.657  -0.372  24.604  1.00  0.00     0.185 HD
HETATM   23  N13 UNL     1      37.267  -2.876  24.314  1.00  0.00    -0.080 NA
BRANCH  18  24
HETATM   24  N7  UNL     1      37.438   1.932  23.533  1.00  0.00    -0.172 N 
BRANCH  24  25
HETATM   25  C7  UNL     1      36.132   2.062  24.085  1.00  0.00     0.174 C 
BRANCH  25  26
HETATM   26  C8  UNL     1      36.091   2.364  25.546  1.00  0.00     0.185 C 
BRANCH  26  27
HETATM   27  O2  UNL     1      36.881   1.402  26.188  1.00  0.00    -0.399 OA
ATOM     28  H2  UNL     1      37.422   1.862  26.819  1.00  0.00     0.209 HD
ENDBRANCH  26  27
ENDBRANCH  25  26
ENDBRANCH  24  25
BRANCH  24  29
HETATM   29  C9  UNL     1      38.380   2.950  23.260  1.00  0.00     0.247 C 
BRANCH  29  30
HETATM   30  N8  UNL     1      39.383   3.131  24.253  1.00  0.00    -0.187 N 
HETATM   31  N9  UNL     1      40.501   3.872  24.369  1.00  0.00    -0.250 N 
HETATM   32  C10 UNL     1      40.789   3.360  25.568  1.00  0.00     0.225 A 
ATOM     33  H9  UNL     1      40.955   4.562  23.770  1.00  0.00     0.192 HD
HETATM   34  N10 UNL     1      41.819   3.508  26.569  1.00  0.00    -0.060 NA
HETATM   35  N11 UNL     1      39.677   2.634  25.436  1.00  0.00    -0.250 N 
ATOM     36  H11 UNL     1      39.221   1.944  26.034  1.00  0.00     0.192 HD
ENDBRANCH  29  30
ENDBRANCH  24  29
ENDBRANCH  18  24
ENDBRANCH   2  14
BRANCH   1  37
HETATM   37  C3  UNL     1      41.608  -3.323  23.289  1.00  0.00     0.283 C 
BRANCH  37  38
HETATM   38  C2  UNL     1      41.461  -3.465  24.779  1.00  0.00     0.115 A 
HETATM   39  N3  UNL     1      40.395  -3.914  25.430  1.00  0.00    -0.280 N 
HETATM   40  N2  UNL     1      40.630  -3.905  26.753  1.00  0.00    -0.019 NA
ATOM     41  H3  UNL     1      39.526  -4.220  24.992  1.00  0.00     0.184 HD
HETATM   42  N1  UNL     1      41.873  -3.440  26.932  1.00  0.00    -0.265 N 
HETATM   43  C1  UNL     1      42.565  -3.251  28.197  1.00  0.00     0.176 C 
HETATM   44  C16 UNL     1      42.412  -3.159  25.712  1.00  0.00     0.159 A 
HETATM   45  N19 UNL     1      43.707  -2.650  25.429  1.00  0.00    -0.079 NA
ENDBRANCH  37  38
BRANCH  37  46
HETATM   46  O1  UNL     1      41.840  -2.000  22.941  1.00  0.00    -0.370 OA
ATOM     47  H1  UNL     1      41.830  -1.893  21.997  1.00  0.00     0.212 HD
ENDBRANCH  37  46
ENDBRANCH   1  37
BRANCH  10  48
HETATM   48  N17 UNL     1      41.860  -8.265  21.523  1.00  0.00    -0.234 N 
ATOM     49 2H17 UNL     1      42.740  -8.118  22.019  1.00  0.00     0.174 HD
ATOM     50 1H17 UNL     1      41.663  -9.139  21.036  1.00  0.00     0.174 HD
ENDBRANCH  10  48
TORSDOF 11
ENDMDL
