MODEL 1
REMARK VINA RESULT: -7.037663365      0.000      0.000
REMARK  15 active torsions:
REMARK  status: ('A' for Active; 'I' for Inactive)
REMARK    1  A    between atoms: N1_1  and  C1_4 
REMARK    2  A    between atoms: C2_10  and  N4_11 
REMARK    3  A    between atoms: N4_11  and  C3_13 
REMARK    4  A    between atoms: C5_15  and  O2_16 
REMARK    5  A    between atoms: N5_18  and  C6_19 
REMARK    6  A    between atoms: C7_22  and  C8_23 
REMARK    7  A    between atoms: N7_25  and  C10_26 
REMARK    8  A    between atoms: C11_32  and  N10_33 
REMARK    9  A    between atoms: N14_42  and  C12_43 
REMARK   10  A    between atoms: C12_43  and  C13_44 
REMARK   11  A    between atoms: C13_44  and  O4_45 
REMARK   12  A    between atoms: C13_44  and  C14_47 
REMARK   13  A    between atoms: C14_47  and  O5_48 
REMARK   14  A    between atoms: C14_47  and  C15_50 
REMARK   15  A    between atoms: C15_50  and  O6_51 
ROOT
HETATM    1  C6  UNL     1      39.363  -3.019  23.983  1.00  0.00     0.724 A 
HETATM    2  N6  UNL     1      39.301  -1.658  24.086  1.00  0.00    -0.170 N 
ATOM      3  H6  UNL     1      39.944  -1.079  24.626  1.00  0.00     0.186 HD
HETATM    4  C7  UNL     1      38.263  -1.199  23.366  1.00  0.00     0.166 A 
HETATM    5  N13 UNL     1      37.701  -2.273  22.831  1.00  0.00    -0.266 N 
ATOM      6  H13 UNL     1      36.882  -2.258  22.223  1.00  0.00     0.189 HD
HETATM    7  N14 UNL     1      38.359  -3.382  23.198  1.00  0.00    -0.118 N 
ENDROOT
BRANCH   1   8
HETATM    8  N5  UNL     1      40.312  -3.878  24.598  1.00  0.00    -0.060 N 
HETATM    9  C5  UNL     1      41.345  -4.461  23.944  1.00  0.00     0.183 A 
HETATM   10  C4  UNL     1      42.076  -5.230  24.824  1.00  0.00     0.108 A 
HETATM   11  C3  UNL     1      41.451  -5.097  26.044  1.00  0.00     0.126 A 
HETATM   12  N15 UNL     1      40.399  -4.277  25.854  1.00  0.00    -0.262 N 
ATOM     13  H15 UNL     1      39.750  -3.997  26.589  1.00  0.00     0.190 HD
BRANCH   9  14
HETATM   14  O2  UNL     1      41.662  -4.336  22.597  1.00  0.00    -0.344 OA
ATOM     15  H2  UNL     1      41.104  -4.657  21.898  1.00  0.00     0.219 HD
ENDBRANCH   9  14
BRANCH  11  16
HETATM   16  N4  UNL     1      41.846  -5.673  27.123  1.00  0.00    -0.323 N 
ATOM     17  H4  UNL     1      42.057  -6.670  27.116  1.00  0.00     0.169 HD
BRANCH  16  18
HETATM   18  C2  UNL     1      41.989  -4.935  28.319  1.00  0.00     0.175 A 
HETATM   19  C1  UNL     1      41.267  -5.178  29.469  1.00  0.00     0.167 A 
HETATM   20  N2  UNL     1      41.681  -4.279  30.375  1.00  0.00    -0.222 N 
HETATM   21  O1  UNL     1      42.589  -3.540  29.823  1.00  0.00    -0.153 OA
ATOM     22  H2  UNL     1      41.340  -4.192  31.333  1.00  0.00     0.198 HD
HETATM   23  N3  UNL     1      42.807  -3.895  28.592  1.00  0.00    -0.222 N 
ATOM     24  H3  UNL     1      43.474  -3.468  27.950  1.00  0.00     0.198 HD
BRANCH  19  25
HETATM   25  N1  UNL     1      40.371  -6.096  29.620  1.00  0.00    -0.381 N 
ATOM     26  H12 UNL     1      39.600  -6.290  28.982  1.00  0.00     0.157 HD
ATOM     27  H11 UNL     1      40.288  -6.765  30.386  1.00  0.00     0.157 HD
ENDBRANCH  19  25
ENDBRANCH  16  18
ENDBRANCH  11  16
ENDBRANCH   1   8
BRANCH   7  28
HETATM   28  C12 UNL     1      37.979  -4.690  22.769  1.00  0.00     0.202 C 
BRANCH  28  29
HETATM   29  C13 UNL     1      38.271  -4.917  21.300  1.00  0.00     0.169 C 
BRANCH  29  30
HETATM   30  O4  UNL     1      39.088  -3.962  20.737  1.00  0.00    -0.391 OA
ATOM     31  H4  UNL     1      39.027  -3.911  19.790  1.00  0.00     0.210 HD
ENDBRANCH  29  30
BRANCH  29  32
HETATM   32  C14 UNL     1      38.916  -6.285  21.091  1.00  0.00     0.172 C 
BRANCH  32  33
HETATM   33  O5  UNL     1      39.618  -6.689  22.231  1.00  0.00    -0.391 OA
ATOM     34  H5  UNL     1      40.555  -6.597  22.106  1.00  0.00     0.210 HD
ENDBRANCH  32  33
BRANCH  32  35
HETATM   35  C15 UNL     1      37.861  -7.342  20.839  1.00  0.00     0.198 C 
BRANCH  35  36
HETATM   36  O6  UNL     1      37.185  -6.936  19.665  1.00  0.00    -0.398 OA
ATOM     37  H6  UNL     1      37.795  -6.380  19.196  1.00  0.00     0.209 HD
ENDBRANCH  35  36
ENDBRANCH  32  35
ENDBRANCH  29  32
ENDBRANCH  28  29
ENDBRANCH   7  28
BRANCH   4  38
HETATM   38  C8  UNL     1      37.895   0.204  23.245  1.00  0.00     0.113 A 
HETATM   39  C9  UNL     1      37.285   0.910  24.260  1.00  0.00     0.154 A 
HETATM   40  N7  UNL     1      37.095   2.164  23.807  1.00  0.00    -0.229 N 
HETATM   41  N11 UNL     1      37.557   2.255  22.575  1.00  0.00    -0.234 N 
HETATM   42  N12 UNL     1      38.047   1.052  22.234  1.00  0.00    -0.281 N 
ATOM     43  H11 UNL     1      37.544   3.088  21.987  1.00  0.00     0.209 HD
ATOM     44  H12 UNL     1      38.471   0.825  21.334  1.00  0.00     0.188 HD
BRANCH  40  45
HETATM   45  C10 UNL     1      36.477   3.187  24.602  1.00  0.00     0.195 A 
HETATM   46  N8  UNL     1      36.420   3.264  25.950  1.00  0.00    -0.220 N 
HETATM   47  O3  UNL     1      35.775   4.338  26.280  1.00  0.00    -0.153 OA
ATOM     48  H8  UNL     1      36.818   2.587  26.602  1.00  0.00     0.198 HD
HETATM   49  N9  UNL     1      35.387   5.002  25.233  1.00  0.00    -0.222 N 
HETATM   50  C11 UNL     1      35.809   4.310  24.160  1.00  0.00     0.169 A 
ATOM     51  H9  UNL     1      34.863   5.877  25.227  1.00  0.00     0.198 HD
BRANCH  50  52
HETATM   52  N10 UNL     1      35.628   4.631  22.925  1.00  0.00    -0.381 N 
ATOM     53 2H10 UNL     1      36.262   5.179  22.343  1.00  0.00     0.157 HD
ATOM     54 1H10 UNL     1      34.817   4.374  22.363  1.00  0.00     0.157 HD
ENDBRANCH  50  52
ENDBRANCH  40  45
ENDBRANCH   4  38
TORSDOF 15
ENDMDL
MODEL 2
REMARK VINA RESULT: -6.810731818      1.538      1.899
REMARK  15 active torsions:
REMARK  status: ('A' for Active; 'I' for Inactive)
REMARK    1  A    between atoms: N1_1  and  C1_4 
REMARK    2  A    between atoms: C2_10  and  N4_11 
REMARK    3  A    between atoms: N4_11  and  C3_13 
REMARK    4  A    between atoms: C5_15  and  O2_16 
REMARK    5  A    between atoms: N5_18  and  C6_19 
REMARK    6  A    between atoms: C7_22  and  C8_23 
REMARK    7  A    between atoms: N7_25  and  C10_26 
REMARK    8  A    between atoms: C11_32  and  N10_33 
REMARK    9  A    between atoms: N14_42  and  C12_43 
REMARK   10  A    between atoms: C12_43  and  C13_44 
REMARK   11  A    between atoms: C13_44  and  O4_45 
REMARK   12  A    between atoms: C13_44  and  C14_47 
REMARK   13  A    between atoms: C14_47  and  O5_48 
REMARK   14  A    between atoms: C14_47  and  C15_50 
REMARK   15  A    between atoms: C15_50  and  O6_51 
ROOT
HETATM    1  C6  UNL     1      40.222  -2.728  24.318  1.00  0.00     0.724 A 
HETATM    2  N6  UNL     1      39.716  -1.471  24.489  1.00  0.00    -0.170 N 
ATOM      3  H6  UNL     1      39.820  -0.905  25.331  1.00  0.00     0.186 HD
HETATM    4  C7  UNL     1      39.061  -1.093  23.377  1.00  0.00     0.166 A 
HETATM    5  N13 UNL     1      39.170  -2.113  22.539  1.00  0.00    -0.266 N 
ATOM      6  H13 UNL     1      38.776  -2.136  21.599  1.00  0.00     0.189 HD
HETATM    7  N14 UNL     1      39.871  -3.110  23.098  1.00  0.00    -0.118 N 
ENDROOT
BRANCH   1   8
HETATM    8  N5  UNL     1      40.972  -3.482  25.259  1.00  0.00    -0.060 N 
HETATM    9  C5  UNL     1      42.023  -2.993  25.960  1.00  0.00     0.183 A 
HETATM   10  C4  UNL     1      42.527  -3.976  26.785  1.00  0.00     0.108 A 
HETATM   11  C3  UNL     1      41.744  -5.087  26.563  1.00  0.00     0.126 A 
HETATM   12  N15 UNL     1      40.828  -4.738  25.640  1.00  0.00    -0.262 N 
ATOM     13  H15 UNL     1      40.110  -5.367  25.279  1.00  0.00     0.190 HD
BRANCH   9  14
HETATM   14  O2  UNL     1      42.550  -1.709  25.893  1.00  0.00    -0.344 OA
ATOM     15  H2  UNL     1      42.039  -0.948  25.645  1.00  0.00     0.219 HD
ENDBRANCH   9  14
BRANCH  11  16
HETATM   16  N4  UNL     1      41.909  -6.215  27.157  1.00  0.00    -0.323 N 
ATOM     17  H4  UNL     1      42.577  -6.890  26.785  1.00  0.00     0.169 HD
BRANCH  16  18
HETATM   18  C2  UNL     1      41.172  -6.527  28.321  1.00  0.00     0.175 A 
HETATM   19  C1  UNL     1      41.586  -6.224  29.602  1.00  0.00     0.167 A 
HETATM   20  N2  UNL     1      40.628  -6.676  30.427  1.00  0.00    -0.222 N 
HETATM   21  O1  UNL     1      39.698  -7.216  29.706  1.00  0.00    -0.153 OA
ATOM     22  H2  UNL     1      40.632  -6.607  31.444  1.00  0.00     0.198 HD
HETATM   23  N3  UNL     1      39.979  -7.150  28.440  1.00  0.00    -0.222 N 
ATOM     24  H3  UNL     1      39.405  -7.503  27.675  1.00  0.00     0.198 HD
BRANCH  19  25
HETATM   25  N1  UNL     1      42.683  -5.624  29.921  1.00  0.00    -0.381 N 
ATOM     26  H12 UNL     1      42.817  -4.614  29.977  1.00  0.00     0.157 HD
ATOM     27  H11 UNL     1      43.579  -6.048  30.164  1.00  0.00     0.157 HD
ENDBRANCH  19  25
ENDBRANCH  16  18
ENDBRANCH  11  16
ENDBRANCH   1   8
BRANCH   7  28
HETATM   28  C12 UNL     1      40.149  -4.339  22.424  1.00  0.00     0.202 C 
BRANCH  28  29
HETATM   29  C13 UNL     1      38.934  -5.240  22.353  1.00  0.00     0.169 C 
BRANCH  29  30
HETATM   30  O4  UNL     1      38.010  -5.015  23.349  1.00  0.00    -0.391 OA
ATOM     31  H4  UNL     1      37.136  -5.324  23.143  1.00  0.00     0.210 HD
ENDBRANCH  29  30
BRANCH  29  32
HETATM   32  C14 UNL     1      38.235  -5.084  21.005  1.00  0.00     0.172 C 
BRANCH  32  33
HETATM   33  O5  UNL     1      38.997  -4.303  20.130  1.00  0.00    -0.391 OA
ATOM     34  H5  UNL     1      38.971  -4.654  19.247  1.00  0.00     0.210 HD
ENDBRANCH  32  33
BRANCH  32  35
HETATM   35  C15 UNL     1      38.058  -6.431  20.334  1.00  0.00     0.198 C 
BRANCH  35  36
HETATM   36  O6  UNL     1      37.259  -7.195  21.215  1.00  0.00    -0.398 OA
ATOM     37  H6  UNL     1      37.863  -7.740  21.704  1.00  0.00     0.209 HD
ENDBRANCH  35  36
ENDBRANCH  32  35
ENDBRANCH  29  32
ENDBRANCH  28  29
ENDBRANCH   7  28
BRANCH   4  38
HETATM   38  C8  UNL     1      38.397   0.190  23.204  1.00  0.00     0.113 A 
HETATM   39  C9  UNL     1      37.801   0.873  24.243  1.00  0.00     0.154 A 
HETATM   40  N7  UNL     1      37.292   2.008  23.727  1.00  0.00    -0.229 N 
HETATM   41  N11 UNL     1      37.547   2.049  22.434  1.00  0.00    -0.234 N 
HETATM   42  N12 UNL     1      38.225   0.933  22.117  1.00  0.00    -0.281 N 
ATOM     43  H11 UNL     1      37.278   2.793  21.790  1.00  0.00     0.209 HD
ATOM     44  H12 UNL     1      38.557   0.694  21.183  1.00  0.00     0.188 HD
BRANCH  40  45
HETATM   45  C10 UNL     1      36.593   2.973  24.526  1.00  0.00     0.195 A 
HETATM   46  N8  UNL     1      36.472   3.001  25.872  1.00  0.00    -0.220 N 
HETATM   47  O3  UNL     1      35.764   4.033  26.206  1.00  0.00    -0.153 OA
ATOM     48  H8  UNL     1      36.873   2.322  26.519  1.00  0.00     0.198 HD
HETATM   49  N9  UNL     1      35.391   4.714  25.165  1.00  0.00    -0.222 N 
HETATM   50  C11 UNL     1      35.893   4.079  24.090  1.00  0.00     0.169 A 
ATOM     51  H9  UNL     1      34.827   5.564  25.163  1.00  0.00     0.198 HD
BRANCH  50  52
HETATM   52  N10 UNL     1      35.751   4.433  22.859  1.00  0.00    -0.381 N 
ATOM     53 2H10 UNL     1      36.283   4.081  22.064  1.00  0.00     0.157 HD
ATOM     54 1H10 UNL     1      35.080   5.121  22.518  1.00  0.00     0.157 HD
ENDBRANCH  50  52
ENDBRANCH  40  45
ENDBRANCH   4  38
TORSDOF 15
ENDMDL
MODEL 3
REMARK VINA RESULT: -6.765300488      2.617      5.937
REMARK  15 active torsions:
REMARK  status: ('A' for Active; 'I' for Inactive)
REMARK    1  A    between atoms: N1_1  and  C1_4 
REMARK    2  A    between atoms: C2_10  and  N4_11 
REMARK    3  A    between atoms: N4_11  and  C3_13 
REMARK    4  A    between atoms: C5_15  and  O2_16 
REMARK    5  A    between atoms: N5_18  and  C6_19 
REMARK    6  A    between atoms: C7_22  and  C8_23 
REMARK    7  A    between atoms: N7_25  and  C10_26 
REMARK    8  A    between atoms: C11_32  and  N10_33 
REMARK    9  A    between atoms: N14_42  and  C12_43 
REMARK   10  A    between atoms: C12_43  and  C13_44 
REMARK   11  A    between atoms: C13_44  and  O4_45 
REMARK   12  A    between atoms: C13_44  and  C14_47 
REMARK   13  A    between atoms: C14_47  and  O5_48 
REMARK   14  A    between atoms: C14_47  and  C15_50 
REMARK   15  A    between atoms: C15_50  and  O6_51 
ROOT
HETATM    1  C6  UNL     1      39.091  -2.380  23.459  1.00  0.00     0.724 A 
HETATM    2  N6  UNL     1      38.528  -1.135  23.419  1.00  0.00    -0.170 N 
ATOM      3  H6  UNL     1      37.621  -0.913  23.011  1.00  0.00     0.186 HD
HETATM    4  C7  UNL     1      39.355  -0.249  24.001  1.00  0.00     0.166 A 
HETATM    5  N13 UNL     1      40.409  -0.950  24.391  1.00  0.00    -0.266 N 
ATOM      6  H13 UNL     1      41.220  -0.560  24.870  1.00  0.00     0.189 HD
HETATM    7  N14 UNL     1      40.260  -2.243  24.068  1.00  0.00    -0.118 N 
ENDROOT
BRANCH   1   8
HETATM    8  N5  UNL     1      38.537  -3.583  22.948  1.00  0.00    -0.060 N 
HETATM    9  C5  UNL     1      37.227  -3.749  22.646  1.00  0.00     0.183 A 
HETATM   10  C4  UNL     1      37.019  -5.027  22.173  1.00  0.00     0.108 A 
HETATM   11  C3  UNL     1      38.253  -5.639  22.197  1.00  0.00     0.126 A 
HETATM   12  N15 UNL     1      39.128  -4.731  22.670  1.00  0.00    -0.262 N 
ATOM     13  H15 UNL     1      40.124  -4.908  22.797  1.00  0.00     0.190 HD
BRANCH   9  14
HETATM   14  O2  UNL     1      36.212  -2.809  22.776  1.00  0.00    -0.344 OA
ATOM     15  H2  UNL     1      35.859  -2.317  22.044  1.00  0.00     0.219 HD
ENDBRANCH   9  14
BRANCH  11  16
HETATM   16  N4  UNL     1      38.463  -6.851  21.824  1.00  0.00    -0.323 N 
ATOM     17  H4  UNL     1      39.095  -7.444  22.362  1.00  0.00     0.169 HD
BRANCH  16  18
HETATM   18  C2  UNL     1      37.824  -7.370  20.676  1.00  0.00     0.175 A 
HETATM   19  C1  UNL     1      36.784  -8.276  20.712  1.00  0.00     0.167 A 
HETATM   20  N2  UNL     1      36.453  -8.524  19.435  1.00  0.00    -0.222 N 
HETATM   21  O1  UNL     1      37.230  -7.823  18.673  1.00  0.00    -0.153 OA
ATOM     22  H2  UNL     1      35.716  -9.155  19.119  1.00  0.00     0.198 HD
HETATM   23  N3  UNL     1      38.067  -7.116  19.371  1.00  0.00    -0.222 N 
ATOM     24  H3  UNL     1      38.779  -6.486  19.002  1.00  0.00     0.198 HD
BRANCH  19  25
HETATM   25  N1  UNL     1      36.251  -8.774  21.777  1.00  0.00    -0.381 N 
ATOM     26  H12 UNL     1      35.589  -8.300  22.391  1.00  0.00     0.157 HD
ATOM     27  H11 UNL     1      36.399  -9.702  22.173  1.00  0.00     0.157 HD
ENDBRANCH  19  25
ENDBRANCH  16  18
ENDBRANCH  11  16
ENDBRANCH   1   8
BRANCH   7  28
HETATM   28  C12 UNL     1      41.242  -3.237  24.368  1.00  0.00     0.202 C 
BRANCH  28  29
HETATM   29  C13 UNL     1      41.022  -3.864  25.729  1.00  0.00     0.169 C 
BRANCH  29  30
HETATM   30  O4  UNL     1      40.263  -5.012  25.702  1.00  0.00    -0.391 OA
ATOM     31  H4  UNL     1      39.736  -5.147  26.481  1.00  0.00     0.210 HD
ENDBRANCH  29  30
BRANCH  29  32
HETATM   32  C14 UNL     1      42.361  -4.188  26.388  1.00  0.00     0.172 C 
BRANCH  32  33
HETATM   33  O5  UNL     1      43.064  -3.020  26.699  1.00  0.00    -0.391 OA
ATOM     34  H5  UNL     1      43.925  -3.222  27.047  1.00  0.00     0.210 HD
ENDBRANCH  32  33
BRANCH  32  35
HETATM   35  C15 UNL     1      42.151  -4.924  27.694  1.00  0.00     0.198 C 
BRANCH  35  36
HETATM   36  O6  UNL     1      41.020  -4.325  28.294  1.00  0.00    -0.398 OA
ATOM     37  H6  UNL     1      41.285  -4.101  29.179  1.00  0.00     0.209 HD
ENDBRANCH  35  36
ENDBRANCH  32  35
ENDBRANCH  29  32
ENDBRANCH  28  29
ENDBRANCH   7  28
BRANCH   4  38
HETATM   38  C8  UNL     1      39.078   1.174  24.138  1.00  0.00     0.113 A 
HETATM   39  C9  UNL     1      37.841   1.666  24.496  1.00  0.00     0.154 A 
HETATM   40  N7  UNL     1      37.947   3.009  24.526  1.00  0.00    -0.229 N 
HETATM   41  N11 UNL     1      39.179   3.355  24.207  1.00  0.00    -0.234 N 
HETATM   42  N12 UNL     1      39.870   2.227  23.970  1.00  0.00    -0.281 N 
ATOM     43  H11 UNL     1      39.542   4.306  24.150  1.00  0.00     0.209 HD
ATOM     44  H12 UNL     1      40.853   2.187  23.701  1.00  0.00     0.188 HD
BRANCH  40  45
HETATM   45  C10 UNL     1      36.844   3.862  24.863  1.00  0.00     0.195 A 
HETATM   46  N8  UNL     1      36.537   4.378  26.075  1.00  0.00    -0.220 N 
HETATM   47  O3  UNL     1      35.465   5.097  25.963  1.00  0.00    -0.153 OA
ATOM     48  H8  UNL     1      37.063   4.227  26.935  1.00  0.00     0.198 HD
HETATM   49  N9  UNL     1      35.019   5.102  24.743  1.00  0.00    -0.222 N 
HETATM   50  C11 UNL     1      35.859   4.338  24.022  1.00  0.00     0.169 A 
ATOM     51  H9  UNL     1      34.192   5.592  24.399  1.00  0.00     0.198 HD
BRANCH  50  52
HETATM   52  N10 UNL     1      35.770   4.085  22.762  1.00  0.00    -0.381 N 
ATOM     53 2H10 UNL     1      34.981   4.306  22.155  1.00  0.00     0.157 HD
ATOM     54 1H10 UNL     1      36.487   3.624  22.202  1.00  0.00     0.157 HD
ENDBRANCH  50  52
ENDBRANCH  40  45
ENDBRANCH   4  38
TORSDOF 15
ENDMDL
MODEL 4
REMARK VINA RESULT: -6.731255804      2.266      2.869
REMARK  15 active torsions:
REMARK  status: ('A' for Active; 'I' for Inactive)
REMARK    1  A    between atoms: N1_1  and  C1_4 
REMARK    2  A    between atoms: C2_10  and  N4_11 
REMARK    3  A    between atoms: N4_11  and  C3_13 
REMARK    4  A    between atoms: C5_15  and  O2_16 
REMARK    5  A    between atoms: N5_18  and  C6_19 
REMARK    6  A    between atoms: C7_22  and  C8_23 
REMARK    7  A    between atoms: N7_25  and  C10_26 
REMARK    8  A    between atoms: C11_32  and  N10_33 
REMARK    9  A    between atoms: N14_42  and  C12_43 
REMARK   10  A    between atoms: C12_43  and  C13_44 
REMARK   11  A    between atoms: C13_44  and  O4_45 
REMARK   12  A    between atoms: C13_44  and  C14_47 
REMARK   13  A    between atoms: C14_47  and  O5_48 
REMARK   14  A    between atoms: C14_47  and  C15_50 
REMARK   15  A    between atoms: C15_50  and  O6_51 
ROOT
HETATM    1  C6  UNL     1      41.759  -1.474  24.964  1.00  0.00     0.724 A 
HETATM    2  N6  UNL     1      41.461  -0.145  25.070  1.00  0.00    -0.170 N 
ATOM      3  H6  UNL     1      41.967   0.527  25.646  1.00  0.00     0.186 HD
HETATM    4  C7  UNL     1      40.397   0.140  24.299  1.00  0.00     0.166 A 
HETATM    5  N13 UNL     1      40.055  -1.006  23.730  1.00  0.00    -0.266 N 
ATOM      6  H13 UNL     1      39.277  -1.121  23.081  1.00  0.00     0.189 HD
HETATM    7  N14 UNL     1      40.873  -1.992  24.126  1.00  0.00    -0.118 N 
ENDROOT
BRANCH   1   8
HETATM    8  N5  UNL     1      42.808  -2.169  25.623  1.00  0.00    -0.060 N 
HETATM    9  C5  UNL     1      44.038  -2.371  25.090  1.00  0.00     0.183 A 
HETATM   10  C4  UNL     1      44.818  -3.074  25.983  1.00  0.00     0.108 A 
HETATM   11  C3  UNL     1      44.020  -3.297  27.083  1.00  0.00     0.126 A 
HETATM   12  N15 UNL     1      42.826  -2.734  26.816  1.00  0.00    -0.262 N 
ATOM     13  H15 UNL     1      42.032  -2.743  27.457  1.00  0.00     0.190 HD
BRANCH   9  14
HETATM   14  O2  UNL     1      44.490  -1.954  23.845  1.00  0.00    -0.344 OA
ATOM     15  H2  UNL     1      44.950  -2.524  23.239  1.00  0.00     0.219 HD
ENDBRANCH   9  14
BRANCH  11  16
HETATM   16  N4  UNL     1      44.403  -3.929  28.135  1.00  0.00    -0.323 N 
ATOM     17  H4  UNL     1      45.232  -3.617  28.639  1.00  0.00     0.169 HD
BRANCH  16  18
HETATM   18  C2  UNL     1      43.682  -5.053  28.597  1.00  0.00     0.175 A 
HETATM   19  C1  UNL     1      42.832  -5.032  29.684  1.00  0.00     0.167 A 
HETATM   20  N2  UNL     1      42.343  -6.276  29.807  1.00  0.00    -0.222 N 
HETATM   21  O1  UNL     1      42.854  -7.004  28.867  1.00  0.00    -0.153 OA
ATOM     22  H2  UNL     1      41.683  -6.593  30.517  1.00  0.00     0.198 HD
HETATM   23  N3  UNL     1      43.662  -6.315  28.118  1.00  0.00    -0.222 N 
ATOM     24  H3  UNL     1      44.185  -6.664  27.315  1.00  0.00     0.198 HD
BRANCH  19  25
HETATM   25  N1  UNL     1      42.573  -4.005  30.423  1.00  0.00    -0.381 N 
ATOM     26  H12 UNL     1      43.085  -3.123  30.421  1.00  0.00     0.157 HD
ATOM     27  H11 UNL     1      41.831  -3.907  31.117  1.00  0.00     0.157 HD
ENDBRANCH  19  25
ENDBRANCH  16  18
ENDBRANCH  11  16
ENDBRANCH   1   8
BRANCH   7  28
HETATM   28  C12 UNL     1      40.743  -3.340  23.670  1.00  0.00     0.202 C 
BRANCH  28  29
HETATM   29  C13 UNL     1      39.465  -3.988  24.160  1.00  0.00     0.169 C 
BRANCH  29  30
HETATM   30  O4  UNL     1      38.765  -3.230  25.071  1.00  0.00    -0.391 OA
ATOM     31  H4  UNL     1      38.607  -3.668  25.899  1.00  0.00     0.210 HD
ENDBRANCH  29  30
BRANCH  29  32
HETATM   32  C14 UNL     1      38.542  -4.299  22.984  1.00  0.00     0.172 C 
BRANCH  32  33
HETATM   33  O5  UNL     1      38.078  -5.617  23.044  1.00  0.00    -0.391 OA
ATOM     34  H5  UNL     1      38.608  -6.191  22.502  1.00  0.00     0.210 HD
ENDBRANCH  32  33
BRANCH  32  35
HETATM   35  C15 UNL     1      37.316  -3.411  23.016  1.00  0.00     0.198 C 
BRANCH  35  36
HETATM   36  O6  UNL     1      37.715  -2.186  22.435  1.00  0.00    -0.398 OA
ATOM     37  H6  UNL     1      37.825  -1.581  23.159  1.00  0.00     0.209 HD
ENDBRANCH  35  36
ENDBRANCH  32  35
ENDBRANCH  29  32
ENDBRANCH  28  29
ENDBRANCH   7  28
BRANCH   4  38
HETATM   38  C8  UNL     1      39.802   1.462  24.167  1.00  0.00     0.113 A 
HETATM   39  C9  UNL     1      38.589   1.799  24.728  1.00  0.00     0.154 A 
HETATM   40  N7  UNL     1      38.352   3.086  24.409  1.00  0.00    -0.229 N 
HETATM   41  N11 UNL     1      39.356   3.546  23.687  1.00  0.00    -0.234 N 
HETATM   42  N12 UNL     1      40.243   2.548  23.541  1.00  0.00    -0.281 N 
ATOM     43  H11 UNL     1      39.442   4.488  23.308  1.00  0.00     0.209 HD
ATOM     44  H12 UNL     1      41.121   2.614  23.027  1.00  0.00     0.188 HD
BRANCH  40  45
HETATM   45  C10 UNL     1      37.168   3.780  24.828  1.00  0.00     0.195 A 
HETATM   46  N8  UNL     1      36.844   4.184  26.077  1.00  0.00    -0.220 N 
HETATM   47  O3  UNL     1      35.691   4.774  26.039  1.00  0.00    -0.153 OA
ATOM     48  H8  UNL     1      37.413   4.046  26.912  1.00  0.00     0.198 HD
HETATM   49  N9  UNL     1      35.207   4.797  24.834  1.00  0.00    -0.222 N 
HETATM   50  C11 UNL     1      36.106   4.182  24.045  1.00  0.00     0.169 A 
ATOM     51  H9  UNL     1      34.317   5.203  24.543  1.00  0.00     0.198 HD
BRANCH  50  52
HETATM   52  N10 UNL     1      36.004   3.994  22.775  1.00  0.00    -0.381 N 
ATOM     53 2H10 UNL     1      36.693   4.254  22.068  1.00  0.00     0.157 HD
ATOM     54 1H10 UNL     1      35.212   3.555  22.305  1.00  0.00     0.157 HD
ENDBRANCH  50  52
ENDBRANCH  40  45
ENDBRANCH   4  38
TORSDOF 15
ENDMDL
MODEL 5
REMARK VINA RESULT: -6.708392865      2.820      6.272
REMARK  15 active torsions:
REMARK  status: ('A' for Active; 'I' for Inactive)
REMARK    1  A    between atoms: N1_1  and  C1_4 
REMARK    2  A    between atoms: C2_10  and  N4_11 
REMARK    3  A    between atoms: N4_11  and  C3_13 
REMARK    4  A    between atoms: C5_15  and  O2_16 
REMARK    5  A    between atoms: N5_18  and  C6_19 
REMARK    6  A    between atoms: C7_22  and  C8_23 
REMARK    7  A    between atoms: N7_25  and  C10_26 
REMARK    8  A    between atoms: C11_32  and  N10_33 
REMARK    9  A    between atoms: N14_42  and  C12_43 
REMARK   10  A    between atoms: C12_43  and  C13_44 
REMARK   11  A    between atoms: C13_44  and  O4_45 
REMARK   12  A    between atoms: C13_44  and  C14_47 
REMARK   13  A    between atoms: C14_47  and  O5_48 
REMARK   14  A    between atoms: C14_47  and  C15_50 
REMARK   15  A    between atoms: C15_50  and  O6_51 
ROOT
HETATM    1  C6  UNL     1      39.203  -2.353  22.940  1.00  0.00     0.724 A 
HETATM    2  N6  UNL     1      38.662  -1.099  22.905  1.00  0.00    -0.170 N 
ATOM      3  H6  UNL     1      37.807  -0.841  22.413  1.00  0.00     0.186 HD
HETATM    4  C7  UNL     1      39.429  -0.257  23.620  1.00  0.00     0.166 A 
HETATM    5  N13 UNL     1      40.426  -0.995  24.085  1.00  0.00    -0.266 N 
ATOM      6  H13 UNL     1      41.183  -0.644  24.670  1.00  0.00     0.189 HD
HETATM    7  N14 UNL     1      40.300  -2.267  23.679  1.00  0.00    -0.118 N 
ENDROOT
BRANCH   1   8
HETATM    8  N5  UNL     1      38.697  -3.519  22.307  1.00  0.00    -0.060 N 
HETATM    9  C5  UNL     1      37.497  -4.079  22.596  1.00  0.00     0.183 A 
HETATM   10  C4  UNL     1      37.306  -5.194  21.807  1.00  0.00     0.108 A 
HETATM   11  C3  UNL     1      38.435  -5.296  21.024  1.00  0.00     0.126 A 
HETATM   12  N15 UNL     1      39.236  -4.268  21.364  1.00  0.00    -0.262 N 
ATOM     13  H15 UNL     1      40.148  -4.090  20.943  1.00  0.00     0.190 HD
BRANCH   9  14
HETATM   14  O2  UNL     1      36.570  -3.639  23.531  1.00  0.00    -0.344 OA
ATOM     15  H2  UNL     1      36.750  -3.591  24.463  1.00  0.00     0.219 HD
ENDBRANCH   9  14
BRANCH  11  16
HETATM   16  N4  UNL     1      38.626  -6.221  20.153  1.00  0.00    -0.323 N 
ATOM     17  H4  UNL     1      39.183  -7.039  20.398  1.00  0.00     0.169 HD
BRANCH  16  18
HETATM   18  C2  UNL     1      38.070  -6.113  18.859  1.00  0.00     0.175 A 
HETATM   19  C1  UNL     1      37.112  -6.969  18.356  1.00  0.00     0.167 A 
HETATM   20  N2  UNL     1      36.842  -6.546  17.111  1.00  0.00    -0.222 N 
HETATM   21  O1  UNL     1      37.578  -5.510  16.868  1.00  0.00    -0.153 OA
ATOM     22  H2  UNL     1      36.172  -6.968  16.467  1.00  0.00     0.198 HD
HETATM   23  N3  UNL     1      38.330  -5.213  17.886  1.00  0.00    -0.222 N 
ATOM     24  H3  UNL     1      38.995  -4.442  17.940  1.00  0.00     0.198 HD
BRANCH  19  25
HETATM   25  N1  UNL     1      36.592  -7.974  18.979  1.00  0.00    -0.381 N 
ATOM     26  H12 UNL     1      36.444  -8.905  18.591  1.00  0.00     0.157 HD
ATOM     27  H11 UNL     1      36.249  -8.002  19.939  1.00  0.00     0.157 HD
ENDBRANCH  19  25
ENDBRANCH  16  18
ENDBRANCH  11  16
ENDBRANCH   1   8
BRANCH   7  28
HETATM   28  C12 UNL     1      41.232  -3.292  24.031  1.00  0.00     0.202 C 
BRANCH  28  29
HETATM   29  C13 UNL     1      41.110  -3.699  25.485  1.00  0.00     0.169 C 
BRANCH  29  30
HETATM   30  O4  UNL     1      39.811  -3.816  25.927  1.00  0.00    -0.391 OA
ATOM     31  H4  UNL     1      39.496  -4.711  25.970  1.00  0.00     0.210 HD
ENDBRANCH  29  30
BRANCH  29  32
HETATM   32  C14 UNL     1      41.821  -5.029  25.725  1.00  0.00     0.172 C 
BRANCH  32  33
HETATM   33  O5  UNL     1      43.176  -4.942  25.390  1.00  0.00    -0.391 OA
ATOM     34  H5  UNL     1      43.315  -4.323  24.683  1.00  0.00     0.210 HD
ENDBRANCH  32  33
BRANCH  32  35
HETATM   35  C15 UNL     1      41.765  -5.409  27.190  1.00  0.00     0.198 C 
BRANCH  35  36
HETATM   36  O6  UNL     1      40.591  -6.182  27.340  1.00  0.00    -0.398 OA
ATOM     37  H6  UNL     1      40.880  -7.086  27.380  1.00  0.00     0.209 HD
ENDBRANCH  35  36
ENDBRANCH  32  35
ENDBRANCH  29  32
ENDBRANCH  28  29
ENDBRANCH   7  28
BRANCH   4  38
HETATM   38  C8  UNL     1      39.154   1.160  23.802  1.00  0.00     0.113 A 
HETATM   39  C9  UNL     1      37.973   1.633  24.333  1.00  0.00     0.154 A 
HETATM   40  N7  UNL     1      38.063   2.977  24.355  1.00  0.00    -0.229 N 
HETATM   41  N11 UNL     1      39.232   3.342  23.867  1.00  0.00    -0.234 N 
HETATM   42  N12 UNL     1      39.898   2.226  23.529  1.00  0.00    -0.281 N 
ATOM     43  H11 UNL     1      39.569   4.299  23.764  1.00  0.00     0.209 HD
ATOM     44  H12 UNL     1      40.834   2.201  23.124  1.00  0.00     0.188 HD
BRANCH  40  45
HETATM   45  C10 UNL     1      37.006   3.813  24.849  1.00  0.00     0.195 A 
HETATM   46  N8  UNL     1      36.775   4.186  26.128  1.00  0.00    -0.220 N 
HETATM   47  O3  UNL     1      35.723   4.942  26.159  1.00  0.00    -0.153 OA
ATOM     48  H8  UNL     1      37.337   3.917  26.936  1.00  0.00     0.198 HD
HETATM   49  N9  UNL     1      35.220   5.108  24.973  1.00  0.00    -0.222 N 
HETATM   50  C11 UNL     1      35.998   4.414  24.124  1.00  0.00     0.169 A 
ATOM     51  H9  UNL     1      34.394   5.657  24.733  1.00  0.00     0.198 HD
BRANCH  50  52
HETATM   52  N10 UNL     1      35.840   4.318  22.849  1.00  0.00    -0.381 N 
ATOM     53 2H10 UNL     1      35.876   3.460  22.297  1.00  0.00     0.157 HD
ATOM     54 1H10 UNL     1      35.656   5.098  22.217  1.00  0.00     0.157 HD
ENDBRANCH  50  52
ENDBRANCH  40  45
ENDBRANCH   4  38
TORSDOF 15
ENDMDL
