MODEL 1
REMARK VINA RESULT: -8.223337186      0.000      0.000
REMARK  13 active torsions:
REMARK  status: ('A' for Active; 'I' for Inactive)
REMARK    1  A    between atoms: C2_2  and  C3_3 
REMARK    2  A    between atoms: C4_4  and  C5_5 
REMARK    3  A    between atoms: C5_5  and  O2_7 
REMARK    4  A    between atoms: O2_7  and  C6_8 
REMARK    5  A    between atoms: C7_10  and  O4_11 
REMARK    6  A    between atoms: O4_11  and  C8_12 
REMARK    7  A    between atoms: C8_12  and  C9_13 
REMARK    8  A    between atoms: C18_22  and  O5_23 
REMARK    9  A    between atoms: C19_25  and  O6_26 
REMARK   10  A    between atoms: C20_28  and  O7_29 
REMARK   11  A    between atoms: C21_31  and  O8_32 
REMARK   12  A    between atoms: C22_34  and  C23_35 
REMARK   13  A    between atoms: C23_35  and  N1_36 
ROOT
HETATM    1  C6  UNL     1      -1.275  59.643  20.587  1.00  0.00     0.281 C 
HETATM    2  O3  UNL     1      -2.109  60.593  20.024  1.00  0.00    -0.328 OA
HETATM    3  C7  UNL     1      -3.197  60.005  19.366  1.00  0.00     0.294 C 
HETATM    4  C19 UNL     1      -2.875  59.699  17.928  1.00  0.00     0.204 C 
HETATM    5  C20 UNL     1      -1.533  60.231  17.504  1.00  0.00     0.180 C 
HETATM    6  C21 UNL     1      -0.370  59.746  18.274  1.00  0.00     0.160 C 
HETATM    7  C22 UNL     1      -0.653  58.852  19.434  1.00  0.00     0.098 C 
ENDROOT
BRANCH   3   8
HETATM    8  O4  UNL     1      -4.262  60.861  19.537  1.00  0.00    -0.358 OA
BRANCH   8   9
HETATM    9  C8  UNL     1      -5.268  60.416  20.368  1.00  0.00     0.177 C 
BRANCH   9  10
HETATM   10  C9  UNL     1      -6.267  59.496  19.738  1.00  0.00     0.026 A 
HETATM   11  C10 UNL     1      -7.688  59.607  20.116  1.00  0.00     0.004 A 
HETATM   12  C11 UNL     1      -8.689  58.530  20.112  1.00  0.00     0.007 C 
HETATM   13  C17 UNL     1      -7.157  59.883  18.710  1.00  0.00    -0.000 A 
HETATM   14  C12 UNL     1      -9.750  58.818  19.077  1.00  0.00     0.012 C 
HETATM   15  C13 UNL     1      -9.223  59.438  17.811  1.00  0.00     0.043 C 
HETATM   16  C14 UNL     1      -9.031  60.908  17.917  1.00  0.00    -0.082 C 
HETATM   17  C18 UNL     1      -7.777  59.000  17.672  1.00  0.00     0.136 C 
HETATM   18  C15 UNL     1      -9.953  61.828  17.752  1.00  0.00     0.015 C 
HETATM   19  C16 UNL     1      -7.608  61.229  18.246  1.00  0.00     0.046 C 
BRANCH  17  20
HETATM   20  O5  UNL     1      -7.539  57.682  17.736  1.00  0.00    -0.394 OA
ATOM     21  H5  UNL     1      -7.732  57.176  16.956  1.00  0.00     0.210 HD
ENDBRANCH  17  20
ENDBRANCH   9  10
ENDBRANCH   8   9
ENDBRANCH   3   8
BRANCH   4  22
HETATM   22  O6  UNL     1      -3.043  58.360  17.588  1.00  0.00    -0.388 OA
ATOM     23  H6  UNL     1      -3.939  58.054  17.666  1.00  0.00     0.210 HD
ENDBRANCH   4  22
BRANCH   1  24
HETATM   24  O2  UNL     1      -0.257  60.344  21.291  1.00  0.00    -0.286 OA
BRANCH  24  25
HETATM   25  C5  UNL     1      -0.232  60.336  22.656  1.00  0.00     0.285 C 
HETATM   26  O1  UNL     1       0.691  59.690  23.223  1.00  0.00    -0.260 OA
BRANCH  25  27
HETATM   27  C4  UNL     1      -1.236  61.048  23.429  1.00  0.00     0.082 C 
HETATM   28  C3  UNL     1      -0.873  61.654  24.541  1.00  0.00     0.005 C 
BRANCH  28  29
HETATM   29  C2  UNL     1      -1.833  62.387  25.364  1.00  0.00    -0.010 C 
HETATM   30  C1  UNL     1      -3.102  62.408  25.018  1.00  0.00     0.011 C 
ENDBRANCH  28  29
ENDBRANCH  25  27
ENDBRANCH  24  25
ENDBRANCH   1  24
BRANCH   5  31
HETATM   31  O7  UNL     1      -1.609  61.631  17.571  1.00  0.00    -0.390 OA
ATOM     32  H7  UNL     1      -2.450  61.880  17.204  1.00  0.00     0.210 HD
ENDBRANCH   5  31
BRANCH   7  33
HETATM   33  C23 UNL     1       0.704  58.340  19.941  1.00  0.00     0.241 C 
BRANCH  33  34
HETATM   34  N1  UNL     1       1.507  57.972  18.791  1.00  0.00    -0.079 N 
ATOM     35  H13 UNL     1       1.077  57.236  18.230  1.00  0.00     0.274 HD
ATOM     36  H12 UNL     1       1.526  58.698  18.075  1.00  0.00     0.274 HD
ATOM     37  H11 UNL     1       2.439  57.720  19.120  1.00  0.00     0.274 HD
ENDBRANCH  33  34
ENDBRANCH   7  33
BRANCH   6  38
HETATM   38  O8  UNL     1       0.406  60.834  18.681  1.00  0.00    -0.392 OA
ATOM     39  H8  UNL     1       1.105  60.530  19.248  1.00  0.00     0.210 HD
ENDBRANCH   6  38
TORSDOF 13
ENDMDL
MODEL 2
REMARK VINA RESULT: -8.196656909      3.714      7.582
REMARK  13 active torsions:
REMARK  status: ('A' for Active; 'I' for Inactive)
REMARK    1  A    between atoms: C2_2  and  C3_3 
REMARK    2  A    between atoms: C4_4  and  C5_5 
REMARK    3  A    between atoms: C5_5  and  O2_7 
REMARK    4  A    between atoms: O2_7  and  C6_8 
REMARK    5  A    between atoms: C7_10  and  O4_11 
REMARK    6  A    between atoms: O4_11  and  C8_12 
REMARK    7  A    between atoms: C8_12  and  C9_13 
REMARK    8  A    between atoms: C18_22  and  O5_23 
REMARK    9  A    between atoms: C19_25  and  O6_26 
REMARK   10  A    between atoms: C20_28  and  O7_29 
REMARK   11  A    between atoms: C21_31  and  O8_32 
REMARK   12  A    between atoms: C22_34  and  C23_35 
REMARK   13  A    between atoms: C23_35  and  N1_36 
ROOT
HETATM    1  C6  UNL     1      -0.900  60.802  18.029  1.00  0.00     0.281 C 
HETATM    2  O3  UNL     1      -0.337  59.553  17.838  1.00  0.00    -0.328 OA
HETATM    3  C7  UNL     1       1.048  59.569  18.052  1.00  0.00     0.294 C 
HETATM    4  C19 UNL     1       1.800  59.899  16.791  1.00  0.00     0.204 C 
HETATM    5  C20 UNL     1       0.906  59.979  15.583  1.00  0.00     0.180 C 
HETATM    6  C21 UNL     1      -0.190  60.966  15.652  1.00  0.00     0.160 C 
HETATM    7  C22 UNL     1      -0.346  61.715  16.932  1.00  0.00     0.098 C 
ENDROOT
BRANCH   3   8
HETATM    8  O4  UNL     1       1.370  58.346  18.600  1.00  0.00    -0.358 OA
BRANCH   8   9
HETATM    9  C8  UNL     1       0.518  57.879  19.577  1.00  0.00     0.177 C 
BRANCH   9  10
HETATM   10  C9  UNL     1       0.997  58.043  20.986  1.00  0.00     0.026 A 
HETATM   11  C10 UNL     1       0.120  57.635  22.098  1.00  0.00     0.004 A 
HETATM   12  C11 UNL     1       0.095  58.200  23.456  1.00  0.00     0.007 C 
HETATM   13  C17 UNL     1       1.465  56.978  21.789  1.00  0.00    -0.000 A 
HETATM   14  C12 UNL     1       0.537  57.157  24.454  1.00  0.00     0.012 C 
HETATM   15  C13 UNL     1       1.651  56.271  23.966  1.00  0.00     0.043 C 
HETATM   16  C14 UNL     1       1.174  55.149  23.116  1.00  0.00    -0.082 C 
HETATM   17  C18 UNL     1       2.428  57.063  22.932  1.00  0.00     0.136 C 
HETATM   18  C15 UNL     1       0.706  53.996  23.537  1.00  0.00     0.015 C 
HETATM   19  C16 UNL     1       1.298  55.499  21.667  1.00  0.00     0.046 C 
BRANCH  17  20
HETATM   20  O5  UNL     1       2.862  58.276  23.306  1.00  0.00    -0.394 OA
ATOM     21  H5  UNL     1       2.352  58.725  23.969  1.00  0.00     0.210 HD
ENDBRANCH  17  20
ENDBRANCH   9  10
ENDBRANCH   8   9
ENDBRANCH   3   8
BRANCH   4  22
HETATM   22  O6  UNL     1       2.631  61.009  16.907  1.00  0.00    -0.388 OA
ATOM     23  H6  UNL     1       3.521  60.797  17.163  1.00  0.00     0.210 HD
ENDBRANCH   4  22
BRANCH   1  24
HETATM   24  O2  UNL     1      -2.306  60.656  17.866  1.00  0.00    -0.286 OA
BRANCH  24  25
HETATM   25  C5  UNL     1      -3.070  60.162  18.884  1.00  0.00     0.285 C 
HETATM   26  O1  UNL     1      -4.221  59.731  18.599  1.00  0.00    -0.260 OA
BRANCH  25  27
HETATM   27  C4  UNL     1      -2.572  60.134  20.249  1.00  0.00     0.082 C 
HETATM   28  C3  UNL     1      -3.372  60.509  21.226  1.00  0.00     0.005 C 
BRANCH  28  29
HETATM   29  C2  UNL     1      -2.934  60.505  22.620  1.00  0.00    -0.010 C 
HETATM   30  C1  UNL     1      -3.136  61.568  23.368  1.00  0.00     0.011 C 
ENDBRANCH  28  29
ENDBRANCH  25  27
ENDBRANCH  24  25
ENDBRANCH   1  24
BRANCH   5  31
HETATM   31  O7  UNL     1       0.387  58.692  15.373  1.00  0.00    -0.390 OA
ATOM     32  H7  UNL     1       0.913  58.093  15.891  1.00  0.00     0.210 HD
ENDBRANCH   5  31
BRANCH   7  33
HETATM   33  C23 UNL     1      -1.411  62.795  16.687  1.00  0.00     0.241 C 
BRANCH  33  34
HETATM   34  N1  UNL     1      -1.128  63.430  15.414  1.00  0.00    -0.079 N 
ATOM     35  H13 UNL     1      -0.178  63.797  15.361  1.00  0.00     0.274 HD
ATOM     36  H12 UNL     1      -1.061  62.761  14.647  1.00  0.00     0.274 HD
ATOM     37  H11 UNL     1      -1.836  64.147  15.251  1.00  0.00     0.274 HD
ENDBRANCH  33  34
ENDBRANCH   7  33
BRANCH   6  38
HETATM   38  O8  UNL     1      -1.394  60.350  15.303  1.00  0.00    -0.392 OA
ATOM     39  H8  UNL     1      -2.112  60.780  15.754  1.00  0.00     0.210 HD
ENDBRANCH   6  38
TORSDOF 13
ENDMDL
MODEL 3
REMARK VINA RESULT: -8.004598614      1.022      1.194
REMARK  13 active torsions:
REMARK  status: ('A' for Active; 'I' for Inactive)
REMARK    1  A    between atoms: C2_2  and  C3_3 
REMARK    2  A    between atoms: C4_4  and  C5_5 
REMARK    3  A    between atoms: C5_5  and  O2_7 
REMARK    4  A    between atoms: O2_7  and  C6_8 
REMARK    5  A    between atoms: C7_10  and  O4_11 
REMARK    6  A    between atoms: O4_11  and  C8_12 
REMARK    7  A    between atoms: C8_12  and  C9_13 
REMARK    8  A    between atoms: C18_22  and  O5_23 
REMARK    9  A    between atoms: C19_25  and  O6_26 
REMARK   10  A    between atoms: C20_28  and  O7_29 
REMARK   11  A    between atoms: C21_31  and  O8_32 
REMARK   12  A    between atoms: C22_34  and  C23_35 
REMARK   13  A    between atoms: C23_35  and  N1_36 
ROOT
HETATM    1  C6  UNL     1      -1.246  59.354  19.477  1.00  0.00     0.281 C 
HETATM    2  O3  UNL     1      -2.045  60.437  19.160  1.00  0.00    -0.328 OA
HETATM    3  C7  UNL     1      -2.957  60.130  18.141  1.00  0.00     0.294 C 
HETATM    4  C19 UNL     1      -2.375  60.392  16.779  1.00  0.00     0.204 C 
HETATM    5  C20 UNL     1      -1.028  61.060  16.839  1.00  0.00     0.180 C 
HETATM    6  C21 UNL     1       0.024  60.332  17.577  1.00  0.00     0.160 C 
HETATM    7  C22 UNL     1      -0.377  59.063  18.250  1.00  0.00     0.098 C 
ENDROOT
BRANCH   3   8
HETATM    8  O4  UNL     1      -4.101  60.847  18.416  1.00  0.00    -0.358 OA
BRANCH   8   9
HETATM    9  C8  UNL     1      -4.794  60.470  19.547  1.00  0.00     0.177 C 
BRANCH   9  10
HETATM   10  C9  UNL     1      -5.875  59.457  19.336  1.00  0.00     0.026 A 
HETATM   11  C10 UNL     1      -7.182  59.651  19.989  1.00  0.00     0.004 A 
HETATM   12  C11 UNL     1      -8.124  58.602  20.408  1.00  0.00     0.007 C 
HETATM   13  C17 UNL     1      -6.979  59.650  18.474  1.00  0.00    -0.000 A 
HETATM   14  C12 UNL     1      -9.394  58.699  19.596  1.00  0.00     0.012 C 
HETATM   15  C13 UNL     1      -9.176  59.062  18.152  1.00  0.00     0.043 C 
HETATM   16  C14 UNL     1      -9.013  60.524  17.936  1.00  0.00    -0.082 C 
HETATM   17  C18 UNL     1      -7.781  58.592  17.783  1.00  0.00     0.136 C 
HETATM   18  C15 UNL     1      -9.979  61.405  17.808  1.00  0.00     0.015 C 
HETATM   19  C16 UNL     1      -7.564  60.888  17.877  1.00  0.00     0.046 C 
BRANCH  17  20
HETATM   20  O5  UNL     1      -7.492  57.308  18.039  1.00  0.00    -0.394 OA
ATOM     21  H5  UNL     1      -7.998  56.887  18.723  1.00  0.00     0.210 HD
ENDBRANCH  17  20
ENDBRANCH   9  10
ENDBRANCH   8   9
ENDBRANCH   3   8
BRANCH   4  22
HETATM   22  O6  UNL     1      -2.376  59.279  15.944  1.00  0.00    -0.388 OA
ATOM     23  H6  UNL     1      -2.028  58.494  16.350  1.00  0.00     0.210 HD
ENDBRANCH   4  22
BRANCH   1  24
HETATM   24  O2  UNL     1      -0.419  59.749  20.566  1.00  0.00    -0.286 OA
BRANCH  24  25
HETATM   25  C5  UNL     1      -0.813  59.511  21.852  1.00  0.00     0.285 C 
HETATM   26  O1  UNL     1      -0.637  58.350  22.315  1.00  0.00    -0.260 OA
BRANCH  25  27
HETATM   27  C4  UNL     1      -1.415  60.559  22.658  1.00  0.00     0.082 C 
HETATM   28  C3  UNL     1      -2.724  60.710  22.634  1.00  0.00     0.005 C 
BRANCH  28  29
HETATM   29  C2  UNL     1      -3.391  61.744  23.421  1.00  0.00    -0.010 C 
HETATM   30  C1  UNL     1      -2.879  62.115  24.574  1.00  0.00     0.011 C 
ENDBRANCH  28  29
ENDBRANCH  25  27
ENDBRANCH  24  25
ENDBRANCH   1  24
BRANCH   5  31
HETATM   31  O7  UNL     1      -1.226  62.330  17.402  1.00  0.00    -0.390 OA
ATOM     32  H7  UNL     1      -1.670  62.199  18.232  1.00  0.00     0.210 HD
ENDBRANCH   5  31
BRANCH   7  33
HETATM   33  C23 UNL     1       0.912  58.413  18.776  1.00  0.00     0.241 C 
BRANCH  33  34
HETATM   34  N1  UNL     1       0.554  57.188  19.465  1.00  0.00    -0.079 N 
ATOM     35  H13 UNL     1       0.215  56.465  18.831  1.00  0.00     0.274 HD
ATOM     36  H12 UNL     1       1.366  56.687  19.824  1.00  0.00     0.274 HD
ATOM     37  H11 UNL     1      -0.121  57.419  20.194  1.00  0.00     0.274 HD
ENDBRANCH  33  34
ENDBRANCH   7  33
BRANCH   6  38
HETATM   38  O8  UNL     1       0.631  61.194  18.493  1.00  0.00    -0.392 OA
ATOM     39  H8  UNL     1       0.629  62.079  18.146  1.00  0.00     0.210 HD
ENDBRANCH   6  38
TORSDOF 13
ENDMDL
MODEL 4
REMARK VINA RESULT: -7.929671845      1.566      2.511
REMARK  13 active torsions:
REMARK  status: ('A' for Active; 'I' for Inactive)
REMARK    1  A    between atoms: C2_2  and  C3_3 
REMARK    2  A    between atoms: C4_4  and  C5_5 
REMARK    3  A    between atoms: C5_5  and  O2_7 
REMARK    4  A    between atoms: O2_7  and  C6_8 
REMARK    5  A    between atoms: C7_10  and  O4_11 
REMARK    6  A    between atoms: O4_11  and  C8_12 
REMARK    7  A    between atoms: C8_12  and  C9_13 
REMARK    8  A    between atoms: C18_22  and  O5_23 
REMARK    9  A    between atoms: C19_25  and  O6_26 
REMARK   10  A    between atoms: C20_28  and  O7_29 
REMARK   11  A    between atoms: C21_31  and  O8_32 
REMARK   12  A    between atoms: C22_34  and  C23_35 
REMARK   13  A    between atoms: C23_35  and  N1_36 
ROOT
HETATM    1  C6  UNL     1      -2.021  59.690  19.779  1.00  0.00     0.281 C 
HETATM    2  O3  UNL     1      -2.291  60.750  18.932  1.00  0.00    -0.328 OA
HETATM    3  C7  UNL     1      -2.677  60.313  17.659  1.00  0.00     0.294 C 
HETATM    4  C19 UNL     1      -1.490  60.128  16.753  1.00  0.00     0.204 C 
HETATM    5  C20 UNL     1      -0.203  60.600  17.374  1.00  0.00     0.180 C 
HETATM    6  C21 UNL     1       0.177  59.956  18.647  1.00  0.00     0.160 C 
HETATM    7  C22 UNL     1      -0.788  58.974  19.222  1.00  0.00     0.098 C 
ENDROOT
BRANCH   3   8
HETATM    8  O4  UNL     1      -3.603  61.224  17.200  1.00  0.00    -0.358 OA
BRANCH   8   9
HETATM    9  C8  UNL     1      -4.838  60.713  16.862  1.00  0.00     0.177 C 
BRANCH   9  10
HETATM   10  C9  UNL     1      -5.802  60.547  17.995  1.00  0.00     0.026 A 
HETATM   11  C10 UNL     1      -7.156  60.035  17.720  1.00  0.00     0.004 A 
HETATM   12  C11 UNL     1      -8.381  60.326  18.479  1.00  0.00     0.007 C 
HETATM   13  C17 UNL     1      -6.126  59.301  18.578  1.00  0.00    -0.000 A 
HETATM   14  C12 UNL     1      -8.887  59.067  19.142  1.00  0.00     0.012 C 
HETATM   15  C13 UNL     1      -7.800  58.170  19.671  1.00  0.00     0.043 C 
HETATM   16  C14 UNL     1      -7.206  57.295  18.627  1.00  0.00    -0.082 C 
HETATM   17  C18 UNL     1      -6.605  59.054  19.975  1.00  0.00     0.136 C 
HETATM   18  C15 UNL     1      -7.683  56.144  18.211  1.00  0.00     0.015 C 
HETATM   19  C16 UNL     1      -5.951  57.902  18.086  1.00  0.00     0.046 C 
BRANCH  17  20
HETATM   20  O5  UNL     1      -6.828  60.114  20.766  1.00  0.00    -0.394 OA
ATOM     21  H5  UNL     1      -6.166  60.302  21.420  1.00  0.00     0.210 HD
ENDBRANCH  17  20
ENDBRANCH   9  10
ENDBRANCH   8   9
ENDBRANCH   3   8
BRANCH   4  22
HETATM   22  O6  UNL     1      -1.381  58.846  16.223  1.00  0.00    -0.388 OA
ATOM     23  H6  UNL     1      -1.966  58.681  15.492  1.00  0.00     0.210 HD
ENDBRANCH   4  22
BRANCH   1  24
HETATM   24  O2  UNL     1      -1.718  60.241  21.056  1.00  0.00    -0.286 OA
BRANCH  24  25
HETATM   25  C5  UNL     1      -2.723  60.560  21.924  1.00  0.00     0.285 C 
HETATM   26  O1  UNL     1      -3.911  60.395  21.534  1.00  0.00    -0.260 OA
BRANCH  25  27
HETATM   27  C4  UNL     1      -2.431  61.072  23.252  1.00  0.00     0.082 C 
HETATM   28  C3  UNL     1      -3.277  61.914  23.810  1.00  0.00     0.005 C 
BRANCH  28  29
HETATM   29  C2  UNL     1      -3.044  62.466  25.142  1.00  0.00    -0.010 C 
HETATM   30  C1  UNL     1      -1.816  62.535  25.611  1.00  0.00     0.011 C 
ENDBRANCH  28  29
ENDBRANCH  25  27
ENDBRANCH  24  25
ENDBRANCH   1  24
BRANCH   5  31
HETATM   31  O7  UNL     1      -0.317  61.988  17.547  1.00  0.00    -0.390 OA
ATOM     32  H7  UNL     1      -0.674  62.339  16.739  1.00  0.00     0.210 HD
ENDBRANCH   5  31
BRANCH   7  33
HETATM   33  C23 UNL     1      -0.089  58.316  20.422  1.00  0.00     0.241 C 
BRANCH  33  34
HETATM   34  N1  UNL     1       1.251  57.937  20.014  1.00  0.00    -0.079 N 
ATOM     35  H13 UNL     1       1.611  57.139  20.538  1.00  0.00     0.274 HD
ATOM     36  H12 UNL     1       1.274  57.513  19.086  1.00  0.00     0.274 HD
ATOM     37  H11 UNL     1       1.851  58.759  20.086  1.00  0.00     0.274 HD
ENDBRANCH  33  34
ENDBRANCH   7  33
BRANCH   6  38
HETATM   38  O8  UNL     1       0.486  60.938  19.591  1.00  0.00    -0.392 OA
ATOM     39  H8  UNL     1       0.566  60.538  20.450  1.00  0.00     0.210 HD
ENDBRANCH   6  38
TORSDOF 13
ENDMDL
MODEL 5
REMARK VINA RESULT: -7.891879149      1.313      2.168
REMARK  13 active torsions:
REMARK  status: ('A' for Active; 'I' for Inactive)
REMARK    1  A    between atoms: C2_2  and  C3_3 
REMARK    2  A    between atoms: C4_4  and  C5_5 
REMARK    3  A    between atoms: C5_5  and  O2_7 
REMARK    4  A    between atoms: O2_7  and  C6_8 
REMARK    5  A    between atoms: C7_10  and  O4_11 
REMARK    6  A    between atoms: O4_11  and  C8_12 
REMARK    7  A    between atoms: C8_12  and  C9_13 
REMARK    8  A    between atoms: C18_22  and  O5_23 
REMARK    9  A    between atoms: C19_25  and  O6_26 
REMARK   10  A    between atoms: C20_28  and  O7_29 
REMARK   11  A    between atoms: C21_31  and  O8_32 
REMARK   12  A    between atoms: C22_34  and  C23_35 
REMARK   13  A    between atoms: C23_35  and  N1_36 
ROOT
HETATM    1  C6  UNL     1      -1.159  59.385  20.490  1.00  0.00     0.281 C 
HETATM    2  O3  UNL     1      -1.941  60.429  20.031  1.00  0.00    -0.328 OA
HETATM    3  C7  UNL     1      -3.051  59.970  19.310  1.00  0.00     0.294 C 
HETATM    4  C19 UNL     1      -2.734  59.805  17.849  1.00  0.00     0.204 C 
HETATM    5  C20 UNL     1      -1.365  60.315  17.488  1.00  0.00     0.180 C 
HETATM    6  C21 UNL     1      -0.232  59.693  18.203  1.00  0.00     0.160 C 
HETATM    7  C22 UNL     1      -0.567  58.694  19.259  1.00  0.00     0.098 C 
ENDROOT
BRANCH   3   8
HETATM    8  O4  UNL     1      -4.076  60.853  19.571  1.00  0.00    -0.358 OA
BRANCH   8   9
HETATM    9  C8  UNL     1      -5.073  60.393  20.405  1.00  0.00     0.177 C 
BRANCH   9  10
HETATM   10  C9  UNL     1      -6.071  59.474  19.773  1.00  0.00     0.026 A 
HETATM   11  C10 UNL     1      -7.490  59.576  20.159  1.00  0.00     0.004 A 
HETATM   12  C11 UNL     1      -8.487  58.494  20.152  1.00  0.00     0.007 C 
HETATM   13  C17 UNL     1      -6.968  59.864  18.752  1.00  0.00    -0.000 A 
HETATM   14  C12 UNL     1      -9.555  58.786  19.125  1.00  0.00     0.012 C 
HETATM   15  C13 UNL     1      -9.037  59.418  17.861  1.00  0.00     0.043 C 
HETATM   16  C14 UNL     1      -8.851  60.888  17.977  1.00  0.00    -0.082 C 
HETATM   17  C18 UNL     1      -7.590  58.987  17.711  1.00  0.00     0.136 C 
HETATM   18  C15 UNL     1      -9.778  61.805  17.824  1.00  0.00     0.015 C 
HETATM   19  C16 UNL     1      -7.427  61.212  18.301  1.00  0.00     0.046 C 
BRANCH  17  20
HETATM   20  O5  UNL     1      -7.346  57.670  17.764  1.00  0.00    -0.394 OA
ATOM     21  H5  UNL     1      -6.538  57.370  17.366  1.00  0.00     0.210 HD
ENDBRANCH  17  20
ENDBRANCH   9  10
ENDBRANCH   8   9
ENDBRANCH   3   8
BRANCH   4  22
HETATM   22  O6  UNL     1      -2.963  58.520  17.365  1.00  0.00    -0.388 OA
ATOM     23  H6  UNL     1      -3.862  58.365  17.099  1.00  0.00     0.210 HD
ENDBRANCH   4  22
BRANCH   1  24
HETATM   24  O2  UNL     1      -0.113  59.956  21.268  1.00  0.00    -0.286 OA
BRANCH  24  25
HETATM   25  C5  UNL     1      -0.055  59.732  22.614  1.00  0.00     0.285 C 
HETATM   26  O1  UNL     1       0.109  60.730  23.369  1.00  0.00    -0.260 OA
BRANCH  25  27
HETATM   27  C4  UNL     1      -0.177  58.390  23.156  1.00  0.00     0.082 C 
HETATM   28  C3  UNL     1       0.917  57.687  23.371  1.00  0.00     0.005 C 
BRANCH  28  29
HETATM   29  C2  UNL     1       0.864  56.333  23.914  1.00  0.00    -0.010 C 
HETATM   30  C1  UNL     1       1.247  55.318  23.169  1.00  0.00     0.011 C 
ENDBRANCH  28  29
ENDBRANCH  25  27
ENDBRANCH  24  25
ENDBRANCH   1  24
BRANCH   5  31
HETATM   31  O7  UNL     1      -1.375  61.701  17.705  1.00  0.00    -0.390 OA
ATOM     32  H7  UNL     1      -1.259  62.115  16.858  1.00  0.00     0.210 HD
ENDBRANCH   5  31
BRANCH   7  33
HETATM   33  C23 UNL     1       0.761  58.066  19.711  1.00  0.00     0.241 C 
BRANCH  33  34
HETATM   34  N1  UNL     1       1.595  57.877  18.539  1.00  0.00    -0.079 N 
ATOM     35  H13 UNL     1       1.562  58.672  17.901  1.00  0.00     0.274 HD
ATOM     36  H12 UNL     1       2.591  57.915  18.755  1.00  0.00     0.274 HD
ATOM     37  H11 UNL     1       1.322  57.002  18.092  1.00  0.00     0.274 HD
ENDBRANCH  33  34
ENDBRANCH   7  33
BRANCH   6  38
HETATM   38  O8  UNL     1       0.592  60.692  18.728  1.00  0.00    -0.392 OA
ATOM     39  H8  UNL     1       0.756  60.518  19.647  1.00  0.00     0.210 HD
ENDBRANCH   6  38
TORSDOF 13
ENDMDL
