MODEL 1
REMARK VINA RESULT: -7.257751616      0.000      0.000
REMARK  16 active torsions:
REMARK  status: ('A' for Active; 'I' for Inactive)
REMARK    1  A    between atoms: C3_3  and  C4_4 
REMARK    2  A    between atoms: C4_4  and  C5_5 
REMARK    3  A    between atoms: C5_5  and  C6_6 
REMARK    4  A    between atoms: C7_7  and  C8_8 
REMARK    5  A    between atoms: C9_9  and  C10_10 
REMARK    6  A    between atoms: C10_10  and  O1_11 
REMARK    7  A    between atoms: C12_15  and  O3_16 
REMARK    8  A    between atoms: O3_16  and  C13_17 
REMARK    9  A    between atoms: C14_20  and  C15_21 
REMARK   10  A    between atoms: C15_21  and  C16_22 
REMARK   11  A    between atoms: C16_22  and  C17_23 
REMARK   12  A    between atoms: C17_23  and  N1_24 
REMARK   13  A    between atoms: N2_28  and  O6_30 
REMARK   14  A    between atoms: C19_33  and  O7_34 
REMARK   15  A    between atoms: C20_36  and  O8_37 
REMARK   16  A    between atoms: C22_40  and  O9_41 
ROOT
HETATM    1  C1  UNL     1      -3.211  62.778  25.317  1.00  0.00     0.012 C 
HETATM    2  C2  UNL     1      -2.063  62.440  25.393  1.00  0.00    -0.117 C 
HETATM    3  C3  UNL     1      -0.665  62.032  25.506  1.00  0.00     0.094 C 
ENDROOT
BRANCH   3   4
HETATM    4  C4  UNL     1      -0.050  61.852  24.128  1.00  0.00     0.024 C 
BRANCH   4   5
HETATM    5  C5  UNL     1      -0.270  60.427  23.665  1.00  0.00     0.096 C 
BRANCH   5   6
HETATM    6  C6  UNL     1      -1.356  60.352  22.684  1.00  0.00    -0.092 C 
HETATM    7  C7  UNL     1      -2.262  60.310  21.867  1.00  0.00    -0.015 C 
BRANCH   7   8
HETATM    8  C8  UNL     1      -3.311  60.286  20.919  1.00  0.00    -0.012 C 
HETATM    9  C9  UNL     1      -4.212  60.286  20.111  1.00  0.00    -0.049 C 
BRANCH   9  10
HETATM   10  C10 UNL     1      -5.288  60.312  19.152  1.00  0.00     0.169 C 
HETATM   11  C11 UNL     1      -5.514  58.929  18.582  1.00  0.00     0.225 C 
HETATM   12  O2  UNL     1      -6.508  58.930  17.629  1.00  0.00    -0.357 OA
HETATM   13  C12 UNL     1      -7.734  59.367  18.100  1.00  0.00     0.265 C 
HETATM   14  C21 UNL     1      -7.620  60.775  18.631  1.00  0.00     0.096 C 
HETATM   15  C22 UNL     1      -6.613  60.757  19.764  1.00  0.00     0.171 C 
BRANCH  10  16
HETATM   16  O1  UNL     1      -5.042  61.169  18.082  1.00  0.00    -0.373 OA
ATOM     17  H1  UNL     1      -4.358  60.852  17.504  1.00  0.00     0.212 HD
ENDBRANCH  10  16
BRANCH  13  18
HETATM   18  O3  UNL     1      -8.322  58.500  18.988  1.00  0.00    -0.326 OA
BRANCH  18  19
HETATM   19  C13 UNL     1      -8.446  57.197  18.492  1.00  0.00     0.330 C 
HETATM   20  O4  UNL     1      -8.146  56.337  19.526  1.00  0.00    -0.205 OA
HETATM   21  O5  UNL     1      -7.364  55.347  19.086  1.00  0.00    -0.233 OA
HETATM   22  C14 UNL     1      -8.164  54.621  18.195  1.00  0.00     0.168 C 
HETATM   23  C18 UNL     1      -9.555  54.617  18.741  1.00  0.00     0.070 C 
HETATM   24  C19 UNL     1     -10.430  55.687  18.170  1.00  0.00     0.154 C 
HETATM   25  C20 UNL     1      -9.738  56.946  17.814  1.00  0.00     0.205 C 
BRANCH  22  26
HETATM   26  C15 UNL     1      -7.605  53.256  17.924  1.00  0.00     0.091 C 
BRANCH  26  27
HETATM   27  C16 UNL     1      -7.051  52.602  19.116  1.00  0.00     0.037 C 
HETATM   28  N2  UNL     1      -7.813  52.231  20.060  1.00  0.00    -0.276 N 
ATOM     29  H2  UNL     1      -8.809  52.412  19.940  1.00  0.00     0.193 HD
BRANCH  27  30
HETATM   30  C17 UNL     1      -5.590  52.386  19.189  1.00  0.00     0.283 C 
BRANCH  30  31
HETATM   31  N1  UNL     1      -5.229  50.986  19.230  1.00  0.00    -0.074 N 
ATOM     32  H13 UNL     1      -5.960  50.408  18.816  1.00  0.00     0.274 HD
ATOM     33  H12 UNL     1      -4.470  50.785  18.578  1.00  0.00     0.274 HD
ATOM     34  H11 UNL     1      -4.997  50.663  20.169  1.00  0.00     0.274 HD
ENDBRANCH  30  31
ENDBRANCH  27  30
BRANCH  28  35
HETATM   35  O6  UNL     1      -7.444  51.619  21.212  1.00  0.00    -0.290 OA
ATOM     36  H6  UNL     1      -6.773  51.904  21.820  1.00  0.00     0.244 HD
ENDBRANCH  28  35
ENDBRANCH  26  27
ENDBRANCH  22  26
BRANCH  24  37
HETATM   37  O7  UNL     1     -11.079  55.129  17.047  1.00  0.00    -0.393 OA
ATOM     38  H7  UNL     1     -12.010  55.265  17.172  1.00  0.00     0.210 HD
ENDBRANCH  24  37
BRANCH  25  39
HETATM   39  O8  UNL     1      -9.628  56.994  16.405  1.00  0.00    -0.388 OA
ATOM     40  H8  UNL     1     -10.328  56.522  15.970  1.00  0.00     0.210 HD
ENDBRANCH  25  39
ENDBRANCH  18  19
ENDBRANCH  13  18
BRANCH  15  41
HETATM   41  O9  UNL     1      -7.006  59.942  20.799  1.00  0.00    -0.391 OA
ATOM     42  H9  UNL     1      -7.754  59.405  20.569  1.00  0.00     0.210 HD
ENDBRANCH  15  41
ENDBRANCH   9  10
ENDBRANCH   7   8
ENDBRANCH   5   6
ENDBRANCH   4   5
ENDBRANCH   3   4
TORSDOF 16
ENDMDL
MODEL 2
REMARK VINA RESULT: -7.083695584      1.341      2.243
REMARK  16 active torsions:
REMARK  status: ('A' for Active; 'I' for Inactive)
REMARK    1  A    between atoms: C3_3  and  C4_4 
REMARK    2  A    between atoms: C4_4  and  C5_5 
REMARK    3  A    between atoms: C5_5  and  C6_6 
REMARK    4  A    between atoms: C7_7  and  C8_8 
REMARK    5  A    between atoms: C9_9  and  C10_10 
REMARK    6  A    between atoms: C10_10  and  O1_11 
REMARK    7  A    between atoms: C12_15  and  O3_16 
REMARK    8  A    between atoms: O3_16  and  C13_17 
REMARK    9  A    between atoms: C14_20  and  C15_21 
REMARK   10  A    between atoms: C15_21  and  C16_22 
REMARK   11  A    between atoms: C16_22  and  C17_23 
REMARK   12  A    between atoms: C17_23  and  N1_24 
REMARK   13  A    between atoms: N2_28  and  O6_30 
REMARK   14  A    between atoms: C19_33  and  O7_34 
REMARK   15  A    between atoms: C20_36  and  O8_37 
REMARK   16  A    between atoms: C22_40  and  O9_41 
ROOT
HETATM    1  C1  UNL     1       1.456  55.425  23.466  1.00  0.00     0.012 C 
HETATM    2  C2  UNL     1       0.821  56.433  23.338  1.00  0.00    -0.117 C 
HETATM    3  C3  UNL     1       0.029  57.651  23.181  1.00  0.00     0.094 C 
ENDROOT
BRANCH   3   4
HETATM    4  C4  UNL     1       0.933  58.841  22.903  1.00  0.00     0.024 C 
BRANCH   4   5
HETATM    5  C5  UNL     1       0.151  60.121  23.113  1.00  0.00     0.096 C 
BRANCH   5   6
HETATM    6  C6  UNL     1      -1.041  60.158  22.260  1.00  0.00    -0.092 C 
HETATM    7  C7  UNL     1      -2.022  60.182  21.535  1.00  0.00    -0.015 C 
BRANCH   7   8
HETATM    8  C8  UNL     1      -3.146  60.200  20.676  1.00  0.00    -0.012 C 
HETATM    9  C9  UNL     1      -4.103  60.235  19.936  1.00  0.00    -0.049 C 
BRANCH   9  10
HETATM   10  C10 UNL     1      -5.237  60.302  19.049  1.00  0.00     0.169 C 
HETATM   11  C11 UNL     1      -5.530  58.935  18.471  1.00  0.00     0.225 C 
HETATM   12  O2  UNL     1      -6.583  58.975  17.584  1.00  0.00    -0.357 OA
HETATM   13  C12 UNL     1      -7.765  59.430  18.139  1.00  0.00     0.265 C 
HETATM   14  C21 UNL     1      -7.586  60.825  18.685  1.00  0.00     0.096 C 
HETATM   15  C22 UNL     1      -6.510  60.764  19.751  1.00  0.00     0.171 C 
BRANCH  10  16
HETATM   16  O1  UNL     1      -5.040  61.173  17.980  1.00  0.00    -0.373 OA
ATOM     17  H1  UNL     1      -5.185  62.083  18.211  1.00  0.00     0.212 HD
ENDBRANCH  10  16
BRANCH  13  18
HETATM   18  O3  UNL     1      -8.316  58.560  19.049  1.00  0.00    -0.326 OA
BRANCH  18  19
HETATM   19  C13 UNL     1      -8.449  57.256  18.557  1.00  0.00     0.330 C 
HETATM   20  O4  UNL     1      -8.119  56.398  19.585  1.00  0.00    -0.205 OA
HETATM   21  O5  UNL     1      -7.346  55.409  19.125  1.00  0.00    -0.233 OA
HETATM   22  C14 UNL     1      -8.167  54.680  18.257  1.00  0.00     0.168 C 
HETATM   23  C18 UNL     1      -9.543  54.672  18.839  1.00  0.00     0.070 C 
HETATM   24  C19 UNL     1     -10.436  55.740  18.290  1.00  0.00     0.154 C 
HETATM   25  C20 UNL     1      -9.758  57.000  17.914  1.00  0.00     0.205 C 
BRANCH  22  26
HETATM   26  C15 UNL     1      -7.611  53.316  17.973  1.00  0.00     0.091 C 
BRANCH  26  27
HETATM   27  C16 UNL     1      -7.054  52.651  19.158  1.00  0.00     0.037 C 
HETATM   28  N2  UNL     1      -7.817  52.240  20.084  1.00  0.00    -0.276 N 
ATOM     29  H2  UNL     1      -8.817  52.398  19.956  1.00  0.00     0.193 HD
BRANCH  27  30
HETATM   30  C17 UNL     1      -5.589  52.473  19.245  1.00  0.00     0.283 C 
BRANCH  30  31
HETATM   31  N1  UNL     1      -5.180  51.093  19.100  1.00  0.00    -0.074 N 
ATOM     32  H13 UNL     1      -4.836  50.720  19.985  1.00  0.00     0.274 HD
ATOM     33  H12 UNL     1      -5.989  50.485  18.966  1.00  0.00     0.274 HD
ATOM     34  H11 UNL     1      -4.496  50.958  18.356  1.00  0.00     0.274 HD
ENDBRANCH  30  31
ENDBRANCH  27  30
BRANCH  28  35
HETATM   35  O6  UNL     1      -7.446  51.614  21.228  1.00  0.00    -0.290 OA
ATOM     36  H6  UNL     1      -7.729  51.822  22.110  1.00  0.00     0.244 HD
ENDBRANCH  28  35
ENDBRANCH  26  27
ENDBRANCH  22  26
BRANCH  24  37
HETATM   37  O7  UNL     1     -11.112  55.178  17.185  1.00  0.00    -0.393 OA
ATOM     38  H7  UNL     1     -12.026  55.101  17.432  1.00  0.00     0.210 HD
ENDBRANCH  24  37
BRANCH  25  39
HETATM   39  O8  UNL     1      -9.684  57.046  16.502  1.00  0.00    -0.388 OA
ATOM     40  H8  UNL     1      -9.615  57.934  16.171  1.00  0.00     0.210 HD
ENDBRANCH  25  39
ENDBRANCH  18  19
ENDBRANCH  13  18
BRANCH  15  41
HETATM   41  O9  UNL     1      -6.854  59.939  20.796  1.00  0.00    -0.391 OA
ATOM     42  H9  UNL     1      -7.096  60.428  21.573  1.00  0.00     0.210 HD
ENDBRANCH  15  41
ENDBRANCH   9  10
ENDBRANCH   7   8
ENDBRANCH   5   6
ENDBRANCH   4   5
ENDBRANCH   3   4
TORSDOF 16
ENDMDL
MODEL 3
REMARK VINA RESULT: -7.018554440      5.640      8.504
REMARK  16 active torsions:
REMARK  status: ('A' for Active; 'I' for Inactive)
REMARK    1  A    between atoms: C3_3  and  C4_4 
REMARK    2  A    between atoms: C4_4  and  C5_5 
REMARK    3  A    between atoms: C5_5  and  C6_6 
REMARK    4  A    between atoms: C7_7  and  C8_8 
REMARK    5  A    between atoms: C9_9  and  C10_10 
REMARK    6  A    between atoms: C10_10  and  O1_11 
REMARK    7  A    between atoms: C12_15  and  O3_16 
REMARK    8  A    between atoms: O3_16  and  C13_17 
REMARK    9  A    between atoms: C14_20  and  C15_21 
REMARK   10  A    between atoms: C15_21  and  C16_22 
REMARK   11  A    between atoms: C16_22  and  C17_23 
REMARK   12  A    between atoms: C17_23  and  N1_24 
REMARK   13  A    between atoms: N2_28  and  O6_30 
REMARK   14  A    between atoms: C19_33  and  O7_34 
REMARK   15  A    between atoms: C20_36  and  O8_37 
REMARK   16  A    between atoms: C22_40  and  O9_41 
ROOT
HETATM    1  C1  UNL     1      -3.237  62.800  25.326  1.00  0.00     0.012 C 
HETATM    2  C2  UNL     1      -2.099  62.462  25.485  1.00  0.00    -0.117 C 
HETATM    3  C3  UNL     1      -0.713  62.050  25.699  1.00  0.00     0.094 C 
ENDROOT
BRANCH   3   4
HETATM    4  C4  UNL     1       0.029  61.970  24.376  1.00  0.00     0.024 C 
BRANCH   4   5
HETATM    5  C5  UNL     1      -0.192  60.603  23.762  1.00  0.00     0.096 C 
BRANCH   5   6
HETATM    6  C6  UNL     1      -1.433  60.569  22.983  1.00  0.00    -0.092 C 
HETATM    7  C7  UNL     1      -2.457  60.550  22.319  1.00  0.00    -0.015 C 
BRANCH   7   8
HETATM    8  C8  UNL     1      -3.631  60.539  21.531  1.00  0.00    -0.012 C 
HETATM    9  C9  UNL     1      -4.639  60.549  20.862  1.00  0.00    -0.049 C 
BRANCH   9  10
HETATM   10  C10 UNL     1      -5.845  60.586  20.072  1.00  0.00     0.169 C 
HETATM   11  C11 UNL     1      -6.394  61.995  20.021  1.00  0.00     0.225 C 
HETATM   12  O2  UNL     1      -7.571  62.054  19.309  1.00  0.00    -0.357 OA
HETATM   13  C12 UNL     1      -7.454  61.628  17.997  1.00  0.00     0.265 C 
HETATM   14  C21 UNL     1      -6.974  60.199  17.951  1.00  0.00     0.096 C 
HETATM   15  C22 UNL     1      -5.618  60.150  18.628  1.00  0.00     0.171 C 
BRANCH  10  16
HETATM   16  O1  UNL     1      -6.851  59.765  20.577  1.00  0.00    -0.373 OA
ATOM     17  H1  UNL     1      -7.421  59.418  19.901  1.00  0.00     0.212 HD
ENDBRANCH  10  16
BRANCH  13  18
HETATM   18  O3  UNL     1      -6.713  62.474  17.209  1.00  0.00    -0.326 OA
BRANCH  18  19
HETATM   19  C13 UNL     1      -7.493  63.271  16.364  1.00  0.00     0.330 C 
HETATM   20  O4  UNL     1      -7.038  64.566  16.490  1.00  0.00    -0.205 OA
HETATM   21  O5  UNL     1      -8.073  65.409  16.568  1.00  0.00    -0.233 OA
HETATM   22  C14 UNL     1      -8.698  65.336  15.318  1.00  0.00     0.168 C 
HETATM   23  C18 UNL     1      -7.626  65.175  14.288  1.00  0.00     0.070 C 
HETATM   24  C19 UNL     1      -7.371  63.754  13.899  1.00  0.00     0.154 C 
HETATM   25  C20 UNL     1      -7.570  62.758  14.977  1.00  0.00     0.205 C 
BRANCH  22  26
HETATM   26  C15 UNL     1      -9.613  66.500  15.078  1.00  0.00     0.091 C 
BRANCH  26  27
HETATM   27  C16 UNL     1      -9.677  67.437  16.207  1.00  0.00     0.037 C 
HETATM   28  N2  UNL     1     -10.560  67.300  17.108  1.00  0.00    -0.276 N 
ATOM     29  H2  UNL     1     -11.206  66.518  16.999  1.00  0.00     0.193 HD
BRANCH  27  30
HETATM   30  C17 UNL     1      -8.692  68.538  16.269  1.00  0.00     0.283 C 
BRANCH  30  31
HETATM   31  N1  UNL     1      -7.757  68.396  17.364  1.00  0.00    -0.074 N 
ATOM     32  H13 UNL     1      -8.146  67.808  18.102  1.00  0.00     0.274 HD
ATOM     33  H12 UNL     1      -6.962  67.817  17.093  1.00  0.00     0.274 HD
ATOM     34  H11 UNL     1      -7.445  69.292  17.738  1.00  0.00     0.274 HD
ENDBRANCH  30  31
ENDBRANCH  27  30
BRANCH  28  35
HETATM   35  O6  UNL     1     -10.737  68.084  18.200  1.00  0.00    -0.290 OA
ATOM     36  H6  UNL     1     -10.779  67.800  19.105  1.00  0.00     0.244 HD
ENDBRANCH  28  35
ENDBRANCH  26  27
ENDBRANCH  22  26
BRANCH  24  37
HETATM   37  O7  UNL     1      -8.204  63.477  12.793  1.00  0.00    -0.393 OA
ATOM     38  H7  UNL     1      -9.099  63.514  13.107  1.00  0.00     0.210 HD
ENDBRANCH  24  37
BRANCH  25  39
HETATM   39  O8  UNL     1      -8.782  62.078  14.718  1.00  0.00    -0.388 OA
ATOM     40  H8  UNL     1      -9.470  62.316  15.329  1.00  0.00     0.210 HD
ENDBRANCH  25  39
ENDBRANCH  18  19
ENDBRANCH  13  18
BRANCH  15  41
HETATM   41  O9  UNL     1      -4.686  60.933  17.990  1.00  0.00    -0.391 OA
ATOM     42  H9  UNL     1      -3.899  60.448  17.773  1.00  0.00     0.210 HD
ENDBRANCH  15  41
ENDBRANCH   9  10
ENDBRANCH   7   8
ENDBRANCH   5   6
ENDBRANCH   4   5
ENDBRANCH   3   4
TORSDOF 16
ENDMDL
MODEL 4
REMARK VINA RESULT: -6.865998001      1.577      2.121
REMARK  16 active torsions:
REMARK  status: ('A' for Active; 'I' for Inactive)
REMARK    1  A    between atoms: C3_3  and  C4_4 
REMARK    2  A    between atoms: C4_4  and  C5_5 
REMARK    3  A    between atoms: C5_5  and  C6_6 
REMARK    4  A    between atoms: C7_7  and  C8_8 
REMARK    5  A    between atoms: C9_9  and  C10_10 
REMARK    6  A    between atoms: C10_10  and  O1_11 
REMARK    7  A    between atoms: C12_15  and  O3_16 
REMARK    8  A    between atoms: O3_16  and  C13_17 
REMARK    9  A    between atoms: C14_20  and  C15_21 
REMARK   10  A    between atoms: C15_21  and  C16_22 
REMARK   11  A    between atoms: C16_22  and  C17_23 
REMARK   12  A    between atoms: C17_23  and  N1_24 
REMARK   13  A    between atoms: N2_28  and  O6_30 
REMARK   14  A    between atoms: C19_33  and  O7_34 
REMARK   15  A    between atoms: C20_36  and  O8_37 
REMARK   16  A    between atoms: C22_40  and  O9_41 
ROOT
HETATM    1  C1  UNL     1       0.103  62.413  26.088  1.00  0.00     0.012 C 
HETATM    2  C2  UNL     1      -1.033  62.756  25.924  1.00  0.00    -0.117 C 
HETATM    3  C3  UNL     1      -2.415  63.190  25.737  1.00  0.00     0.094 C 
ENDROOT
BRANCH   3   4
HETATM    4  C4  UNL     1      -3.213  62.127  25.001  1.00  0.00     0.024 C 
BRANCH   4   5
HETATM    5  C5  UNL     1      -2.401  61.617  23.828  1.00  0.00     0.096 C 
BRANCH   5   6
HETATM    6  C6  UNL     1      -3.270  61.223  22.715  1.00  0.00    -0.092 C 
HETATM    7  C7  UNL     1      -4.006  60.886  21.802  1.00  0.00    -0.015 C 
BRANCH   7   8
HETATM    8  C8  UNL     1      -4.875  60.487  20.760  1.00  0.00    -0.012 C 
HETATM    9  C9  UNL     1      -5.623  60.128  19.879  1.00  0.00    -0.049 C 
BRANCH   9  10
HETATM   10  C10 UNL     1      -6.519  59.678  18.843  1.00  0.00     0.169 C 
HETATM   11  C11 UNL     1      -6.168  58.267  18.424  1.00  0.00     0.225 C 
HETATM   12  O2  UNL     1      -6.980  57.826  17.403  1.00  0.00    -0.357 OA
HETATM   13  C12 UNL     1      -8.327  57.820  17.722  1.00  0.00     0.265 C 
HETATM   14  C21 UNL     1      -8.785  59.209  18.090  1.00  0.00     0.096 C 
HETATM   15  C22 UNL     1      -7.976  59.654  19.292  1.00  0.00     0.171 C 
BRANCH  10  16
HETATM   16  O1  UNL     1      -6.472  60.475  17.701  1.00  0.00    -0.373 OA
ATOM     17  H1  UNL     1      -5.797  60.207  17.089  1.00  0.00     0.212 HD
ENDBRANCH  10  16
BRANCH  13  18
HETATM   18  O3  UNL     1      -8.666  56.873  18.657  1.00  0.00    -0.326 OA
BRANCH  18  19
HETATM   19  C13 UNL     1      -8.139  55.606  18.381  1.00  0.00     0.330 C 
HETATM   20  O4  UNL     1      -8.324  54.833  19.507  1.00  0.00    -0.205 OA
HETATM   21  O5  UNL     1      -7.221  54.122  19.760  1.00  0.00    -0.233 OA
HETATM   22  C14 UNL     1      -7.110  53.228  18.688  1.00  0.00     0.168 C 
HETATM   23  C18 UNL     1      -8.493  52.810  18.307  1.00  0.00     0.070 C 
HETATM   24  C19 UNL     1      -9.076  53.605  17.182  1.00  0.00     0.154 C 
HETATM   25  C20 UNL     1      -8.647  55.020  17.119  1.00  0.00     0.205 C 
BRANCH  22  26
HETATM   26  C15 UNL     1      -6.186  52.089  19.000  1.00  0.00     0.091 C 
BRANCH  26  27
HETATM   27  C16 UNL     1      -6.801  51.047  19.832  1.00  0.00     0.037 C 
HETATM   28  N2  UNL     1      -7.238  51.322  20.990  1.00  0.00    -0.276 N 
ATOM     29  H2  UNL     1      -7.138  52.289  21.298  1.00  0.00     0.193 HD
BRANCH  27  30
HETATM   30  C17 UNL     1      -6.897  49.675  19.289  1.00  0.00     0.283 C 
BRANCH  30  31
HETATM   31  N1  UNL     1      -8.263  49.221  19.145  1.00  0.00    -0.074 N 
ATOM     32  H13 UNL     1      -8.493  48.525  19.854  1.00  0.00     0.274 HD
ATOM     33  H12 UNL     1      -8.921  49.953  19.412  1.00  0.00     0.274 HD
ATOM     34  H11 UNL     1      -8.468  48.870  18.210  1.00  0.00     0.274 HD
ENDBRANCH  30  31
ENDBRANCH  27  30
BRANCH  28  35
HETATM   35  O6  UNL     1      -7.826  50.467  21.863  1.00  0.00    -0.290 OA
ATOM     36  H6  UNL     1      -7.706  49.526  21.908  1.00  0.00     0.244 HD
ENDBRANCH  28  35
ENDBRANCH  26  27
ENDBRANCH  22  26
BRANCH  24  37
HETATM   37  O7  UNL     1      -8.751  52.923  15.988  1.00  0.00    -0.393 OA
ATOM     38  H7  UNL     1      -7.835  53.100  15.811  1.00  0.00     0.210 HD
ENDBRANCH  24  37
BRANCH  25  39
HETATM   39  O8  UNL     1      -7.723  55.145  16.055  1.00  0.00    -0.388 OA
ATOM     40  H8  UNL     1      -7.915  54.553  15.337  1.00  0.00     0.210 HD
ENDBRANCH  25  39
ENDBRANCH  18  19
ENDBRANCH  13  18
BRANCH  15  41
HETATM   41  O9  UNL     1      -8.170  58.840  20.383  1.00  0.00    -0.391 OA
ATOM     42  H9  UNL     1      -8.715  58.090  20.178  1.00  0.00     0.210 HD
ENDBRANCH  15  41
ENDBRANCH   9  10
ENDBRANCH   7   8
ENDBRANCH   5   6
ENDBRANCH   4   5
ENDBRANCH   3   4
TORSDOF 16
ENDMDL
MODEL 5
REMARK VINA RESULT: -6.853198865      1.396      1.870
REMARK  16 active torsions:
REMARK  status: ('A' for Active; 'I' for Inactive)
REMARK    1  A    between atoms: C3_3  and  C4_4 
REMARK    2  A    between atoms: C4_4  and  C5_5 
REMARK    3  A    between atoms: C5_5  and  C6_6 
REMARK    4  A    between atoms: C7_7  and  C8_8 
REMARK    5  A    between atoms: C9_9  and  C10_10 
REMARK    6  A    between atoms: C10_10  and  O1_11 
REMARK    7  A    between atoms: C12_15  and  O3_16 
REMARK    8  A    between atoms: O3_16  and  C13_17 
REMARK    9  A    between atoms: C14_20  and  C15_21 
REMARK   10  A    between atoms: C15_21  and  C16_22 
REMARK   11  A    between atoms: C16_22  and  C17_23 
REMARK   12  A    between atoms: C17_23  and  N1_24 
REMARK   13  A    between atoms: N2_28  and  O6_30 
REMARK   14  A    between atoms: C19_33  and  O7_34 
REMARK   15  A    between atoms: C20_36  and  O8_37 
REMARK   16  A    between atoms: C22_40  and  O9_41 
ROOT
HETATM    1  C1  UNL     1       0.041  62.393  26.141  1.00  0.00     0.012 C 
HETATM    2  C2  UNL     1      -1.079  62.758  25.921  1.00  0.00    -0.117 C 
HETATM    3  C3  UNL     1      -2.442  63.219  25.665  1.00  0.00     0.094 C 
ENDROOT
BRANCH   3   4
HETATM    4  C4  UNL     1      -3.233  62.157  24.920  1.00  0.00     0.024 C 
BRANCH   4   5
HETATM    5  C5  UNL     1      -2.377  61.585  23.809  1.00  0.00     0.096 C 
BRANCH   5   6
HETATM    6  C6  UNL     1      -3.198  61.174  22.667  1.00  0.00    -0.092 C 
HETATM    7  C7  UNL     1      -3.865  60.829  21.705  1.00  0.00    -0.015 C 
BRANCH   7   8
HETATM    8  C8  UNL     1      -4.617  60.420  20.579  1.00  0.00    -0.012 C 
HETATM    9  C9  UNL     1      -5.248  60.082  19.604  1.00  0.00    -0.049 C 
BRANCH   9  10
HETATM   10  C10 UNL     1      -5.985  59.693  18.427  1.00  0.00     0.169 C 
HETATM   11  C11 UNL     1      -6.029  58.185  18.312  1.00  0.00     0.225 C 
HETATM   12  O2  UNL     1      -6.688  57.783  17.172  1.00  0.00    -0.357 OA
HETATM   13  C12 UNL     1      -7.998  58.223  17.099  1.00  0.00     0.265 C 
HETATM   14  C21 UNL     1      -8.049  59.730  17.138  1.00  0.00     0.096 C 
HETATM   15  C22 UNL     1      -7.432  60.174  18.449  1.00  0.00     0.171 C 
BRANCH  10  16
HETATM   16  O1  UNL     1      -5.425  60.184  17.249  1.00  0.00    -0.373 OA
ATOM     17  H1  UNL     1      -5.205  59.499  16.630  1.00  0.00     0.212 HD
ENDBRANCH  10  16
BRANCH  13  18
HETATM   18  O3  UNL     1      -8.829  57.630  18.018  1.00  0.00    -0.326 OA
BRANCH  18  19
HETATM   19  C13 UNL     1      -8.524  56.284  18.253  1.00  0.00     0.330 C 
HETATM   20  O4  UNL     1      -8.126  56.181  19.569  1.00  0.00    -0.205 OA
HETATM   21  O5  UNL     1      -7.052  55.391  19.662  1.00  0.00    -0.233 OA
HETATM   22  C14 UNL     1      -7.503  54.118  19.290  1.00  0.00     0.168 C 
HETATM   23  C18 UNL     1      -8.894  53.964  19.814  1.00  0.00     0.070 C 
HETATM   24  C19 UNL     1      -9.955  54.294  18.812  1.00  0.00     0.154 C 
HETATM   25  C20 UNL     1      -9.602  55.356  17.843  1.00  0.00     0.205 C 
BRANCH  22  26
HETATM   26  C15 UNL     1      -6.558  53.039  19.726  1.00  0.00     0.091 C 
BRANCH  26  27
HETATM   27  C16 UNL     1      -7.079  51.683  19.514  1.00  0.00     0.037 C 
HETATM   28  N2  UNL     1      -7.406  50.956  20.502  1.00  0.00    -0.276 N 
ATOM     29  H2  UNL     1      -7.286  51.366  21.429  1.00  0.00     0.193 HD
BRANCH  27  30
HETATM   30  C17 UNL     1      -7.213  51.185  18.128  1.00  0.00     0.283 C 
BRANCH  30  31
HETATM   31  N1  UNL     1      -8.583  50.898  17.764  1.00  0.00    -0.074 N 
ATOM     32  H13 UNL     1      -8.802  49.913  17.913  1.00  0.00     0.274 HD
ATOM     33  H12 UNL     1      -9.234  51.315  18.430  1.00  0.00     0.274 HD
ATOM     34  H11 UNL     1      -8.807  51.181  16.810  1.00  0.00     0.274 HD
ENDBRANCH  30  31
ENDBRANCH  27  30
BRANCH  28  35
HETATM   35  O6  UNL     1      -7.898  49.694  20.458  1.00  0.00    -0.290 OA
ATOM     36  H6  UNL     1      -7.767  49.008  21.100  1.00  0.00     0.244 HD
ENDBRANCH  28  35
ENDBRANCH  26  27
ENDBRANCH  22  26
BRANCH  24  37
HETATM   37  O7  UNL     1     -10.280  53.090  18.149  1.00  0.00    -0.393 OA
ATOM     38  H7  UNL     1      -9.491  52.796  17.711  1.00  0.00     0.210 HD
ENDBRANCH  24  37
BRANCH  25  39
HETATM   39  O8  UNL     1      -9.337  54.735  16.600  1.00  0.00    -0.388 OA
ATOM     40  H8  UNL     1     -10.092  54.272  16.257  1.00  0.00     0.210 HD
ENDBRANCH  25  39
ENDBRANCH  18  19
ENDBRANCH  13  18
BRANCH  15  41
HETATM   41  O9  UNL     1      -8.120  59.697  19.539  1.00  0.00    -0.391 OA
ATOM     42  H9  UNL     1      -8.120  60.314  20.262  1.00  0.00     0.210 HD
ENDBRANCH  15  41
ENDBRANCH   9  10
ENDBRANCH   7   8
ENDBRANCH   5   6
ENDBRANCH   4   5
ENDBRANCH   3   4
TORSDOF 16
ENDMDL
