MODEL 1
REMARK VINA RESULT: -8.105357632      0.000      0.000
REMARK  12 active torsions:
REMARK  status: ('A' for Active; 'I' for Inactive)
REMARK    1  A    between atoms: O1_2  and  C2_3 
REMARK    2  A    between atoms: C4_5  and  C5_6 
REMARK    3  A    between atoms: C5_6  and  O2_7 
REMARK    4  A    between atoms: O2_7  and  C6_8 
REMARK    5  A    between atoms: C8_11  and  N1_12 
REMARK       I    between atoms: N1_12  and  C9_14 
REMARK    6  A    between atoms: C9_14  and  C10_16 
REMARK    7  A    between atoms: C11_17  and  C12_18 
REMARK    8  A    between atoms: C13_20  and  O6_21 
REMARK    9  A    between atoms: C14_23  and  O7_24 
REMARK   10  A    between atoms: C15_26  and  O8_27 
REMARK   11  A    between atoms: C16_29  and  O9_30 
REMARK   12  A    between atoms: C21_36  and  O10_37 
ROOT
HETATM    1  N1  UNL     1      -4.331  60.296  20.580  1.00  0.00    -0.346 N 
ATOM      2  H1  UNL     1      -3.839  59.582  20.043  1.00  0.00     0.163 HD
HETATM    3  C9  UNL     1      -3.756  60.770  21.781  1.00  0.00     0.241 C 
HETATM    4  O4  UNL     1      -4.389  61.658  22.431  1.00  0.00    -0.269 OA
ENDROOT
BRANCH   1   5
HETATM    5  C8  UNL     1      -5.580  60.789  20.097  1.00  0.00     0.163 C 
HETATM    6  C6  UNL     1      -6.502  59.776  19.439  1.00  0.00     0.284 C 
HETATM    7  O3  UNL     1      -6.872  60.862  18.573  1.00  0.00    -0.357 OA
HETATM    8  C7  UNL     1      -5.540  61.263  18.654  1.00  0.00     0.201 C 
BRANCH   6   9
HETATM    9  O2  UNL     1      -7.512  59.301  20.174  1.00  0.00    -0.358 OA
BRANCH   9  10
HETATM   10  C5  UNL     1      -8.726  58.998  19.748  1.00  0.00     0.183 C 
BRANCH  10  11
HETATM   11  C4  UNL     1      -9.077  57.725  19.095  1.00  0.00     0.010 C 
HETATM   12  C3  UNL     1      -8.262  56.514  19.357  1.00  0.00     0.046 C 
HETATM   13  C2  UNL     1      -9.159  55.329  18.939  1.00  0.00     0.125 C 
HETATM   14  C18 UNL     1     -10.517  55.902  18.745  1.00  0.00     0.015 C 
HETATM   15  C17 UNL     1     -10.468  57.227  19.467  1.00  0.00     0.021 C 
HETATM   16  C19 UNL     1     -10.735  56.120  17.249  1.00  0.00     0.010 C 
HETATM   17  C20 UNL     1     -10.389  57.571  16.934  1.00  0.00     0.033 C 
HETATM   18  C21 UNL     1      -9.129  58.024  17.582  1.00  0.00     0.129 C 
BRANCH  13  19
HETATM   19  O1  UNL     1      -8.581  54.789  17.801  1.00  0.00    -0.390 OA
HETATM   20  C1  UNL     1      -7.373  54.207  18.180  1.00  0.00     0.202 C 
ENDBRANCH  13  19
BRANCH  18  21
HETATM   21  O10 UNL     1      -8.020  57.478  16.935  1.00  0.00    -0.395 OA
ATOM     22  H10 UNL     1      -8.229  56.624  16.575  1.00  0.00     0.210 HD
ENDBRANCH  18  21
ENDBRANCH  10  11
ENDBRANCH   9  10
ENDBRANCH   6   9
ENDBRANCH   1   5
BRANCH   3  23
HETATM   23  C10 UNL     1      -2.489  60.284  22.291  1.00  0.00     0.072 C 
HETATM   24  C11 UNL     1      -1.729  59.435  21.664  1.00  0.00     0.013 C 
BRANCH  24  25
HETATM   25  C12 UNL     1      -0.440  58.990  22.263  1.00  0.00     0.179 C 
HETATM   26  O5  UNL     1      -0.705  57.962  23.136  1.00  0.00    -0.347 OA
HETATM   27  C13 UNL     1       0.366  57.586  23.908  1.00  0.00     0.289 C 
HETATM   28  C14 UNL     1       1.635  57.941  23.199  1.00  0.00     0.204 C 
HETATM   29  C15 UNL     1       1.492  57.602  21.729  1.00  0.00     0.183 C 
HETATM   30  C16 UNL     1       0.492  58.578  21.141  1.00  0.00     0.182 C 
BRANCH  27  31
HETATM   31  O6  UNL     1       0.296  58.113  25.192  1.00  0.00    -0.368 OA
ATOM     32  H6  UNL     1       1.153  58.190  25.593  1.00  0.00     0.212 HD
ENDBRANCH  27  31
BRANCH  28  33
HETATM   33  O7  UNL     1       2.734  57.234  23.684  1.00  0.00    -0.388 OA
ATOM     34  H7  UNL     1       3.541  57.464  23.237  1.00  0.00     0.210 HD
ENDBRANCH  28  33
BRANCH  29  35
HETATM   35  O8  UNL     1       1.025  56.283  21.626  1.00  0.00    -0.390 OA
ATOM     36  H8  UNL     1       0.234  56.289  21.100  1.00  0.00     0.210 HD
ENDBRANCH  29  35
BRANCH  30  37
HETATM   37  O9  UNL     1       1.193  59.686  20.641  1.00  0.00    -0.390 OA
ATOM     38  H9  UNL     1       2.116  59.630  20.858  1.00  0.00     0.210 HD
ENDBRANCH  30  37
ENDBRANCH  24  25
ENDBRANCH   3  23
TORSDOF 12
ENDMDL
MODEL 2
REMARK VINA RESULT: -7.956075486      0.943      1.522
REMARK  12 active torsions:
REMARK  status: ('A' for Active; 'I' for Inactive)
REMARK    1  A    between atoms: O1_2  and  C2_3 
REMARK    2  A    between atoms: C4_5  and  C5_6 
REMARK    3  A    between atoms: C5_6  and  O2_7 
REMARK    4  A    between atoms: O2_7  and  C6_8 
REMARK    5  A    between atoms: C8_11  and  N1_12 
REMARK       I    between atoms: N1_12  and  C9_14 
REMARK    6  A    between atoms: C9_14  and  C10_16 
REMARK    7  A    between atoms: C11_17  and  C12_18 
REMARK    8  A    between atoms: C13_20  and  O6_21 
REMARK    9  A    between atoms: C14_23  and  O7_24 
REMARK   10  A    between atoms: C15_26  and  O8_27 
REMARK   11  A    between atoms: C16_29  and  O9_30 
REMARK   12  A    between atoms: C21_36  and  O10_37 
ROOT
HETATM    1  N1  UNL     1      -4.465  60.228  20.790  1.00  0.00    -0.346 N 
ATOM      2  H1  UNL     1      -4.034  59.443  20.302  1.00  0.00     0.163 HD
HETATM    3  C9  UNL     1      -3.800  60.797  21.900  1.00  0.00     0.241 C 
HETATM    4  O4  UNL     1      -4.359  61.771  22.490  1.00  0.00    -0.269 OA
ENDROOT
BRANCH   1   5
HETATM    5  C8  UNL     1      -5.724  60.721  20.332  1.00  0.00     0.163 C 
HETATM    6  C6  UNL     1      -6.622  59.728  19.615  1.00  0.00     0.284 C 
HETATM    7  O3  UNL     1      -7.015  60.854  18.812  1.00  0.00    -0.357 OA
HETATM    8  C7  UNL     1      -5.692  61.279  18.919  1.00  0.00     0.201 C 
BRANCH   6   9
HETATM    9  O2  UNL     1      -7.624  59.190  20.318  1.00  0.00    -0.358 OA
BRANCH   9  10
HETATM   10  C5  UNL     1      -8.775  58.746  19.843  1.00  0.00     0.183 C 
BRANCH  10  11
HETATM   11  C4  UNL     1      -8.914  57.535  19.017  1.00  0.00     0.010 C 
HETATM   12  C3  UNL     1      -8.535  57.574  17.584  1.00  0.00     0.046 C 
HETATM   13  C2  UNL     1      -8.340  56.096  17.181  1.00  0.00     0.125 C 
HETATM   14  C18 UNL     1      -8.328  55.330  18.455  1.00  0.00     0.015 C 
HETATM   15  C17 UNL     1      -8.061  56.373  19.513  1.00  0.00     0.021 C 
HETATM   16  C19 UNL     1      -9.711  54.712  18.655  1.00  0.00     0.010 C 
HETATM   17  C20 UNL     1     -10.513  55.645  19.555  1.00  0.00     0.033 C 
HETATM   18  C21 UNL     1     -10.379  57.077  19.177  1.00  0.00     0.129 C 
BRANCH  13  19
HETATM   19  O1  UNL     1      -9.383  55.788  16.320  1.00  0.00    -0.390 OA
HETATM   20  C1  UNL     1      -9.192  56.523  15.151  1.00  0.00     0.202 C 
ENDBRANCH  13  19
BRANCH  18  21
HETATM   21  O10 UNL     1     -11.108  57.349  18.019  1.00  0.00    -0.395 OA
ATOM     22  H10 UNL     1     -11.031  56.634  17.398  1.00  0.00     0.210 HD
ENDBRANCH  18  21
ENDBRANCH  10  11
ENDBRANCH   9  10
ENDBRANCH   6   9
ENDBRANCH   1   5
BRANCH   3  23
HETATM   23  C10 UNL     1      -2.521  60.313  22.383  1.00  0.00     0.072 C 
HETATM   24  C11 UNL     1      -1.770  59.472  21.734  1.00  0.00     0.013 C 
BRANCH  24  25
HETATM   25  C12 UNL     1      -0.468  59.028  22.305  1.00  0.00     0.179 C 
HETATM   26  O5  UNL     1      -0.709  57.975  23.155  1.00  0.00    -0.347 OA
HETATM   27  C13 UNL     1       0.376  57.593  23.904  1.00  0.00     0.289 C 
HETATM   28  C14 UNL     1       1.631  57.982  23.189  1.00  0.00     0.204 C 
HETATM   29  C15 UNL     1       1.474  57.679  21.712  1.00  0.00     0.183 C 
HETATM   30  C16 UNL     1       0.455  58.657  21.162  1.00  0.00     0.182 C 
BRANCH  27  31
HETATM   31  O6  UNL     1       0.316  58.086  25.201  1.00  0.00    -0.368 OA
ATOM     32  H6  UNL     1       1.018  58.700  25.383  1.00  0.00     0.212 HD
ENDBRANCH  27  31
BRANCH  28  33
HETATM   33  O7  UNL     1       2.746  57.277  23.641  1.00  0.00    -0.388 OA
ATOM     34  H7  UNL     1       3.235  56.875  22.933  1.00  0.00     0.210 HD
ENDBRANCH  28  33
BRANCH  29  35
HETATM   35  O8  UNL     1       1.022  56.358  21.581  1.00  0.00    -0.390 OA
ATOM     36  H8  UNL     1       0.230  56.262  22.098  1.00  0.00     0.210 HD
ENDBRANCH  29  35
BRANCH  30  37
HETATM   37  O9  UNL     1       1.136  59.786  20.682  1.00  0.00    -0.390 OA
ATOM     38  H9  UNL     1       2.063  59.733  20.881  1.00  0.00     0.210 HD
ENDBRANCH  30  37
ENDBRANCH  24  25
ENDBRANCH   3  23
TORSDOF 12
ENDMDL
MODEL 3
REMARK VINA RESULT: -7.569091649      1.078      1.723
REMARK  12 active torsions:
REMARK  status: ('A' for Active; 'I' for Inactive)
REMARK    1  A    between atoms: O1_2  and  C2_3 
REMARK    2  A    between atoms: C4_5  and  C5_6 
REMARK    3  A    between atoms: C5_6  and  O2_7 
REMARK    4  A    between atoms: O2_7  and  C6_8 
REMARK    5  A    between atoms: C8_11  and  N1_12 
REMARK       I    between atoms: N1_12  and  C9_14 
REMARK    6  A    between atoms: C9_14  and  C10_16 
REMARK    7  A    between atoms: C11_17  and  C12_18 
REMARK    8  A    between atoms: C13_20  and  O6_21 
REMARK    9  A    between atoms: C14_23  and  O7_24 
REMARK   10  A    between atoms: C15_26  and  O8_27 
REMARK   11  A    between atoms: C16_29  and  O9_30 
REMARK   12  A    between atoms: C21_36  and  O10_37 
ROOT
HETATM    1  N1  UNL     1      -4.501  60.474  20.782  1.00  0.00    -0.346 N 
ATOM      2  H1  UNL     1      -4.054  59.777  20.186  1.00  0.00     0.163 HD
HETATM    3  C9  UNL     1      -3.813  60.945  21.924  1.00  0.00     0.241 C 
HETATM    4  O4  UNL     1      -4.393  61.811  22.649  1.00  0.00    -0.269 OA
ENDROOT
BRANCH   1   5
HETATM    5  C8  UNL     1      -5.804  60.944  20.440  1.00  0.00     0.163 C 
HETATM    6  C6  UNL     1      -6.559  60.150  19.388  1.00  0.00     0.284 C 
HETATM    7  O3  UNL     1      -7.077  61.426  18.975  1.00  0.00    -0.357 OA
HETATM    8  C7  UNL     1      -5.820  61.938  19.290  1.00  0.00     0.201 C 
BRANCH   6   9
HETATM    9  O2  UNL     1      -7.496  59.300  19.820  1.00  0.00    -0.358 OA
BRANCH   9  10
HETATM   10  C5  UNL     1      -7.313  58.047  20.199  1.00  0.00     0.183 C 
BRANCH  10  11
HETATM   11  C4  UNL     1      -7.386  56.891  19.290  1.00  0.00     0.010 C 
HETATM   12  C3  UNL     1      -6.584  56.883  18.043  1.00  0.00     0.046 C 
HETATM   13  C2  UNL     1      -6.517  55.400  17.618  1.00  0.00     0.125 C 
HETATM   14  C18 UNL     1      -7.022  54.626  18.782  1.00  0.00     0.015 C 
HETATM   15  C17 UNL     1      -6.927  55.590  19.940  1.00  0.00     0.021 C 
HETATM   16  C19 UNL     1      -8.480  54.256  18.516  1.00  0.00     0.010 C 
HETATM   17  C20 UNL     1      -9.357  55.302  19.194  1.00  0.00     0.033 C 
HETATM   18  C21 UNL     1      -8.883  56.694  18.971  1.00  0.00     0.129 C 
BRANCH  13  19
HETATM   19  O1  UNL     1      -7.280  55.292  16.465  1.00  0.00    -0.390 OA
HETATM   20  C1  UNL     1      -6.636  56.020  15.467  1.00  0.00     0.202 C 
ENDBRANCH  13  19
BRANCH  18  21
HETATM   21  O10 UNL     1      -9.166  57.107  17.669  1.00  0.00    -0.395 OA
ATOM     22  H10 UNL     1      -8.701  56.569  17.039  1.00  0.00     0.210 HD
ENDBRANCH  18  21
ENDBRANCH  10  11
ENDBRANCH   9  10
ENDBRANCH   6   9
ENDBRANCH   1   5
BRANCH   3  23
HETATM   23  C10 UNL     1      -2.489  60.482  22.291  1.00  0.00     0.072 C 
HETATM   24  C11 UNL     1      -1.890  59.473  21.730  1.00  0.00     0.013 C 
BRANCH  24  25
HETATM   25  C12 UNL     1      -0.528  59.064  22.170  1.00  0.00     0.179 C 
HETATM   26  O5  UNL     1      -0.656  58.013  23.046  1.00  0.00    -0.347 OA
HETATM   27  C13 UNL     1       0.508  57.662  23.684  1.00  0.00     0.289 C 
HETATM   28  C14 UNL     1       1.675  58.077  22.845  1.00  0.00     0.204 C 
HETATM   29  C15 UNL     1       1.379  57.758  21.393  1.00  0.00     0.183 C 
HETATM   30  C16 UNL     1       0.286  58.707  20.943  1.00  0.00     0.182 C 
BRANCH  27  31
HETATM   31  O6  UNL     1       0.565  58.164  24.979  1.00  0.00    -0.368 OA
ATOM     32  H6  UNL     1       1.076  57.608  25.555  1.00  0.00     0.212 HD
ENDBRANCH  27  31
BRANCH  28  33
HETATM   33  O7  UNL     1       2.846  57.402  23.188  1.00  0.00    -0.388 OA
ATOM     34  H7  UNL     1       3.519  57.985  23.520  1.00  0.00     0.210 HD
ENDBRANCH  28  33
BRANCH  29  35
HETATM   35  O8  UNL     1       0.949  56.426  21.315  1.00  0.00    -0.390 OA
ATOM     36  H8  UNL     1       0.988  56.050  22.186  1.00  0.00     0.210 HD
ENDBRANCH  29  35
BRANCH  30  37
HETATM   37  O9  UNL     1       0.887  59.849  20.391  1.00  0.00    -0.390 OA
ATOM     38  H9  UNL     1       1.021  60.515  21.054  1.00  0.00     0.210 HD
ENDBRANCH  30  37
ENDBRANCH  24  25
ENDBRANCH   3  23
TORSDOF 12
ENDMDL
MODEL 4
REMARK VINA RESULT: -7.468303568      1.798      2.849
REMARK  12 active torsions:
REMARK  status: ('A' for Active; 'I' for Inactive)
REMARK    1  A    between atoms: O1_2  and  C2_3 
REMARK    2  A    between atoms: C4_5  and  C5_6 
REMARK    3  A    between atoms: C5_6  and  O2_7 
REMARK    4  A    between atoms: O2_7  and  C6_8 
REMARK    5  A    between atoms: C8_11  and  N1_12 
REMARK       I    between atoms: N1_12  and  C9_14 
REMARK    6  A    between atoms: C9_14  and  C10_16 
REMARK    7  A    between atoms: C11_17  and  C12_18 
REMARK    8  A    between atoms: C13_20  and  O6_21 
REMARK    9  A    between atoms: C14_23  and  O7_24 
REMARK   10  A    between atoms: C15_26  and  O8_27 
REMARK   11  A    between atoms: C16_29  and  O9_30 
REMARK   12  A    between atoms: C21_36  and  O10_37 
ROOT
HETATM    1  N1  UNL     1      -3.014  60.016  18.053  1.00  0.00    -0.346 N 
ATOM      2  H1  UNL     1      -2.255  59.610  17.506  1.00  0.00     0.163 HD
HETATM    3  C9  UNL     1      -2.879  60.105  19.457  1.00  0.00     0.241 C 
HETATM    4  O4  UNL     1      -3.838  60.614  20.114  1.00  0.00    -0.269 OA
ENDROOT
BRANCH   1   5
HETATM    5  C8  UNL     1      -4.183  60.479  17.378  1.00  0.00     0.163 C 
HETATM    6  C6  UNL     1      -4.561  59.755  16.097  1.00  0.00     0.284 C 
HETATM    7  O3  UNL     1      -4.998  61.047  15.643  1.00  0.00    -0.357 OA
HETATM    8  C7  UNL     1      -3.913  61.564  16.348  1.00  0.00     0.201 C 
BRANCH   6   9
HETATM    9  O2  UNL     1      -5.540  58.848  16.174  1.00  0.00    -0.358 OA
BRANCH   9  10
HETATM   10  C5  UNL     1      -6.807  59.076  16.475  1.00  0.00     0.183 C 
BRANCH  10  11
HETATM   11  C4  UNL     1      -7.437  58.676  17.745  1.00  0.00     0.010 C 
HETATM   12  C3  UNL     1      -8.645  57.817  17.729  1.00  0.00     0.046 C 
HETATM   13  C2  UNL     1      -8.728  57.215  19.149  1.00  0.00     0.125 C 
HETATM   14  C18 UNL     1      -7.424  57.524  19.793  1.00  0.00     0.015 C 
HETATM   15  C17 UNL     1      -6.511  57.861  18.640  1.00  0.00     0.021 C 
HETATM   16  C19 UNL     1      -7.613  58.743  20.695  1.00  0.00     0.010 C 
HETATM   17  C20 UNL     1      -7.191  59.977  19.905  1.00  0.00     0.033 C 
HETATM   18  C21 UNL     1      -7.715  59.985  18.513  1.00  0.00     0.129 C 
BRANCH  13  19
HETATM   19  O1  UNL     1      -9.834  57.796  19.752  1.00  0.00    -0.390 OA
HETATM   20  C1  UNL     1     -10.966  57.338  19.082  1.00  0.00     0.202 C 
ENDBRANCH  13  19
BRANCH  18  21
HETATM   21  O10 UNL     1      -9.079  60.281  18.503  1.00  0.00    -0.395 OA
ATOM     22  H10 UNL     1      -9.553  59.653  17.970  1.00  0.00     0.210 HD
ENDBRANCH  18  21
ENDBRANCH  10  11
ENDBRANCH   9  10
ENDBRANCH   6   9
ENDBRANCH   1   5
BRANCH   3  23
HETATM   23  C10 UNL     1      -1.701  59.640  20.164  1.00  0.00     0.072 C 
HETATM   24  C11 UNL     1      -1.618  59.546  21.458  1.00  0.00     0.013 C 
BRANCH  24  25
HETATM   25  C12 UNL     1      -0.367  59.059  22.102  1.00  0.00     0.179 C 
HETATM   26  O5  UNL     1      -0.697  58.048  22.972  1.00  0.00    -0.347 OA
HETATM   27  C13 UNL     1       0.333  57.638  23.780  1.00  0.00     0.289 C 
HETATM   28  C14 UNL     1       1.637  57.943  23.112  1.00  0.00     0.204 C 
HETATM   29  C15 UNL     1       1.530  57.599  21.639  1.00  0.00     0.183 C 
HETATM   30  C16 UNL     1       0.586  58.607  21.014  1.00  0.00     0.182 C 
BRANCH  27  31
HETATM   31  O6  UNL     1       0.240  58.176  25.058  1.00  0.00    -0.368 OA
ATOM     32  H6  UNL     1      -0.125  59.052  25.050  1.00  0.00     0.212 HD
ENDBRANCH  27  31
BRANCH  28  33
HETATM   33  O7  UNL     1       2.694  57.199  23.637  1.00  0.00    -0.388 OA
ATOM     34  H7  UNL     1       3.166  57.667  24.316  1.00  0.00     0.210 HD
ENDBRANCH  28  33
BRANCH  29  35
HETATM   35  O8  UNL     1       1.019  56.297  21.529  1.00  0.00    -0.390 OA
ATOM     36  H8  UNL     1       1.247  55.961  20.670  1.00  0.00     0.210 HD
ENDBRANCH  29  35
BRANCH  30  37
HETATM   37  O9  UNL     1       1.343  59.685  20.531  1.00  0.00    -0.390 OA
ATOM     38  H9  UNL     1       1.480  60.334  21.211  1.00  0.00     0.210 HD
ENDBRANCH  30  37
ENDBRANCH  24  25
ENDBRANCH   3  23
TORSDOF 12
ENDMDL
MODEL 5
REMARK VINA RESULT: -7.429426626      2.346      4.105
REMARK  12 active torsions:
REMARK  status: ('A' for Active; 'I' for Inactive)
REMARK    1  A    between atoms: O1_2  and  C2_3 
REMARK    2  A    between atoms: C4_5  and  C5_6 
REMARK    3  A    between atoms: C5_6  and  O2_7 
REMARK    4  A    between atoms: O2_7  and  C6_8 
REMARK    5  A    between atoms: C8_11  and  N1_12 
REMARK       I    between atoms: N1_12  and  C9_14 
REMARK    6  A    between atoms: C9_14  and  C10_16 
REMARK    7  A    between atoms: C11_17  and  C12_18 
REMARK    8  A    between atoms: C13_20  and  O6_21 
REMARK    9  A    between atoms: C14_23  and  O7_24 
REMARK   10  A    between atoms: C15_26  and  O8_27 
REMARK   11  A    between atoms: C16_29  and  O9_30 
REMARK   12  A    between atoms: C21_36  and  O10_37 
ROOT
HETATM    1  N1  UNL     1      -1.231  60.450  17.757  1.00  0.00    -0.346 N 
ATOM      2  H1  UNL     1      -0.420  60.046  17.289  1.00  0.00     0.163 HD
HETATM    3  C9  UNL     1      -1.590  59.977  19.040  1.00  0.00     0.241 C 
HETATM    4  O4  UNL     1      -2.603  60.496  19.600  1.00  0.00    -0.269 OA
ENDROOT
BRANCH   1   5
HETATM    5  C8  UNL     1      -1.971  61.477  17.098  1.00  0.00     0.163 C 
HETATM    6  C6  UNL     1      -3.218  61.041  16.348  1.00  0.00     0.284 C 
HETATM    7  O3  UNL     1      -2.865  62.074  15.412  1.00  0.00    -0.357 OA
HETATM    8  C7  UNL     1      -1.540  61.724  15.661  1.00  0.00     0.201 C 
BRANCH   6   9
HETATM    9  O2  UNL     1      -4.395  61.237  16.952  1.00  0.00    -0.358 OA
BRANCH   9  10
HETATM   10  C5  UNL     1      -5.529  60.607  16.698  1.00  0.00     0.183 C 
BRANCH  10  11
HETATM   11  C4  UNL     1      -6.393  60.014  17.733  1.00  0.00     0.010 C 
HETATM   12  C3  UNL     1      -7.752  59.543  17.376  1.00  0.00     0.046 C 
HETATM   13  C2  UNL     1      -8.154  58.579  18.513  1.00  0.00     0.125 C 
HETATM   14  C18 UNL     1      -6.909  58.329  19.286  1.00  0.00     0.015 C 
HETATM   15  C17 UNL     1      -5.801  58.754  18.354  1.00  0.00     0.021 C 
HETATM   16  C19 UNL     1      -6.929  59.218  20.528  1.00  0.00     0.010 C 
HETATM   17  C20 UNL     1      -6.139  60.481  20.209  1.00  0.00     0.033 C 
HETATM   18  C21 UNL     1      -6.462  61.050  18.874  1.00  0.00     0.129 C 
BRANCH  13  19
HETATM   19  O1  UNL     1      -9.166  59.212  19.218  1.00  0.00    -0.390 OA
HETATM   20  C1  UNL     1     -10.247  58.334  19.279  1.00  0.00     0.202 C 
ENDBRANCH  13  19
BRANCH  18  21
HETATM   21  O10 UNL     1      -7.709  61.676  18.895  1.00  0.00    -0.395 OA
ATOM     22  H10 UNL     1      -7.768  62.328  18.207  1.00  0.00     0.210 HD
ENDBRANCH  18  21
ENDBRANCH  10  11
ENDBRANCH   9  10
ENDBRANCH   6   9
ENDBRANCH   1   5
BRANCH   3  23
HETATM   23  C10 UNL     1      -0.853  58.936  19.728  1.00  0.00     0.072 C 
HETATM   24  C11 UNL     1      -0.579  58.956  20.999  1.00  0.00     0.013 C 
BRANCH  24  25
HETATM   25  C12 UNL     1       0.185  57.842  21.625  1.00  0.00     0.179 C 
HETATM   26  O5  UNL     1       1.325  57.634  20.887  1.00  0.00    -0.347 OA
HETATM   27  C13 UNL     1       2.027  56.506  21.234  1.00  0.00     0.289 C 
HETATM   28  C14 UNL     1       1.727  56.156  22.657  1.00  0.00     0.204 C 
HETATM   29  C15 UNL     1       1.706  57.426  23.485  1.00  0.00     0.183 C 
HETATM   30  C16 UNL     1       0.479  58.212  23.065  1.00  0.00     0.182 C 
BRANCH  27  31
HETATM   31  O6  UNL     1       1.792  55.455  20.356  1.00  0.00    -0.368 OA
ATOM     32  H6  UNL     1       1.127  54.860  20.681  1.00  0.00     0.212 HD
ENDBRANCH  27  31
BRANCH  28  33
HETATM   33  O7  UNL     1       2.687  55.313  23.214  1.00  0.00    -0.388 OA
ATOM     34  H7  UNL     1       2.372  54.424  23.323  1.00  0.00     0.210 HD
ENDBRANCH  28  33
BRANCH  29  35
HETATM   35  O8  UNL     1       2.879  58.146  23.214  1.00  0.00    -0.390 OA
ATOM     36  H8  UNL     1       3.206  58.500  24.033  1.00  0.00     0.210 HD
ENDBRANCH  29  35
BRANCH  30  37
HETATM   37  O9  UNL     1      -0.588  57.853  23.903  1.00  0.00    -0.390 OA
ATOM     38  H9  UNL     1      -0.564  58.348  24.713  1.00  0.00     0.210 HD
ENDBRANCH  30  37
ENDBRANCH  24  25
ENDBRANCH   3  23
TORSDOF 12
ENDMDL
