MODEL 1
REMARK VINA RESULT: -6.905349555      0.000      0.000
REMARK  13 active torsions:
REMARK  status: ('A' for Active; 'I' for Inactive)
REMARK    1  A    between atoms: C2_2  and  C3_3 
REMARK    2  A    between atoms: C3_3  and  O1_4 
REMARK    3  A    between atoms: C6_7  and  N1_8 
REMARK    4  A    between atoms: C7_12  and  O2_13 
REMARK    5  A    between atoms: O2_13  and  C8_14 
REMARK    6  A    between atoms: C12_18  and  O3_19 
REMARK    7  A    between atoms: C13_21  and  O4_22 
REMARK    8  A    between atoms: O4_22  and  C14_23 
REMARK    9  A    between atoms: C15_25  and  C16_26 
REMARK   10  A    between atoms: C16_26  and  N2_27 
REMARK   11  A    between atoms: C17_31  and  O6_32 
REMARK   12  A    between atoms: C18_34  and  O7_35 
REMARK   13  A    between atoms: C19_37  and  O8_38 
ROOT
HETATM    1  C8  UNL     1      -1.651  60.232  18.296  1.00  0.00     0.157 C 
HETATM    2  C9  UNL     1      -0.598  61.293  18.106  1.00  0.00     0.015 C 
HETATM    3  C10 UNL     1      -1.021  62.259  17.018  1.00  0.00     0.012 C 
HETATM    4  C11 UNL     1       0.679  60.644  17.594  1.00  0.00     0.041 C 
HETATM    5  C12 UNL     1       1.236  59.636  18.534  1.00  0.00     0.150 C 
HETATM    6  C13 UNL     1       0.281  59.399  19.688  1.00  0.00     0.184 C 
HETATM    7  C19 UNL     1      -1.125  59.128  19.169  1.00  0.00     0.179 C 
ENDROOT
BRANCH   1   8
HETATM    8  O2  UNL     1      -2.866  60.689  18.680  1.00  0.00    -0.376 OA
BRANCH   8   9
HETATM    9  C7  UNL     1      -3.944  59.865  18.686  1.00  0.00     0.153 C 
HETATM   10  C6  UNL     1      -5.112  60.562  19.333  1.00  0.00     0.215 C 
HETATM   11  C5  UNL     1      -6.236  59.552  19.475  1.00  0.00     0.078 C 
HETATM   12  C3  UNL     1      -6.547  58.834  18.170  1.00  0.00     0.083 C 
HETATM   13  C21 UNL     1      -5.862  59.633  17.065  1.00  0.00     0.023 C 
HETATM   14  C20 UNL     1      -4.367  59.618  17.228  1.00  0.00     0.041 C 
HETATM   15  C22 UNL     1      -6.216  59.066  15.712  1.00  0.00     0.013 C 
BRANCH  10  16
HETATM   16  N1  UNL     1      -4.717  60.938  20.682  1.00  0.00    -0.072 N 
ATOM     17  H13 UNL     1      -5.459  61.406  21.204  1.00  0.00     0.274 HD
ATOM     18  H12 UNL     1      -4.605  60.140  21.306  1.00  0.00     0.274 HD
ATOM     19  H11 UNL     1      -3.872  61.502  20.593  1.00  0.00     0.274 HD
ENDBRANCH  10  16
BRANCH  12  20
HETATM   20  C2  UNL     1      -6.072  57.434  18.198  1.00  0.00     0.001 C 
HETATM   21  C1  UNL     1      -6.788  56.454  18.729  1.00  0.00     0.010 C 
ENDBRANCH  12  20
BRANCH  12  22
HETATM   22  O1  UNL     1      -7.906  58.921  17.911  1.00  0.00    -0.381 OA
HETATM   23  C4  UNL     1      -8.585  59.864  18.634  1.00  0.00     0.203 C 
ENDBRANCH  12  22
ENDBRANCH   8   9
ENDBRANCH   1   8
BRANCH   7  24
HETATM   24  O8  UNL     1      -1.035  57.918  18.461  1.00  0.00    -0.390 OA
ATOM     25  H8  UNL     1      -1.725  57.317  18.717  1.00  0.00     0.210 HD
ENDBRANCH   7  24
BRANCH   6  26
HETATM   26  O4  UNL     1       0.738  58.370  20.487  1.00  0.00    -0.348 OA
BRANCH  26  27
HETATM   27  C14 UNL     1       0.740  58.737  21.825  1.00  0.00     0.292 C 
HETATM   28  O5  UNL     1       1.997  58.663  22.398  1.00  0.00    -0.349 OA
HETATM   29  C15 UNL     1       1.966  57.769  23.433  1.00  0.00     0.181 C 
HETATM   30  C17 UNL     1       0.536  57.669  23.906  1.00  0.00     0.182 C 
HETATM   31  C18 UNL     1      -0.227  57.952  22.650  1.00  0.00     0.204 C 
BRANCH  29  32
HETATM   32  C16 UNL     1       2.343  56.404  22.874  1.00  0.00     0.264 C 
BRANCH  32  33
HETATM   33  N2  UNL     1       3.106  56.524  21.657  1.00  0.00    -0.077 N 
ATOM     34  H23 UNL     1       4.083  56.744  21.848  1.00  0.00     0.274 HD
ATOM     35  H22 UNL     1       3.235  55.618  21.206  1.00  0.00     0.274 HD
ATOM     36  H21 UNL     1       2.689  57.202  21.019  1.00  0.00     0.274 HD
ENDBRANCH  32  33
ENDBRANCH  29  32
BRANCH  30  37
HETATM   37  O6  UNL     1       0.288  58.587  24.925  1.00  0.00    -0.390 OA
ATOM     38  H6  UNL     1      -0.300  59.271  24.625  1.00  0.00     0.210 HD
ENDBRANCH  30  37
BRANCH  31  39
HETATM   39  O7  UNL     1      -1.378  58.709  22.940  1.00  0.00    -0.388 OA
ATOM     40  H7  UNL     1      -2.165  58.186  22.844  1.00  0.00     0.210 HD
ENDBRANCH  31  39
ENDBRANCH  26  27
ENDBRANCH   6  26
BRANCH   5  41
HETATM   41  O3  UNL     1       1.603  58.444  17.917  1.00  0.00    -0.393 OA
ATOM     42  H3  UNL     1       0.876  57.990  17.508  1.00  0.00     0.210 HD
ENDBRANCH   5  41
TORSDOF 13
ENDMDL
MODEL 2
REMARK VINA RESULT: -6.503702540      3.184      5.033
REMARK  13 active torsions:
REMARK  status: ('A' for Active; 'I' for Inactive)
REMARK    1  A    between atoms: C2_2  and  C3_3 
REMARK    2  A    between atoms: C3_3  and  O1_4 
REMARK    3  A    between atoms: C6_7  and  N1_8 
REMARK    4  A    between atoms: C7_12  and  O2_13 
REMARK    5  A    between atoms: O2_13  and  C8_14 
REMARK    6  A    between atoms: C12_18  and  O3_19 
REMARK    7  A    between atoms: C13_21  and  O4_22 
REMARK    8  A    between atoms: O4_22  and  C14_23 
REMARK    9  A    between atoms: C15_25  and  C16_26 
REMARK   10  A    between atoms: C16_26  and  N2_27 
REMARK   11  A    between atoms: C17_31  and  O6_32 
REMARK   12  A    between atoms: C18_34  and  O7_35 
REMARK   13  A    between atoms: C19_37  and  O8_38 
ROOT
HETATM    1  C8  UNL     1      -1.370  60.104  20.575  1.00  0.00     0.157 C 
HETATM    2  C9  UNL     1      -2.379  59.922  21.679  1.00  0.00     0.015 C 
HETATM    3  C10 UNL     1      -3.740  60.415  21.230  1.00  0.00     0.012 C 
HETATM    4  C11 UNL     1      -1.998  60.808  22.855  1.00  0.00     0.041 C 
HETATM    5  C12 UNL     1      -0.663  60.481  23.422  1.00  0.00     0.150 C 
HETATM    6  C13 UNL     1       0.043  59.452  22.560  1.00  0.00     0.184 C 
HETATM    7  C19 UNL     1       0.019  59.875  21.097  1.00  0.00     0.179 C 
ENDROOT
BRANCH   1   8
HETATM    8  O2  UNL     1      -1.635  59.424  19.435  1.00  0.00    -0.376 OA
BRANCH   8   9
HETATM    9  C7  UNL     1      -0.903  59.642  18.313  1.00  0.00     0.153 C 
HETATM   10  C6  UNL     1      -1.286  58.640  17.255  1.00  0.00     0.215 C 
HETATM   11  C5  UNL     1      -0.329  58.809  16.089  1.00  0.00     0.078 C 
HETATM   12  C3  UNL     1      -0.230  60.251  15.615  1.00  0.00     0.083 C 
HETATM   13  C21 UNL     1      -1.406  60.992  16.244  1.00  0.00     0.023 C 
HETATM   14  C20 UNL     1      -1.298  61.015  17.743  1.00  0.00     0.041 C 
HETATM   15  C22 UNL     1      -1.465  62.411  15.732  1.00  0.00     0.013 C 
BRANCH  10  16
HETATM   16  N1  UNL     1      -1.055  57.309  17.795  1.00  0.00    -0.072 N 
ATOM     17  H13 UNL     1      -0.771  56.631  17.088  1.00  0.00     0.274 HD
ATOM     18  H12 UNL     1      -0.217  57.249  18.374  1.00  0.00     0.274 HD
ATOM     19  H11 UNL     1      -1.906  57.043  18.289  1.00  0.00     0.274 HD
ENDBRANCH  10  16
BRANCH  12  20
HETATM   20  C2  UNL     1       1.061  60.858  16.004  1.00  0.00     0.001 C 
HETATM   21  C1  UNL     1       2.148  60.132  16.222  1.00  0.00     0.010 C 
ENDBRANCH  12  20
BRANCH  12  22
HETATM   22  O1  UNL     1      -0.440  60.300  14.246  1.00  0.00    -0.381 OA
HETATM   23  C4  UNL     1      -0.418  59.092  13.602  1.00  0.00     0.203 C 
ENDBRANCH  12  22
ENDBRANCH   8   9
ENDBRANCH   1   8
BRANCH   7  24
HETATM   24  O8  UNL     1       0.787  61.050  21.036  1.00  0.00    -0.390 OA
ATOM     25  H8  UNL     1       0.879  61.447  21.895  1.00  0.00     0.210 HD
ENDBRANCH   7  24
BRANCH   6  26
HETATM   26  O4  UNL     1       1.331  59.247  23.012  1.00  0.00    -0.348 OA
BRANCH  26  27
HETATM   27  C14 UNL     1       1.487  57.967  23.523  1.00  0.00     0.292 C 
HETATM   28  O5  UNL     1       2.509  57.266  22.908  1.00  0.00    -0.349 OA
HETATM   29  C15 UNL     1       1.993  56.143  22.321  1.00  0.00     0.181 C 
HETATM   30  C17 UNL     1       0.705  55.807  23.033  1.00  0.00     0.182 C 
HETATM   31  C18 UNL     1       0.232  57.158  23.472  1.00  0.00     0.204 C 
BRANCH  29  32
HETATM   32  C16 UNL     1       1.625  56.501  20.887  1.00  0.00     0.264 C 
BRANCH  32  33
HETATM   33  N2  UNL     1       2.694  56.183  19.973  1.00  0.00    -0.077 N 
ATOM     34  H23 UNL     1       2.466  56.465  19.020  1.00  0.00     0.274 HD
ATOM     35  H22 UNL     1       3.506  56.782  20.124  1.00  0.00     0.274 HD
ATOM     36  H21 UNL     1       2.945  55.196  20.020  1.00  0.00     0.274 HD
ENDBRANCH  32  33
ENDBRANCH  29  32
BRANCH  30  37
HETATM   37  O6  UNL     1       0.940  54.932  24.091  1.00  0.00    -0.390 OA
ATOM     38  H6  UNL     1       1.214  55.407  24.867  1.00  0.00     0.210 HD
ENDBRANCH  30  37
BRANCH  31  39
HETATM   39  O7  UNL     1      -0.370  57.074  24.742  1.00  0.00    -0.388 OA
ATOM     40  H7  UNL     1      -0.966  57.798  24.887  1.00  0.00     0.210 HD
ENDBRANCH  31  39
ENDBRANCH  26  27
ENDBRANCH   6  26
BRANCH   5  41
HETATM   41  O3  UNL     1       0.135  61.599  23.645  1.00  0.00    -0.393 OA
ATOM     42  H3  UNL     1       0.968  61.394  24.054  1.00  0.00     0.210 HD
ENDBRANCH   5  41
TORSDOF 13
ENDMDL
MODEL 3
REMARK VINA RESULT: -6.445863120      2.731      4.341
REMARK  13 active torsions:
REMARK  status: ('A' for Active; 'I' for Inactive)
REMARK    1  A    between atoms: C2_2  and  C3_3 
REMARK    2  A    between atoms: C3_3  and  O1_4 
REMARK    3  A    between atoms: C6_7  and  N1_8 
REMARK    4  A    between atoms: C7_12  and  O2_13 
REMARK    5  A    between atoms: O2_13  and  C8_14 
REMARK    6  A    between atoms: C12_18  and  O3_19 
REMARK    7  A    between atoms: C13_21  and  O4_22 
REMARK    8  A    between atoms: O4_22  and  C14_23 
REMARK    9  A    between atoms: C15_25  and  C16_26 
REMARK   10  A    between atoms: C16_26  and  N2_27 
REMARK   11  A    between atoms: C17_31  and  O6_32 
REMARK   12  A    between atoms: C18_34  and  O7_35 
REMARK   13  A    between atoms: C19_37  and  O8_38 
ROOT
HETATM    1  C8  UNL     1      -1.560  60.059  20.732  1.00  0.00     0.157 C 
HETATM    2  C9  UNL     1      -2.472  59.993  21.930  1.00  0.00     0.015 C 
HETATM    3  C10 UNL     1      -3.847  60.514  21.567  1.00  0.00     0.012 C 
HETATM    4  C11 UNL     1      -1.954  60.935  23.005  1.00  0.00     0.041 C 
HETATM    5  C12 UNL     1      -0.586  60.587  23.474  1.00  0.00     0.150 C 
HETATM    6  C13 UNL     1       0.001  59.475  22.626  1.00  0.00     0.184 C 
HETATM    7  C19 UNL     1      -0.138  59.804  21.146  1.00  0.00     0.179 C 
ENDROOT
BRANCH   1   8
HETATM    8  O2  UNL     1      -1.951  59.319  19.668  1.00  0.00    -0.376 OA
BRANCH   8   9
HETATM    9  C7  UNL     1      -1.951  59.850  18.419  1.00  0.00     0.153 C 
HETATM   10  C6  UNL     1      -1.440  58.830  17.435  1.00  0.00     0.215 C 
HETATM   11  C5  UNL     1      -1.294  59.516  16.089  1.00  0.00     0.078 C 
HETATM   12  C3  UNL     1      -2.555  60.255  15.667  1.00  0.00     0.083 C 
HETATM   13  C21 UNL     1      -3.672  59.755  16.579  1.00  0.00     0.023 C 
HETATM   14  C20 UNL     1      -3.409  60.121  18.013  1.00  0.00     0.041 C 
HETATM   15  C22 UNL     1      -4.997  60.341  16.155  1.00  0.00     0.013 C 
BRANCH  10  16
HETATM   16  N1  UNL     1      -0.102  58.438  17.850  1.00  0.00    -0.072 N 
ATOM     17  H13 UNL     1      -0.068  58.062  18.799  1.00  0.00     0.274 HD
ATOM     18  H12 UNL     1       0.241  57.606  17.371  1.00  0.00     0.274 HD
ATOM     19  H11 UNL     1       0.495  59.254  17.720  1.00  0.00     0.274 HD
ENDBRANCH  10  16
BRANCH  12  20
HETATM   20  C2  UNL     1      -2.384  61.719  15.775  1.00  0.00     0.001 C 
HETATM   21  C1  UNL     1      -1.192  62.296  15.758  1.00  0.00     0.010 C 
ENDBRANCH  12  20
BRANCH  12  22
HETATM   22  O1  UNL     1      -2.910  59.862  14.385  1.00  0.00    -0.381 OA
HETATM   23  C4  UNL     1      -1.990  59.091  13.729  1.00  0.00     0.203 C 
ENDBRANCH  12  22
ENDBRANCH   8   9
ENDBRANCH   1   8
BRANCH   7  24
HETATM   24  O8  UNL     1       0.664  60.938  20.939  1.00  0.00    -0.390 OA
ATOM     25  H8  UNL     1       0.437  61.636  21.543  1.00  0.00     0.210 HD
ENDBRANCH   7  24
BRANCH   6  26
HETATM   26  O4  UNL     1       1.315  59.244  22.978  1.00  0.00    -0.348 OA
BRANCH  26  27
HETATM   27  C14 UNL     1       1.478  57.972  23.507  1.00  0.00     0.292 C 
HETATM   28  O5  UNL     1       2.488  57.259  22.886  1.00  0.00    -0.349 OA
HETATM   29  C15 UNL     1       1.959  56.128  22.327  1.00  0.00     0.181 C 
HETATM   30  C17 UNL     1       0.683  55.807  23.068  1.00  0.00     0.182 C 
HETATM   31  C18 UNL     1       0.221  57.165  23.492  1.00  0.00     0.204 C 
BRANCH  29  32
HETATM   32  C16 UNL     1       1.565  56.462  20.894  1.00  0.00     0.264 C 
BRANCH  32  33
HETATM   33  N2  UNL     1       2.659  56.240  19.981  1.00  0.00    -0.077 N 
ATOM     34  H23 UNL     1       3.311  55.543  20.341  1.00  0.00     0.274 HD
ATOM     35  H22 UNL     1       2.351  55.749  19.141  1.00  0.00     0.274 HD
ATOM     36  H21 UNL     1       3.135  57.112  19.749  1.00  0.00     0.274 HD
ENDBRANCH  32  33
ENDBRANCH  29  32
BRANCH  30  37
HETATM   37  O6  UNL     1       0.936  54.948  24.136  1.00  0.00    -0.390 OA
ATOM     38  H6  UNL     1       1.269  54.114  23.825  1.00  0.00     0.210 HD
ENDBRANCH  30  37
BRANCH  31  39
HETATM   39  O7  UNL     1      -0.358  57.103  24.775  1.00  0.00    -0.388 OA
ATOM     40  H7  UNL     1      -1.254  56.791  24.731  1.00  0.00     0.210 HD
ENDBRANCH  31  39
ENDBRANCH  26  27
ENDBRANCH   6  26
BRANCH   5  41
HETATM   41  O3  UNL     1       0.270  61.681  23.552  1.00  0.00    -0.393 OA
ATOM     42  H3  UNL     1       0.261  62.110  24.399  1.00  0.00     0.210 HD
ENDBRANCH   5  41
TORSDOF 13
ENDMDL
MODEL 4
REMARK VINA RESULT: -6.379343028      1.380      1.924
REMARK  13 active torsions:
REMARK  status: ('A' for Active; 'I' for Inactive)
REMARK    1  A    between atoms: C2_2  and  C3_3 
REMARK    2  A    between atoms: C3_3  and  O1_4 
REMARK    3  A    between atoms: C6_7  and  N1_8 
REMARK    4  A    between atoms: C7_12  and  O2_13 
REMARK    5  A    between atoms: O2_13  and  C8_14 
REMARK    6  A    between atoms: C12_18  and  O3_19 
REMARK    7  A    between atoms: C13_21  and  O4_22 
REMARK    8  A    between atoms: O4_22  and  C14_23 
REMARK    9  A    between atoms: C15_25  and  C16_26 
REMARK   10  A    between atoms: C16_26  and  N2_27 
REMARK   11  A    between atoms: C17_31  and  O6_32 
REMARK   12  A    between atoms: C18_34  and  O7_35 
REMARK   13  A    between atoms: C19_37  and  O8_38 
ROOT
HETATM    1  C8  UNL     1      -1.765  60.095  16.946  1.00  0.00     0.157 C 
HETATM    2  C9  UNL     1      -1.191  61.413  17.398  1.00  0.00     0.015 C 
HETATM    3  C10 UNL     1      -1.272  62.429  16.277  1.00  0.00     0.012 C 
HETATM    4  C11 UNL     1       0.293  61.242  17.682  1.00  0.00     0.041 C 
HETATM    5  C12 UNL     1       0.570  60.251  18.756  1.00  0.00     0.150 C 
HETATM    6  C13 UNL     1      -0.706  59.544  19.169  1.00  0.00     0.184 C 
HETATM    7  C19 UNL     1      -1.446  59.019  17.945  1.00  0.00     0.179 C 
ENDROOT
BRANCH   1   8
HETATM    8  O2  UNL     1      -3.070  60.127  16.588  1.00  0.00    -0.376 OA
BRANCH   8   9
HETATM    9  C7  UNL     1      -4.038  60.318  17.519  1.00  0.00     0.153 C 
HETATM   10  C6  UNL     1      -5.170  61.111  16.919  1.00  0.00     0.215 C 
HETATM   11  C5  UNL     1      -6.143  61.448  18.033  1.00  0.00     0.078 C 
HETATM   12  C3  UNL     1      -6.560  60.225  18.838  1.00  0.00     0.083 C 
HETATM   13  C21 UNL     1      -6.134  59.008  18.022  1.00  0.00     0.023 C 
HETATM   14  C20 UNL     1      -4.639  58.947  17.874  1.00  0.00     0.041 C 
HETATM   15  C22 UNL     1      -6.616  57.739  18.683  1.00  0.00     0.013 C 
BRANCH  10  16
HETATM   16  N1  UNL     1      -4.627  62.375  16.443  1.00  0.00    -0.072 N 
ATOM     17  H13 UNL     1      -5.200  63.180  16.697  1.00  0.00     0.274 HD
ATOM     18  H12 UNL     1      -3.781  62.660  16.935  1.00  0.00     0.274 HD
ATOM     19  H11 UNL     1      -4.494  62.275  15.437  1.00  0.00     0.274 HD
ENDBRANCH  10  16
BRANCH  12  20
HETATM   20  C2  UNL     1      -5.934  60.223  20.177  1.00  0.00     0.001 C 
HETATM   21  C1  UNL     1      -5.457  61.325  20.738  1.00  0.00     0.010 C 
ENDBRANCH  12  20
BRANCH  12  22
HETATM   22  O1  UNL     1      -7.943  60.169  18.905  1.00  0.00    -0.381 OA
HETATM   23  C4  UNL     1      -8.608  61.116  18.174  1.00  0.00     0.203 C 
ENDBRANCH  12  22
ENDBRANCH   8   9
ENDBRANCH   1   8
BRANCH   7  24
HETATM   24  O8  UNL     1      -0.602  58.042  17.391  1.00  0.00    -0.390 OA
ATOM     25  H8  UNL     1       0.099  58.438  16.886  1.00  0.00     0.210 HD
ENDBRANCH   7  24
BRANCH   6  26
HETATM   26  O4  UNL     1      -0.429  58.536  20.070  1.00  0.00    -0.348 OA
BRANCH  26  27
HETATM   27  C14 UNL     1      -0.062  59.051  21.304  1.00  0.00     0.292 C 
HETATM   28  O5  UNL     1       1.284  58.882  21.577  1.00  0.00    -0.349 OA
HETATM   29  C15 UNL     1       1.420  58.126  22.709  1.00  0.00     0.181 C 
HETATM   30  C17 UNL     1       0.146  58.267  23.508  1.00  0.00     0.182 C 
HETATM   31  C18 UNL     1      -0.869  58.499  22.434  1.00  0.00     0.204 C 
BRANCH  29  32
HETATM   32  C16 UNL     1       1.513  56.667  22.280  1.00  0.00     0.264 C 
BRANCH  32  33
HETATM   33  N2  UNL     1       2.547  56.471  21.295  1.00  0.00    -0.077 N 
ATOM     34  H23 UNL     1       2.309  55.720  20.648  1.00  0.00     0.274 HD
ATOM     35  H22 UNL     1       2.583  57.245  20.631  1.00  0.00     0.274 HD
ATOM     36  H21 UNL     1       3.455  56.313  21.732  1.00  0.00     0.274 HD
ENDBRANCH  32  33
ENDBRANCH  29  32
BRANCH  30  37
HETATM   37  O6  UNL     1       0.247  59.321  24.413  1.00  0.00    -0.390 OA
ATOM     38  H6  UNL     1      -0.587  59.768  24.504  1.00  0.00     0.210 HD
ENDBRANCH  30  37
BRANCH  31  39
HETATM   39  O7  UNL     1      -1.834  59.428  22.869  1.00  0.00    -0.388 OA
ATOM     40  H7  UNL     1      -2.392  59.053  23.541  1.00  0.00     0.210 HD
ENDBRANCH  31  39
ENDBRANCH  26  27
ENDBRANCH   6  26
BRANCH   5  41
HETATM   41  O3  UNL     1       1.577  59.347  18.431  1.00  0.00    -0.393 OA
ATOM     42  H3  UNL     1       2.451  59.707  18.520  1.00  0.00     0.210 HD
ENDBRANCH   5  41
TORSDOF 13
ENDMDL
MODEL 5
REMARK VINA RESULT: -6.154633362      1.709      2.103
REMARK  13 active torsions:
REMARK  status: ('A' for Active; 'I' for Inactive)
REMARK    1  A    between atoms: C2_2  and  C3_3 
REMARK    2  A    between atoms: C3_3  and  O1_4 
REMARK    3  A    between atoms: C6_7  and  N1_8 
REMARK    4  A    between atoms: C7_12  and  O2_13 
REMARK    5  A    between atoms: O2_13  and  C8_14 
REMARK    6  A    between atoms: C12_18  and  O3_19 
REMARK    7  A    between atoms: C13_21  and  O4_22 
REMARK    8  A    between atoms: O4_22  and  C14_23 
REMARK    9  A    between atoms: C15_25  and  C16_26 
REMARK   10  A    between atoms: C16_26  and  N2_27 
REMARK   11  A    between atoms: C17_31  and  O6_32 
REMARK   12  A    between atoms: C18_34  and  O7_35 
REMARK   13  A    between atoms: C19_37  and  O8_38 
ROOT
HETATM    1  C8  UNL     1      -2.883  60.879  16.815  1.00  0.00     0.157 C 
HETATM    2  C9  UNL     1      -1.861  61.983  16.909  1.00  0.00     0.015 C 
HETATM    3  C10 UNL     1      -1.899  62.837  15.659  1.00  0.00     0.012 C 
HETATM    4  C11 UNL     1      -0.468  61.373  16.938  1.00  0.00     0.041 C 
HETATM    5  C12 UNL     1      -0.251  60.472  18.101  1.00  0.00     0.150 C 
HETATM    6  C13 UNL     1      -1.545  60.267  18.864  1.00  0.00     0.184 C 
HETATM    7  C19 UNL     1      -2.669  59.877  17.913  1.00  0.00     0.179 C 
ENDROOT
BRANCH   1   8
HETATM    8  O2  UNL     1      -4.167  61.291  16.705  1.00  0.00    -0.376 OA
BRANCH   8   9
HETATM    9  C7  UNL     1      -5.102  60.887  17.602  1.00  0.00     0.153 C 
HETATM   10  C6  UNL     1      -6.304  61.792  17.525  1.00  0.00     0.215 C 
HETATM   11  C5  UNL     1      -7.244  61.412  18.655  1.00  0.00     0.078 C 
HETATM   12  C3  UNL     1      -7.551  59.923  18.686  1.00  0.00     0.083 C 
HETATM   13  C21 UNL     1      -7.093  59.360  17.344  1.00  0.00     0.023 C 
HETATM   14  C20 UNL     1      -5.605  59.497  17.176  1.00  0.00     0.041 C 
HETATM   15  C22 UNL     1      -7.470  57.903  17.230  1.00  0.00     0.013 C 
BRANCH  10  16
HETATM   16  N1  UNL     1      -5.858  63.151  17.793  1.00  0.00    -0.072 N 
ATOM     17  H13 UNL     1      -5.615  63.669  16.948  1.00  0.00     0.274 HD
ATOM     18  H12 UNL     1      -6.607  63.765  18.110  1.00  0.00     0.274 HD
ATOM     19  H11 UNL     1      -5.087  63.080  18.457  1.00  0.00     0.274 HD
ENDBRANCH  10  16
BRANCH  12  20
HETATM   20  C2  UNL     1      -6.867  59.255  19.814  1.00  0.00     0.001 C 
HETATM   21  C1  UNL     1      -7.531  58.637  20.780  1.00  0.00     0.010 C 
ENDBRANCH  12  20
BRANCH  12  22
HETATM   22  O1  UNL     1      -8.925  59.738  18.724  1.00  0.00    -0.381 OA
HETATM   23  C4  UNL     1      -9.663  60.669  18.044  1.00  0.00     0.203 C 
ENDBRANCH  12  22
ENDBRANCH   8   9
ENDBRANCH   1   8
BRANCH   7  24
HETATM   24  O8  UNL     1      -2.300  58.624  17.395  1.00  0.00    -0.390 OA
ATOM     25  H8  UNL     1      -2.139  58.671  16.460  1.00  0.00     0.210 HD
ENDBRANCH   7  24
BRANCH   6  26
HETATM   26  O4  UNL     1      -1.372  59.330  19.863  1.00  0.00    -0.348 OA
BRANCH  26  27
HETATM   27  C14 UNL     1      -0.779  59.894  20.983  1.00  0.00     0.292 C 
HETATM   28  O5  UNL     1       0.600  59.772  20.977  1.00  0.00    -0.349 OA
HETATM   29  C15 UNL     1       0.991  59.055  22.074  1.00  0.00     0.181 C 
HETATM   30  C17 UNL     1      -0.096  59.184  23.115  1.00  0.00     0.182 C 
HETATM   31  C18 UNL     1      -1.317  59.354  22.267  1.00  0.00     0.204 C 
BRANCH  29  32
HETATM   32  C16 UNL     1       1.044  57.588  21.671  1.00  0.00     0.264 C 
BRANCH  32  33
HETATM   33  N2  UNL     1       1.301  57.437  20.260  1.00  0.00    -0.077 N 
ATOM     34  H23 UNL     1       0.434  57.410  19.723  1.00  0.00     0.274 HD
ATOM     35  H22 UNL     1       1.707  58.284  19.861  1.00  0.00     0.274 HD
ATOM     36  H21 UNL     1       1.882  56.620  20.071  1.00  0.00     0.274 HD
ENDBRANCH  32  33
ENDBRANCH  29  32
BRANCH  30  37
HETATM   37  O6  UNL     1       0.152  60.268  23.954  1.00  0.00    -0.390 OA
ATOM     38  H6  UNL     1       0.386  61.038  23.449  1.00  0.00     0.210 HD
ENDBRANCH  30  37
BRANCH  31  39
HETATM   39  O7  UNL     1      -2.204  60.267  22.870  1.00  0.00    -0.388 OA
ATOM     40  H7  UNL     1      -1.973  61.162  22.655  1.00  0.00     0.210 HD
ENDBRANCH  31  39
ENDBRANCH  26  27
ENDBRANCH   6  26
BRANCH   5  41
HETATM   41  O3  UNL     1       0.344  59.261  17.763  1.00  0.00    -0.393 OA
ATOM     42  H3  UNL     1       0.250  59.036  16.845  1.00  0.00     0.210 HD
ENDBRANCH   5  41
TORSDOF 13
ENDMDL
