MODEL 1
REMARK VINA RESULT: -4.076740008      0.000      0.000
REMARK  4 active torsions:
REMARK  status: ('A' for Active; 'I' for Inactive)
REMARK    1  A    between atoms: N1_2  and  C2_4 
REMARK    2  A    between atoms: C2_4  and  C3_5 
REMARK    3  A    between atoms: C3_5  and  N2_6 
REMARK    4  A    between atoms: C6_12  and  N3_13 
ROOT
HETATM    1  C2  UNL     1      16.454  37.663  37.419  1.00  0.00     0.052 C 
HETATM    2  C4  UNL     1      15.322  38.650  37.225  1.00  0.00     0.035 C 
HETATM    3  C5  UNL     1      13.994  38.024  36.999  1.00  0.00     0.035 C 
HETATM    4  C6  UNL     1      13.965  36.883  36.050  1.00  0.00     0.184 C 
HETATM    5  C7  UNL     1      14.989  35.865  36.505  1.00  0.00     0.039 C 
HETATM    6  C8  UNL     1      16.329  36.501  36.428  1.00  0.00     0.013 C 
HETATM    7  C9  UNL     1      17.472  35.552  36.617  1.00  0.00     0.012 C 
ENDROOT
BRANCH   1   8
HETATM    8  N1  UNL     1      17.723  38.227  37.210  1.00  0.00    -0.415 N 
HETATM    9  C1  UNL     1      17.882  39.603  37.012  1.00  0.00     0.140 C 
ATOM     10  H1  UNL     1      18.544  37.623  37.203  1.00  0.00     0.153 HD
ENDBRANCH   1   8
BRANCH   1  11
HETATM   11  C3  UNL     1      16.351  37.101  38.818  1.00  0.00     0.260 C 
BRANCH  11  12
HETATM   12  N2  UNL     1      16.214  38.159  39.802  1.00  0.00    -0.077 N 
ATOM     13  H23 UNL     1      16.739  38.991  39.533  1.00  0.00     0.274 HD
ATOM     14  H22 UNL     1      15.274  38.557  39.796  1.00  0.00     0.274 HD
ATOM     15  H21 UNL     1      16.477  37.836  40.733  1.00  0.00     0.274 HD
ENDBRANCH  11  12
ENDBRANCH   1  11
BRANCH   4  16
HETATM   16  N3  UNL     1      14.154  37.253  34.665  1.00  0.00    -0.075 N 
ATOM     17  H33 UNL     1      13.528  36.716  34.065  1.00  0.00     0.274 HD
ATOM     18  H32 UNL     1      13.796  38.193  34.496  1.00  0.00     0.274 HD
ATOM     19  H31 UNL     1      15.116  37.175  34.334  1.00  0.00     0.274 HD
ENDBRANCH   4  16
TORSDOF 4
ENDMDL
MODEL 2
REMARK VINA RESULT: -3.905646724      1.695      3.732
REMARK  4 active torsions:
REMARK  status: ('A' for Active; 'I' for Inactive)
REMARK    1  A    between atoms: N1_2  and  C2_4 
REMARK    2  A    between atoms: C2_4  and  C3_5 
REMARK    3  A    between atoms: C3_5  and  N2_6 
REMARK    4  A    between atoms: C6_12  and  N3_13 
ROOT
HETATM    1  C2  UNL     1      15.245  36.800  37.231  1.00  0.00     0.052 C 
HETATM    2  C4  UNL     1      16.133  35.866  36.436  1.00  0.00     0.035 C 
HETATM    3  C5  UNL     1      17.519  35.748  36.956  1.00  0.00     0.035 C 
HETATM    4  C6  UNL     1      18.180  37.019  37.345  1.00  0.00     0.184 C 
HETATM    5  C7  UNL     1      17.278  37.738  38.325  1.00  0.00     0.039 C 
HETATM    6  C8  UNL     1      16.012  38.067  37.622  1.00  0.00     0.013 C 
HETATM    7  C9  UNL     1      15.109  38.989  38.382  1.00  0.00     0.012 C 
ENDROOT
BRANCH   1   8
HETATM    8  N1  UNL     1      14.112  37.227  36.518  1.00  0.00    -0.415 N 
HETATM    9  C1  UNL     1      13.883  36.812  35.202  1.00  0.00     0.140 C 
ATOM     10  H1  UNL     1      13.444  37.853  36.969  1.00  0.00     0.153 HD
ENDBRANCH   1   8
BRANCH   1  11
HETATM   11  C3  UNL     1      14.832  36.090  38.499  1.00  0.00     0.260 C 
BRANCH  11  12
HETATM   12  N2  UNL     1      13.407  35.814  38.508  1.00  0.00    -0.077 N 
ATOM     13  H23 UNL     1      12.867  36.622  38.196  1.00  0.00     0.274 HD
ATOM     14  H22 UNL     1      13.147  35.157  37.771  1.00  0.00     0.274 HD
ATOM     15  H21 UNL     1      13.098  35.489  39.424  1.00  0.00     0.274 HD
ENDBRANCH  11  12
ENDBRANCH   1  11
BRANCH   4  16
HETATM   16  N3  UNL     1      18.548  37.866  36.232  1.00  0.00    -0.075 N 
ATOM     17  H33 UNL     1      18.100  38.778  36.317  1.00  0.00     0.274 HD
ATOM     18  H32 UNL     1      19.527  38.143  36.305  1.00  0.00     0.274 HD
ATOM     19  H31 UNL     1      18.360  37.462  35.314  1.00  0.00     0.274 HD
ENDBRANCH   4  16
TORSDOF 4
ENDMDL
MODEL 3
REMARK VINA RESULT: -3.799246734      1.602      3.145
REMARK  4 active torsions:
REMARK  status: ('A' for Active; 'I' for Inactive)
REMARK    1  A    between atoms: N1_2  and  C2_4 
REMARK    2  A    between atoms: C2_4  and  C3_5 
REMARK    3  A    between atoms: C3_5  and  N2_6 
REMARK    4  A    between atoms: C6_12  and  N3_13 
ROOT
HETATM    1  C2  UNL     1      16.171  37.700  37.648  1.00  0.00     0.052 C 
HETATM    2  C4  UNL     1      15.576  38.220  38.940  1.00  0.00     0.035 C 
HETATM    3  C5  UNL     1      15.954  37.441  40.147  1.00  0.00     0.035 C 
HETATM    4  C6  UNL     1      15.900  35.964  40.012  1.00  0.00     0.184 C 
HETATM    5  C7  UNL     1      16.734  35.569  38.813  1.00  0.00     0.039 C 
HETATM    6  C8  UNL     1      16.109  36.170  37.606  1.00  0.00     0.013 C 
HETATM    7  C9  UNL     1      16.677  35.678  36.310  1.00  0.00     0.012 C 
ENDROOT
BRANCH   1   8
HETATM    8  N1  UNL     1      15.496  38.155  36.504  1.00  0.00    -0.415 N 
HETATM    9  C1  UNL     1      14.113  38.366  36.512  1.00  0.00     0.140 C 
ATOM     10  H1  UNL     1      16.025  38.337  35.650  1.00  0.00     0.153 HD
ENDBRANCH   1   8
BRANCH   1  11
HETATM   11  C3  UNL     1      17.624  38.113  37.602  1.00  0.00     0.260 C 
BRANCH  11  12
HETATM   12  N2  UNL     1      17.822  39.246  36.715  1.00  0.00    -0.077 N 
ATOM     13  H23 UNL     1      18.081  40.086  37.232  1.00  0.00     0.274 HD
ATOM     14  H22 UNL     1      18.667  39.139  36.153  1.00  0.00     0.274 HD
ATOM     15  H21 UNL     1      17.002  39.405  36.130  1.00  0.00     0.274 HD
ENDBRANCH  11  12
ENDBRANCH   1  11
BRANCH   4  16
HETATM   16  N3  UNL     1      14.562  35.419  39.940  1.00  0.00    -0.075 N 
ATOM     17  H33 UNL     1      14.562  34.439  40.221  1.00  0.00     0.274 HD
ATOM     18  H32 UNL     1      13.977  35.814  40.677  1.00  0.00     0.274 HD
ATOM     19  H31 UNL     1      14.111  35.528  39.032  1.00  0.00     0.274 HD
ENDBRANCH   4  16
TORSDOF 4
ENDMDL
MODEL 4
REMARK VINA RESULT: -3.785391241      2.219      3.286
REMARK  4 active torsions:
REMARK  status: ('A' for Active; 'I' for Inactive)
REMARK    1  A    between atoms: N1_2  and  C2_4 
REMARK    2  A    between atoms: C2_4  and  C3_5 
REMARK    3  A    between atoms: C3_5  and  N2_6 
REMARK    4  A    between atoms: C6_12  and  N3_13 
ROOT
HETATM    1  C2  UNL     1      14.529  36.806  36.325  1.00  0.00     0.052 C 
HETATM    2  C4  UNL     1      14.150  36.675  34.865  1.00  0.00     0.035 C 
HETATM    3  C5  UNL     1      12.706  36.422  34.627  1.00  0.00     0.035 C 
HETATM    4  C6  UNL     1      12.068  35.410  35.506  1.00  0.00     0.184 C 
HETATM    5  C7  UNL     1      12.334  35.802  36.944  1.00  0.00     0.039 C 
HETATM    6  C8  UNL     1      13.801  35.752  37.166  1.00  0.00     0.013 C 
HETATM    7  C9  UNL     1      14.211  35.881  38.601  1.00  0.00     0.012 C 
ENDROOT
BRANCH   1   8
HETATM    8  N1  UNL     1      15.902  36.622  36.560  1.00  0.00    -0.415 N 
HETATM    9  C1  UNL     1      16.593  35.535  36.012  1.00  0.00     0.140 C 
ATOM     10  H1  UNL     1      16.404  37.293  37.141  1.00  0.00     0.153 HD
ENDBRANCH   1   8
BRANCH   1  11
HETATM   11  C3  UNL     1      14.093  38.172  36.802  1.00  0.00     0.260 C 
BRANCH  11  12
HETATM   12  N2  UNL     1      14.629  39.222  35.955  1.00  0.00    -0.077 N 
ATOM     13  H23 UNL     1      14.342  39.103  34.984  1.00  0.00     0.274 HD
ATOM     14  H22 UNL     1      14.182  40.120  36.143  1.00  0.00     0.274 HD
ATOM     15  H21 UNL     1      15.644  39.284  36.040  1.00  0.00     0.274 HD
ENDBRANCH  11  12
ENDBRANCH   1  11
BRANCH   4  16
HETATM   16  N3  UNL     1      12.469  34.047  35.238  1.00  0.00    -0.075 N 
ATOM     17  H33 UNL     1      11.948  33.674  34.444  1.00  0.00     0.274 HD
ATOM     18  H32 UNL     1      13.414  34.023  34.854  1.00  0.00     0.274 HD
ATOM     19  H31 UNL     1      12.394  33.420  36.038  1.00  0.00     0.274 HD
ENDBRANCH   4  16
TORSDOF 4
ENDMDL
MODEL 5
REMARK VINA RESULT: -3.769342436      1.530      3.715
REMARK  4 active torsions:
REMARK  status: ('A' for Active; 'I' for Inactive)
REMARK    1  A    between atoms: N1_2  and  C2_4 
REMARK    2  A    between atoms: C2_4  and  C3_5 
REMARK    3  A    between atoms: C3_5  and  N2_6 
REMARK    4  A    between atoms: C6_12  and  N3_13 
ROOT
HETATM    1  C2  UNL     1      16.234  38.277  37.522  1.00  0.00     0.052 C 
HETATM    2  C4  UNL     1      16.995  37.001  37.228  1.00  0.00     0.035 C 
HETATM    3  C5  UNL     1      16.678  35.874  38.142  1.00  0.00     0.035 C 
HETATM    4  C6  UNL     1      16.601  36.208  39.587  1.00  0.00     0.184 C 
HETATM    5  C7  UNL     1      15.622  37.351  39.753  1.00  0.00     0.039 C 
HETATM    6  C8  UNL     1      16.169  38.528  39.032  1.00  0.00     0.013 C 
HETATM    7  C9  UNL     1      15.436  39.808  39.298  1.00  0.00     0.012 C 
ENDROOT
BRANCH   1   8
HETATM    8  N1  UNL     1      16.825  39.418  36.955  1.00  0.00    -0.415 N 
HETATM    9  C1  UNL     1      18.214  39.589  36.950  1.00  0.00     0.140 C 
ATOM     10  H1  UNL     1      16.231  40.135  36.539  1.00  0.00     0.153 HD
ENDBRANCH   1   8
BRANCH   1  11
HETATM   11  C3  UNL     1      14.821  38.108  37.012  1.00  0.00     0.260 C 
BRANCH  11  12
HETATM   12  N2  UNL     1      14.586  38.922  35.833  1.00  0.00    -0.077 N 
ATOM     13  H23 UNL     1      13.728  39.467  35.919  1.00  0.00     0.274 HD
ATOM     14  H22 UNL     1      15.255  39.690  35.769  1.00  0.00     0.274 HD
ATOM     15  H21 UNL     1      14.585  38.355  34.985  1.00  0.00     0.274 HD
ENDBRANCH  11  12
ENDBRANCH   1  11
BRANCH   4  16
HETATM   16  N3  UNL     1      17.876  36.500  40.202  1.00  0.00    -0.075 N 
ATOM     17  H33 UNL     1      18.182  35.713  40.773  1.00  0.00     0.274 HD
ATOM     18  H32 UNL     1      18.617  36.505  39.500  1.00  0.00     0.274 HD
ATOM     19  H31 UNL     1      17.896  37.362  40.746  1.00  0.00     0.274 HD
ENDBRANCH   4  16
TORSDOF 4
ENDMDL
