MODEL 1
REMARK VINA RESULT: -5.455326770      0.000      0.000
REMARK  3 active torsions:
REMARK  status: ('A' for Active; 'I' for Inactive)
REMARK    1  A    between atoms: C2_2  and  N1_4 
REMARK    2  A    between atoms: N1_4  and  N2_5 
REMARK    3  A    between atoms: N1_4  and  N3_8 
ROOT
HETATM    1  N3  UNL     1      13.478  37.065  34.877  1.00  0.00    -0.273 N 
ATOM      2  H3  UNL     1      13.642  37.816  34.206  1.00  0.00     0.190 HD
HETATM    3  C4  UNL     1      12.447  36.317  34.693  1.00  0.00     0.093 C 
HETATM    4  C5  UNL     1      11.585  36.601  33.530  1.00  0.00     0.077 C 
HETATM    5  C6  UNL     1      10.591  35.489  33.266  1.00  0.00     0.009 C 
HETATM    6  C7  UNL     1      10.073  34.950  34.596  1.00  0.00     0.020 C 
HETATM    7  C8  UNL     1      11.253  34.224  35.238  1.00  0.00     0.121 C 
HETATM    8  N4  UNL     1      12.203  35.272  35.615  1.00  0.00    -0.379 N 
ATOM      9  H4  UNL     1      12.678  35.248  36.517  1.00  0.00     0.160 HD
ENDROOT
BRANCH   1  10
HETATM   10  N1  UNL     1      14.388  36.927  35.926  1.00  0.00    -0.235 N 
BRANCH  10  11
HETATM   11  C2  UNL     1      14.128  37.623  37.154  1.00  0.00     0.118 C 
HETATM   12  C1  UNL     1      14.289  36.595  38.281  1.00  0.00     0.035 C 
HETATM   13  C3  UNL     1      15.084  38.773  37.377  1.00  0.00     0.035 C 
ENDBRANCH  10  11
BRANCH  10  14
HETATM   14  N2  UNL     1      15.504  36.114  35.715  1.00  0.00    -0.328 N 
ATOM     15  H22 UNL     1      16.379  36.567  35.453  1.00  0.00     0.178 HD
ATOM     16  H21 UNL     1      15.492  35.098  35.810  1.00  0.00     0.178 HD
ENDBRANCH  10  14
ENDBRANCH   1  10
TORSDOF 3
ENDMDL
MODEL 2
REMARK VINA RESULT: -5.307779996      1.449      1.770
REMARK  3 active torsions:
REMARK  status: ('A' for Active; 'I' for Inactive)
REMARK    1  A    between atoms: C2_2  and  N1_4 
REMARK    2  A    between atoms: N1_4  and  N2_5 
REMARK    3  A    between atoms: N1_4  and  N3_8 
ROOT
HETATM    1  N3  UNL     1      12.964  36.986  34.197  1.00  0.00    -0.273 N 
ATOM      2  H3  UNL     1      13.341  37.479  33.387  1.00  0.00     0.190 HD
HETATM    3  C4  UNL     1      11.863  36.339  34.040  1.00  0.00     0.093 C 
HETATM    4  C5  UNL     1      11.231  36.361  32.707  1.00  0.00     0.077 C 
HETATM    5  C6  UNL     1      10.118  35.342  32.582  1.00  0.00     0.009 C 
HETATM    6  C7  UNL     1       9.337  35.285  33.892  1.00  0.00     0.020 C 
HETATM    7  C8  UNL     1      10.281  34.654  34.911  1.00  0.00     0.121 C 
HETATM    8  N4  UNL     1      11.325  35.650  35.153  1.00  0.00    -0.379 N 
ATOM      9  H4  UNL     1      11.657  35.842  36.098  1.00  0.00     0.160 HD
ENDROOT
BRANCH   1  10
HETATM   10  N1  UNL     1      13.682  37.062  35.391  1.00  0.00    -0.235 N 
BRANCH  10  11
HETATM   11  C2  UNL     1      14.042  35.840  36.052  1.00  0.00     0.118 C 
HETATM   12  C1  UNL     1      15.557  35.676  35.873  1.00  0.00     0.035 C 
HETATM   13  C3  UNL     1      13.706  35.861  37.526  1.00  0.00     0.035 C 
ENDBRANCH  10  11
BRANCH  10  14
HETATM   14  N2  UNL     1      14.009  38.331  35.874  1.00  0.00    -0.328 N 
ATOM     15  H22 UNL     1      13.757  39.137  35.301  1.00  0.00     0.178 HD
ATOM     16  H21 UNL     1      14.481  38.496  36.763  1.00  0.00     0.178 HD
ENDBRANCH  10  14
ENDBRANCH   1  10
TORSDOF 3
ENDMDL
MODEL 3
REMARK VINA RESULT: -5.186242612      0.785      1.675
REMARK  3 active torsions:
REMARK  status: ('A' for Active; 'I' for Inactive)
REMARK    1  A    between atoms: C2_2  and  N1_4 
REMARK    2  A    between atoms: N1_4  and  N2_5 
REMARK    3  A    between atoms: N1_4  and  N3_8 
ROOT
HETATM    1  N3  UNL     1      13.250  35.471  36.321  1.00  0.00    -0.273 N 
ATOM      2  H3  UNL     1      13.171  34.751  37.039  1.00  0.00     0.190 HD
HETATM    3  C4  UNL     1      12.358  35.488  35.394  1.00  0.00     0.093 C 
HETATM    4  C5  UNL     1      11.293  34.468  35.439  1.00  0.00     0.077 C 
HETATM    5  C6  UNL     1      10.164  34.773  34.477  1.00  0.00     0.009 C 
HETATM    6  C7  UNL     1      10.744  35.339  33.183  1.00  0.00     0.020 C 
HETATM    7  C8  UNL     1      11.285  36.720  33.541  1.00  0.00     0.121 C 
HETATM    8  N4  UNL     1      12.454  36.480  34.388  1.00  0.00    -0.379 N 
ATOM      9  H4  UNL     1      13.313  37.013  34.259  1.00  0.00     0.160 HD
ENDROOT
BRANCH   1  10
HETATM   10  N1  UNL     1      14.317  36.365  36.418  1.00  0.00    -0.235 N 
BRANCH  10  11
HETATM   11  C2  UNL     1      14.154  37.541  37.224  1.00  0.00     0.118 C 
HETATM   12  C1  UNL     1      14.997  37.326  38.488  1.00  0.00     0.035 C 
HETATM   13  C3  UNL     1      14.615  38.795  36.515  1.00  0.00     0.035 C 
ENDBRANCH  10  11
BRANCH  10  14
HETATM   14  N2  UNL     1      15.488  36.058  35.720  1.00  0.00    -0.328 N 
ATOM     15  H22 UNL     1      15.513  36.264  34.722  1.00  0.00     0.178 HD
ATOM     16  H21 UNL     1      16.314  35.644  36.152  1.00  0.00     0.178 HD
ENDBRANCH  10  14
ENDBRANCH   1  10
TORSDOF 3
ENDMDL
MODEL 4
REMARK VINA RESULT: -5.128331790      1.062      2.190
REMARK  3 active torsions:
REMARK  status: ('A' for Active; 'I' for Inactive)
REMARK    1  A    between atoms: C2_2  and  N1_4 
REMARK    2  A    between atoms: N1_4  and  N2_5 
REMARK    3  A    between atoms: N1_4  and  N3_8 
ROOT
HETATM    1  N3  UNL     1      12.582  35.684  35.537  1.00  0.00    -0.273 N 
ATOM      2  H3  UNL     1      12.423  35.010  36.286  1.00  0.00     0.190 HD
HETATM    3  C4  UNL     1      11.739  35.704  34.565  1.00  0.00     0.093 C 
HETATM    4  C5  UNL     1      10.611  34.755  34.608  1.00  0.00     0.077 C 
HETATM    5  C6  UNL     1       9.552  35.075  33.573  1.00  0.00     0.009 C 
HETATM    6  C7  UNL     1      10.228  35.534  32.285  1.00  0.00     0.020 C 
HETATM    7  C8  UNL     1      10.838  36.898  32.599  1.00  0.00     0.121 C 
HETATM    8  N4  UNL     1      11.946  36.633  33.517  1.00  0.00    -0.379 N 
ATOM      9  H4  UNL     1      12.843  37.105  33.405  1.00  0.00     0.160 HD
ENDROOT
BRANCH   1  10
HETATM   10  N1  UNL     1      13.698  36.515  35.644  1.00  0.00    -0.235 N 
BRANCH  10  11
HETATM   11  C2  UNL     1      14.286  36.710  36.939  1.00  0.00     0.118 C 
HETATM   12  C1  UNL     1      14.248  38.219  37.214  1.00  0.00     0.035 C 
HETATM   13  C3  UNL     1      13.536  35.977  38.028  1.00  0.00     0.035 C 
ENDBRANCH  10  11
BRANCH  10  14
HETATM   14  N2  UNL     1      14.178  37.113  34.476  1.00  0.00    -0.328 N 
ATOM     15  H22 UNL     1      13.787  36.800  33.588  1.00  0.00     0.178 HD
ATOM     16  H21 UNL     1      14.893  37.841  34.464  1.00  0.00     0.178 HD
ENDBRANCH  10  14
ENDBRANCH   1  10
TORSDOF 3
ENDMDL
MODEL 5
REMARK VINA RESULT: -4.730877033      1.422      4.904
REMARK  3 active torsions:
REMARK  status: ('A' for Active; 'I' for Inactive)
REMARK    1  A    between atoms: C2_2  and  N1_4 
REMARK    2  A    between atoms: N1_4  and  N2_5 
REMARK    3  A    between atoms: N1_4  and  N3_8 
ROOT
HETATM    1  N3  UNL     1      12.867  35.614  34.979  1.00  0.00    -0.273 N 
ATOM      2  H3  UNL     1      13.119  34.626  34.954  1.00  0.00     0.190 HD
HETATM    3  C4  UNL     1      13.596  36.396  35.696  1.00  0.00     0.093 C 
HETATM    4  C5  UNL     1      14.736  35.806  36.423  1.00  0.00     0.077 C 
HETATM    5  C6  UNL     1      15.669  36.860  36.982  1.00  0.00     0.009 C 
HETATM    6  C7  UNL     1      14.847  38.036  37.502  1.00  0.00     0.020 C 
HETATM    7  C8  UNL     1      14.256  38.708  36.265  1.00  0.00     0.121 C 
HETATM    8  N4  UNL     1      13.260  37.770  35.744  1.00  0.00    -0.379 N 
ATOM      9  H4  UNL     1      12.350  38.098  35.422  1.00  0.00     0.160 HD
ENDROOT
BRANCH   1  10
HETATM   10  N1  UNL     1      11.758  36.017  34.234  1.00  0.00    -0.235 N 
BRANCH  10  11
HETATM   11  C2  UNL     1      10.478  35.450  34.551  1.00  0.00     0.118 C 
HETATM   12  C1  UNL     1       9.939  34.838  33.251  1.00  0.00     0.035 C 
HETATM   13  C3  UNL     1      10.569  34.379  35.615  1.00  0.00     0.035 C 
ENDBRANCH  10  11
BRANCH  10  14
HETATM   14  N2  UNL     1      11.962  36.954  33.219  1.00  0.00    -0.328 N 
ATOM     15  H22 UNL     1      12.155  37.917  33.493  1.00  0.00     0.178 HD
ATOM     16  H21 UNL     1      11.930  36.729  32.225  1.00  0.00     0.178 HD
ENDBRANCH  10  14
ENDBRANCH   1  10
TORSDOF 3
ENDMDL
