MODEL 1
REMARK VINA RESULT: -4.646636114      0.000      0.000
REMARK  2 active torsions:
REMARK  status: ('A' for Active; 'I' for Inactive)
REMARK    1  A    between atoms: C2_2  and  C3_3 
REMARK    2  A    between atoms: C2_2  and  C4_5 
ROOT
HETATM    1  C4  UNL     1      11.685  35.855  34.627  1.00  0.00     0.194 C 
HETATM    2  C5  UNL     1      11.145  34.513  34.147  1.00  0.00     0.061 C 
HETATM    3  C6  UNL     1       9.658  34.776  33.875  1.00  0.00     0.236 C 
HETATM    4  N1  UNL     1       9.527  36.004  33.146  1.00  0.00    -0.051 N 
ATOM      5  H11 UNL     1       9.145  36.737  33.744  1.00  0.00     0.279 HD
ATOM      6  H12 UNL     1       8.775  35.935  32.458  1.00  0.00     0.279 HD
HETATM    7  C7  UNL     1      10.747  36.445  32.519  1.00  0.00     0.463 C 
HETATM    8  N2  UNL     1      11.803  36.700  33.475  1.00  0.00    -0.047 N 
ATOM      9  H21 UNL     1      12.724  36.618  33.045  1.00  0.00     0.279 HD
ATOM     10  H22 UNL     1      11.839  37.685  33.737  1.00  0.00     0.279 HD
ENDROOT
BRANCH   1  11
HETATM   11  C2  UNL     1      12.979  35.682  35.376  1.00  0.00     0.022 C 
HETATM   12  C1  UNL     1      13.844  36.889  35.261  1.00  0.00     0.012 C 
BRANCH  11  13
HETATM   13  C3  UNL     1      12.702  35.353  36.802  1.00  0.00     0.092 C 
HETATM   14  S1  UNL     1      13.885  36.212  37.880  1.00  0.00    -0.097 SA
ENDBRANCH  11  13
ENDBRANCH   1  11
TORSDOF 2
ENDMDL
MODEL 2
REMARK VINA RESULT: -4.532057984      2.851      4.562
REMARK  2 active torsions:
REMARK  status: ('A' for Active; 'I' for Inactive)
REMARK    1  A    between atoms: C2_2  and  C3_3 
REMARK    2  A    between atoms: C2_2  and  C4_5 
ROOT
HETATM    1  C4  UNL     1      13.588  36.249  35.469  1.00  0.00     0.194 C 
HETATM    2  C5  UNL     1      13.735  35.915  36.948  1.00  0.00     0.061 C 
HETATM    3  C6  UNL     1      15.165  36.349  37.296  1.00  0.00     0.236 C 
HETATM    4  N1  UNL     1      15.409  37.647  36.736  1.00  0.00    -0.051 N 
ATOM      5  H11 UNL     1      16.041  37.579  35.938  1.00  0.00     0.279 HD
ATOM      6  H12 UNL     1      15.985  38.207  37.365  1.00  0.00     0.279 HD
HETATM    7  C7  UNL     1      14.211  38.362  36.375  1.00  0.00     0.463 C 
HETATM    8  N2  UNL     1      13.432  37.672  35.369  1.00  0.00    -0.047 N 
ATOM      9  H21 UNL     1      12.450  37.942  35.407  1.00  0.00     0.279 HD
ATOM     10  H22 UNL     1      13.653  38.006  34.431  1.00  0.00     0.279 HD
ENDROOT
BRANCH   1  11
HETATM   11  C2  UNL     1      12.452  35.479  34.849  1.00  0.00     0.022 C 
HETATM   12  C1  UNL     1      11.624  34.798  35.883  1.00  0.00     0.012 C 
BRANCH  11  13
HETATM   13  C3  UNL     1      11.622  36.386  34.008  1.00  0.00     0.092 C 
HETATM   14  S1  UNL     1      10.136  35.515  33.432  1.00  0.00    -0.097 SA
ENDBRANCH  11  13
ENDBRANCH   1  11
TORSDOF 2
ENDMDL
MODEL 3
REMARK VINA RESULT: -4.488227072      1.304      1.684
REMARK  2 active torsions:
REMARK  status: ('A' for Active; 'I' for Inactive)
REMARK    1  A    between atoms: C2_2  and  C3_3 
REMARK    2  A    between atoms: C2_2  and  C4_5 
ROOT
HETATM    1  C4  UNL     1      12.633  36.359  35.241  1.00  0.00     0.194 C 
HETATM    2  C5  UNL     1      12.568  34.843  35.378  1.00  0.00     0.061 C 
HETATM    3  C6  UNL     1      11.085  34.548  35.640  1.00  0.00     0.236 C 
HETATM    4  N1  UNL     1      10.288  35.309  34.722  1.00  0.00    -0.051 N 
ATOM      5  H11 UNL     1       9.818  36.075  35.205  1.00  0.00     0.279 HD
ATOM      6  H12 UNL     1       9.475  34.771  34.422  1.00  0.00     0.279 HD
HETATM    7  C7  UNL     1      11.018  35.801  33.582  1.00  0.00     0.463 C 
HETATM    8  N2  UNL     1      12.096  36.692  33.953  1.00  0.00    -0.047 N 
ATOM      9  H21 UNL     1      12.825  36.714  33.240  1.00  0.00     0.279 HD
ATOM     10  H22 UNL     1      11.804  37.668  33.912  1.00  0.00     0.279 HD
ENDROOT
BRANCH   1  11
HETATM   11  C2  UNL     1      14.037  36.863  35.451  1.00  0.00     0.022 C 
HETATM   12  C1  UNL     1      14.055  38.115  36.258  1.00  0.00     0.012 C 
BRANCH  11  13
HETATM   13  C3  UNL     1      14.869  35.803  36.085  1.00  0.00     0.092 C 
HETATM   14  S1  UNL     1      15.303  36.283  37.781  1.00  0.00    -0.097 SA
ENDBRANCH  11  13
ENDBRANCH   1  11
TORSDOF 2
ENDMDL
MODEL 4
REMARK VINA RESULT: -4.462261899      2.741      4.274
REMARK  2 active torsions:
REMARK  status: ('A' for Active; 'I' for Inactive)
REMARK    1  A    between atoms: C2_2  and  C3_3 
REMARK    2  A    between atoms: C2_2  and  C4_5 
ROOT
HETATM    1  C4  UNL     1      12.973  36.598  34.785  1.00  0.00     0.194 C 
HETATM    2  C5  UNL     1      13.252  35.520  35.825  1.00  0.00     0.061 C 
HETATM    3  C6  UNL     1      14.781  35.500  35.953  1.00  0.00     0.236 C 
HETATM    4  N1  UNL     1      15.260  36.849  36.043  1.00  0.00    -0.051 N 
ATOM      5  H11 UNL     1      15.726  37.123  35.178  1.00  0.00     0.279 HD
ATOM      6  H12 UNL     1      16.047  36.908  36.689  1.00  0.00     0.279 HD
HETATM    7  C7  UNL     1      14.243  37.808  36.397  1.00  0.00     0.463 C 
HETATM    8  N2  UNL     1      13.172  37.866  35.426  1.00  0.00    -0.047 N 
ATOM      9  H21 UNL     1      12.308  38.211  35.843  1.00  0.00     0.279 HD
ATOM     10  H22 UNL     1      13.326  38.608  34.744  1.00  0.00     0.279 HD
ENDROOT
BRANCH   1  11
HETATM   11  C2  UNL     1      11.598  36.437  34.192  1.00  0.00     0.022 C 
HETATM   12  C1  UNL     1      11.582  36.784  32.744  1.00  0.00     0.012 C 
BRANCH  11  13
HETATM   13  C3  UNL     1      11.105  35.050  34.419  1.00  0.00     0.092 C 
HETATM   14  S1  UNL     1       9.475  34.835  33.648  1.00  0.00    -0.097 SA
ENDBRANCH  11  13
ENDBRANCH   1  11
TORSDOF 2
ENDMDL
MODEL 5
REMARK VINA RESULT: -4.403255100      1.438      2.279
REMARK  2 active torsions:
REMARK  status: ('A' for Active; 'I' for Inactive)
REMARK    1  A    between atoms: C2_2  and  C3_3 
REMARK    2  A    between atoms: C2_2  and  C4_5 
ROOT
HETATM    1  C4  UNL     1      11.220  35.443  33.748  1.00  0.00     0.194 C 
HETATM    2  C5  UNL     1      10.836  36.616  32.854  1.00  0.00     0.061 C 
HETATM    3  C6  UNL     1      10.578  35.980  31.482  1.00  0.00     0.236 C 
HETATM    4  N1  UNL     1       9.776  34.804  31.656  1.00  0.00    -0.051 N 
ATOM      5  H11 UNL     1      10.335  33.964  31.505  1.00  0.00     0.279 HD
ATOM      6  H12 UNL     1       9.110  34.708  30.889  1.00  0.00     0.279 HD
HETATM    7  C7  UNL     1       9.098  34.740  32.926  1.00  0.00     0.463 C 
HETATM    8  N2  UNL     1      10.015  34.725  34.045  1.00  0.00    -0.047 N 
ATOM      9  H21 UNL     1       9.572  35.074  34.895  1.00  0.00     0.279 HD
ATOM     10  H22 UNL     1      10.214  33.772  34.351  1.00  0.00     0.279 HD
ENDROOT
BRANCH   1  11
HETATM   11  C2  UNL     1      11.953  35.915  34.977  1.00  0.00     0.022 C 
HETATM   12  C1  UNL     1      12.367  34.773  35.838  1.00  0.00     0.012 C 
BRANCH  11  13
HETATM   13  C3  UNL     1      13.125  36.745  34.583  1.00  0.00     0.092 C 
HETATM   14  S1  UNL     1      14.094  37.189  36.053  1.00  0.00    -0.097 SA
ENDBRANCH  11  13
ENDBRANCH   1  11
TORSDOF 2
ENDMDL
