MODEL 1
REMARK VINA RESULT: -5.687664366      0.000      0.000
REMARK  4 active torsions:
REMARK  status: ('A' for Active; 'I' for Inactive)
REMARK    1  A    between atoms: C2_2  and  C5_6 
REMARK    2  A    between atoms: C5_6  and  N2_7 
REMARK    3  A    between atoms: N2_7  and  C6_10 
REMARK    4  A    between atoms: C6_10  and  C7_11 
ROOT
HETATM    1  C1  UNL     1      13.759  36.547  38.155  1.00  0.00     0.033 C 
HETATM    2  C2  UNL     1      14.533  36.751  36.853  1.00  0.00     0.065 C 
HETATM    3  C3  UNL     1      15.970  36.460  37.104  1.00  0.00     0.033 C 
HETATM    4  C4  UNL     1      14.360  38.191  36.499  1.00  0.00     0.070 C 
HETATM    5  N1  UNL     1      14.203  39.314  36.216  1.00  0.00    -0.196 NA
ENDROOT
BRANCH   2   6
HETATM    6  C5  UNL     1      13.875  35.947  35.764  1.00  0.00     0.255 C 
BRANCH   6   7
HETATM    7  N2  UNL     1      13.236  36.715  34.765  1.00  0.00    -0.073 N 
ATOM      8  H22 UNL     1      13.350  37.710  34.956  1.00  0.00     0.277 HD
ATOM      9  H21 UNL     1      13.746  36.645  33.884  1.00  0.00     0.277 HD
BRANCH   7  10
HETATM   10  C6  UNL     1      11.861  36.404  34.567  1.00  0.00     0.239 C 
BRANCH  10  11
HETATM   11  C7  UNL     1      11.474  34.976  34.454  1.00  0.00     0.037 C 
HETATM   12  C8  UNL     1      10.618  34.633  33.259  1.00  0.00     0.034 C 
HETATM   13  C9  UNL     1       9.330  35.329  33.643  1.00  0.00     0.168 C 
HETATM   14  O1  UNL     1       9.374  35.534  35.004  1.00  0.00    -0.391 OA
HETATM   15  C10 UNL     1      10.391  34.760  35.544  1.00  0.00     0.173 C 
ENDBRANCH  10  11
ENDBRANCH   7  10
ENDBRANCH   6   7
ENDBRANCH   2   6
TORSDOF 4
ENDMDL
MODEL 2
REMARK VINA RESULT: -4.988240238      3.957      7.039
REMARK  4 active torsions:
REMARK  status: ('A' for Active; 'I' for Inactive)
REMARK    1  A    between atoms: C2_2  and  C5_6 
REMARK    2  A    between atoms: C5_6  and  N2_7 
REMARK    3  A    between atoms: N2_7  and  C6_10 
REMARK    4  A    between atoms: C6_10  and  C7_11 
ROOT
HETATM    1  C1  UNL     1      13.876  35.839  35.876  1.00  0.00     0.033 C 
HETATM    2  C2  UNL     1      14.420  36.734  36.989  1.00  0.00     0.065 C 
HETATM    3  C3  UNL     1      13.640  36.477  38.229  1.00  0.00     0.033 C 
HETATM    4  C4  UNL     1      14.195  38.137  36.529  1.00  0.00     0.070 C 
HETATM    5  N1  UNL     1      14.036  39.232  36.153  1.00  0.00    -0.196 NA
ENDROOT
BRANCH   2   6
HETATM    6  C5  UNL     1      15.909  36.537  37.090  1.00  0.00     0.255 C 
BRANCH   6   7
HETATM    7  N2  UNL     1      16.662  37.731  37.146  1.00  0.00    -0.073 N 
ATOM      8  H22 UNL     1      17.085  37.926  36.238  1.00  0.00     0.277 HD
ATOM      9  H21 UNL     1      16.042  38.537  37.229  1.00  0.00     0.277 HD
BRANCH   7  10
HETATM   10  C6  UNL     1      17.651  37.761  38.168  1.00  0.00     0.239 C 
BRANCH  10  11
HETATM   11  C7  UNL     1      19.058  38.025  37.775  1.00  0.00     0.037 C 
HETATM   12  C8  UNL     1      19.846  38.879  38.738  1.00  0.00     0.034 C 
HETATM   13  C9  UNL     1      19.157  40.213  38.538  1.00  0.00     0.168 C 
HETATM   14  O1  UNL     1      18.502  40.150  37.329  1.00  0.00    -0.391 OA
HETATM   15  C10 UNL     1      18.971  39.055  36.618  1.00  0.00     0.173 C 
ENDBRANCH  10  11
ENDBRANCH   7  10
ENDBRANCH   6   7
ENDBRANCH   2   6
TORSDOF 4
ENDMDL
MODEL 3
REMARK VINA RESULT: -4.985856708      1.160      1.613
REMARK  4 active torsions:
REMARK  status: ('A' for Active; 'I' for Inactive)
REMARK    1  A    between atoms: C2_2  and  C5_6 
REMARK    2  A    between atoms: C5_6  and  N2_7 
REMARK    3  A    between atoms: N2_7  and  C6_10 
REMARK    4  A    between atoms: C6_10  and  C7_11 
ROOT
HETATM    1  C1  UNL     1      14.154  38.226  36.780  1.00  0.00     0.033 C 
HETATM    2  C2  UNL     1      14.374  36.728  36.987  1.00  0.00     0.065 C 
HETATM    3  C3  UNL     1      13.730  36.325  38.265  1.00  0.00     0.033 C 
HETATM    4  C4  UNL     1      15.853  36.544  37.082  1.00  0.00     0.070 C 
HETATM    5  N1  UNL     1      17.012  36.405  37.134  1.00  0.00    -0.196 NA
ENDROOT
BRANCH   2   6
HETATM    6  C5  UNL     1      13.918  35.994  35.754  1.00  0.00     0.255 C 
BRANCH   6   7
HETATM    7  N2  UNL     1      13.254  36.796  34.800  1.00  0.00    -0.073 N 
ATOM      8  H22 UNL     1      13.338  37.782  35.046  1.00  0.00     0.277 HD
ATOM      9  H21 UNL     1      13.763  36.791  33.916  1.00  0.00     0.277 HD
BRANCH   7  10
HETATM   10  C6  UNL     1      11.889  36.455  34.585  1.00  0.00     0.239 C 
BRANCH  10  11
HETATM   11  C7  UNL     1      11.533  35.018  34.481  1.00  0.00     0.037 C 
HETATM   12  C8  UNL     1      10.681  34.650  33.290  1.00  0.00     0.034 C 
HETATM   13  C9  UNL     1       9.378  35.320  33.675  1.00  0.00     0.168 C 
HETATM   14  O1  UNL     1       9.422  35.532  35.035  1.00  0.00    -0.391 OA
HETATM   15  C10 UNL     1      10.458  34.784  35.575  1.00  0.00     0.173 C 
ENDBRANCH  10  11
ENDBRANCH   7  10
ENDBRANCH   6   7
ENDBRANCH   2   6
TORSDOF 4
ENDMDL
MODEL 4
REMARK VINA RESULT: -4.935113785      3.025      4.495
REMARK  4 active torsions:
REMARK  status: ('A' for Active; 'I' for Inactive)
REMARK    1  A    between atoms: C2_2  and  C5_6 
REMARK    2  A    between atoms: C5_6  and  N2_7 
REMARK    3  A    between atoms: N2_7  and  C6_10 
REMARK    4  A    between atoms: C6_10  and  C7_11 
ROOT
HETATM    1  C1  UNL     1      15.695  39.791  39.857  1.00  0.00     0.033 C 
HETATM    2  C2  UNL     1      16.820  39.896  38.828  1.00  0.00     0.065 C 
HETATM    3  C3  UNL     1      17.952  40.644  39.436  1.00  0.00     0.033 C 
HETATM    4  C4  UNL     1      16.253  40.670  37.685  1.00  0.00     0.070 C 
HETATM    5  N1  UNL     1      15.797  41.259  36.784  1.00  0.00    -0.196 NA
ENDROOT
BRANCH   2   6
HETATM    6  C5  UNL     1      17.138  38.518  38.312  1.00  0.00     0.255 C 
BRANCH   6   7
HETATM    7  N2  UNL     1      16.413  38.135  37.161  1.00  0.00    -0.073 N 
ATOM      8  H22 UNL     1      15.743  38.860  36.907  1.00  0.00     0.277 HD
ATOM      9  H21 UNL     1      17.017  38.155  36.339  1.00  0.00     0.277 HD
BRANCH   7  10
HETATM   10  C6  UNL     1      15.761  36.874  37.264  1.00  0.00     0.239 C 
BRANCH  10  11
HETATM   11  C7  UNL     1      14.301  36.860  37.531  1.00  0.00     0.037 C 
HETATM   12  C8  UNL     1      13.499  35.912  36.672  1.00  0.00     0.034 C 
HETATM   13  C9  UNL     1      13.616  36.602  35.329  1.00  0.00     0.168 C 
HETATM   14  O1  UNL     1      13.965  37.911  35.579  1.00  0.00    -0.391 OA
HETATM   15  C10 UNL     1      13.763  38.183  36.925  1.00  0.00     0.173 C 
ENDBRANCH  10  11
ENDBRANCH   7  10
ENDBRANCH   6   7
ENDBRANCH   2   6
TORSDOF 4
ENDMDL
MODEL 5
REMARK VINA RESULT: -4.929830451      4.402      7.123
REMARK  4 active torsions:
REMARK  status: ('A' for Active; 'I' for Inactive)
REMARK    1  A    between atoms: C2_2  and  C5_6 
REMARK    2  A    between atoms: C5_6  and  N2_7 
REMARK    3  A    between atoms: N2_7  and  C6_10 
REMARK    4  A    between atoms: C6_10  and  C7_11 
ROOT
HETATM    1  C1  UNL     1      15.699  36.324  36.645  1.00  0.00     0.033 C 
HETATM    2  C2  UNL     1      15.037  37.296  37.621  1.00  0.00     0.065 C 
HETATM    3  C3  UNL     1      13.889  36.608  38.271  1.00  0.00     0.033 C 
HETATM    4  C4  UNL     1      14.544  38.434  36.790  1.00  0.00     0.070 C 
HETATM    5  N1  UNL     1      14.180  39.332  36.137  1.00  0.00    -0.196 NA
ENDROOT
BRANCH   2   6
HETATM    6  C5  UNL     1      16.088  37.849  38.546  1.00  0.00     0.255 C 
BRANCH   6   7
HETATM    7  N2  UNL     1      15.979  39.233  38.807  1.00  0.00    -0.073 N 
ATOM      8  H22 UNL     1      16.809  39.722  38.474  1.00  0.00     0.277 HD
ATOM      9  H21 UNL     1      15.272  39.652  38.202  1.00  0.00     0.277 HD
BRANCH   7  10
HETATM   10  C6  UNL     1      15.723  39.562  40.167  1.00  0.00     0.239 C 
BRANCH  10  11
HETATM   11  C7  UNL     1      16.267  40.839  40.694  1.00  0.00     0.037 C 
HETATM   12  C8  UNL     1      15.310  41.648  41.536  1.00  0.00     0.034 C 
HETATM   13  C9  UNL     1      14.322  42.085  40.474  1.00  0.00     0.168 C 
HETATM   14  O1  UNL     1      14.955  41.954  39.258  1.00  0.00    -0.391 OA
HETATM   15  C10 UNL     1      16.316  41.795  39.473  1.00  0.00     0.173 C 
ENDBRANCH  10  11
ENDBRANCH   7  10
ENDBRANCH   6   7
ENDBRANCH   2   6
TORSDOF 4
ENDMDL
