MODEL 1
REMARK VINA RESULT: -4.773687119      0.000      0.000
REMARK  0 active torsions:
REMARK  status: ('A' for Active; 'I' for Inactive)
ROOT
HETATM    1  C1  UNL     1      11.991  36.251  34.119  1.00  0.00     0.015 C 
HETATM    2  C2  UNL     1      11.295  34.993  33.683  1.00  0.00     0.034 C 
HETATM    3  C3  UNL     1      10.028  34.794  34.523  1.00  0.00     0.174 C 
HETATM    4  O1  UNL     1       9.453  35.795  33.702  1.00  0.00    -0.385 OA
HETATM    5  C4  UNL     1      10.207  35.220  32.658  1.00  0.00     0.123 C 
HETATM    6  C5  UNL     1      10.539  36.126  31.528  1.00  0.00     0.040 C 
ENDROOT
TORSDOF 0
ENDMDL
MODEL 2
REMARK VINA RESULT: -4.358482995      1.122      2.306
REMARK  0 active torsions:
REMARK  status: ('A' for Active; 'I' for Inactive)
ROOT
HETATM    1  C1  UNL     1      10.654  36.482  31.504  1.00  0.00     0.015 C 
HETATM    2  C2  UNL     1       9.876  36.080  32.725  1.00  0.00     0.034 C 
HETATM    3  C3  UNL     1       9.468  34.607  32.608  1.00  0.00     0.174 C 
HETATM    4  O1  UNL     1      10.810  34.315  32.955  1.00  0.00    -0.385 OA
HETATM    5  C4  UNL     1      10.721  35.438  33.803  1.00  0.00     0.123 C 
HETATM    6  C5  UNL     1      12.008  36.107  34.124  1.00  0.00     0.040 C 
ENDROOT
TORSDOF 0
ENDMDL
MODEL 3
REMARK VINA RESULT: -4.317263162      0.865      2.135
REMARK  0 active torsions:
REMARK  status: ('A' for Active; 'I' for Inactive)
ROOT
HETATM    1  C1  UNL     1      10.075  34.735  34.774  1.00  0.00     0.015 C 
HETATM    2  C2  UNL     1      10.807  34.712  33.462  1.00  0.00     0.034 C 
HETATM    3  C3  UNL     1       9.930  35.347  32.377  1.00  0.00     0.174 C 
HETATM    4  O1  UNL     1      10.305  36.588  32.948  1.00  0.00    -0.385 OA
HETATM    5  C4  UNL     1      11.562  35.987  33.162  1.00  0.00     0.123 C 
HETATM    6  C5  UNL     1      12.369  36.558  34.271  1.00  0.00     0.040 C 
ENDROOT
TORSDOF 0
ENDMDL
MODEL 4
REMARK VINA RESULT: -4.200537901      1.023      2.752
REMARK  0 active torsions:
REMARK  status: ('A' for Active; 'I' for Inactive)
ROOT
HETATM    1  C1  UNL     1       8.894  34.339  32.172  1.00  0.00     0.015 C 
HETATM    2  C2  UNL     1      10.346  34.702  32.034  1.00  0.00     0.034 C 
HETATM    3  C3  UNL     1      10.465  36.117  31.454  1.00  0.00     0.174 C 
HETATM    4  O1  UNL     1      10.130  36.566  32.755  1.00  0.00    -0.385 OA
HETATM    5  C4  UNL     1      10.897  35.474  33.213  1.00  0.00     0.123 C 
HETATM    6  C5  UNL     1      10.548  34.962  34.563  1.00  0.00     0.040 C 
ENDROOT
TORSDOF 0
ENDMDL
MODEL 5
REMARK VINA RESULT: -4.192211390      1.389      2.719
REMARK  0 active torsions:
REMARK  status: ('A' for Active; 'I' for Inactive)
ROOT
HETATM    1  C1  UNL     1       9.299  35.420  33.128  1.00  0.00     0.015 C 
HETATM    2  C2  UNL     1      10.572  35.432  32.331  1.00  0.00     0.034 C 
HETATM    3  C3  UNL     1      10.597  36.669  31.427  1.00  0.00     0.174 C 
HETATM    4  O1  UNL     1      10.930  37.391  32.599  1.00  0.00    -0.385 OA
HETATM    5  C4  UNL     1      11.678  36.250  32.958  1.00  0.00     0.123 C 
HETATM    6  C5  UNL     1      11.902  36.058  34.414  1.00  0.00     0.040 C 
ENDROOT
TORSDOF 0
ENDMDL
