MODEL 1
REMARK VINA RESULT: -7.055372528      0.000      0.000
REMARK  7 active torsions:
REMARK  status: ('A' for Active; 'I' for Inactive)
REMARK    1  A    between atoms: C2_2  and  C4_4 
REMARK    2  A    between atoms: C4_4  and  C5_5 
REMARK    3  A    between atoms: C5_5  and  S1_6 
REMARK    4  A    between atoms: S1_6  and  N1_9 
REMARK    5  A    between atoms: N1_9  and  C6_11 
REMARK    6  A    between atoms: C7_12  and  O3_13 
REMARK    7  A    between atoms: C12_21  and  C13_22 
ROOT
HETATM    1  C6  UNL     1      61.952  41.973   2.800  1.00  0.00     0.088 A 
HETATM    2  C7  UNL     1      61.177  42.938   2.105  1.00  0.00     0.101 A 
HETATM    3  C8  UNL     1      60.529  43.947   2.768  1.00  0.00    -0.003 A 
HETATM    4  C9  UNL     1      59.717  44.956   2.018  1.00  0.00     0.053 C 
HETATM    5  C10 UNL     1      60.621  44.044   4.143  1.00  0.00     0.065 A 
HETATM    6 CL1  UNL     1      59.789  45.338   4.980  1.00  0.00    -0.082 Cl
HETATM    7  C11 UNL     1      61.371  43.107   4.817  1.00  0.00     0.070 A 
HETATM    8 CL2  UNL     1      61.430  43.273   6.560  1.00  0.00    -0.082 Cl
HETATM    9  C12 UNL     1      62.046  42.064   4.161  1.00  0.00     0.031 A 
ENDROOT
BRANCH   9  10
HETATM   10  C13 UNL     1      62.753  41.157   5.028  1.00  0.00     0.017 A 
HETATM   11  C14 UNL     1      62.388  39.942   5.461  1.00  0.00     0.004 A 
HETATM   12  C15 UNL     1      61.279  39.167   5.255  1.00  0.00     0.015 A 
HETATM   13  C20 UNL     1      63.376  39.408   6.270  1.00  0.00     0.044 A 
HETATM   14  C16 UNL     1      61.171  37.919   5.834  1.00  0.00     0.007 A 
HETATM   15  C17 UNL     1      62.146  37.383   6.637  1.00  0.00    -0.060 A 
HETATM   16  C18 UNL     1      62.013  36.035   7.254  1.00  0.00     0.048 C 
HETATM   17  C19 UNL     1      63.266  38.156   6.851  1.00  0.00     0.037 A 
HETATM   18  N2  UNL     1      64.365  40.226   6.377  1.00  0.00    -0.355 N 
HETATM   19  C21 UNL     1      64.064  41.389   5.611  1.00  0.00     0.035 A 
ATOM     20  H2  UNL     1      65.216  40.069   6.916  1.00  0.00     0.166 HD
HETATM   21  C22 UNL     1      64.858  42.454   5.467  1.00  0.00     0.044 C 
ENDBRANCH   9  10
BRANCH   1  22
HETATM   22  N1  UNL     1      62.598  40.987   2.021  1.00  0.00    -0.281 N 
ATOM     23  H1  UNL     1      62.070  40.139   1.813  1.00  0.00     0.178 HD
BRANCH  22  24
HETATM   24  S1  UNL     1      64.210  41.094   1.388  1.00  0.00     0.231 S 
HETATM   25  O1  UNL     1      64.916  42.308   1.909  1.00  0.00    -0.206 OA
HETATM   26  O2  UNL     1      64.037  41.289  -0.108  1.00  0.00    -0.206 OA
BRANCH  24  27
HETATM   27  C5  UNL     1      65.180  39.683   1.662  1.00  0.00     0.168 C 
BRANCH  27  28
HETATM   28  C4  UNL     1      65.207  39.066   2.999  1.00  0.00     0.049 C 
BRANCH  28  29
HETATM   29  C2  UNL     1      64.609  37.775   3.253  1.00  0.00    -0.092 C 
HETATM   30  C1  UNL     1      63.392  37.520   2.725  1.00  0.00     0.014 C 
HETATM   31  C3  UNL     1      65.171  36.708   4.115  1.00  0.00     0.042 C 
ENDBRANCH  28  29
ENDBRANCH  27  28
ENDBRANCH  24  27
ENDBRANCH  22  24
ENDBRANCH   1  22
BRANCH   2  32
HETATM   32  O3  UNL     1      61.083  42.845   0.728  1.00  0.00    -0.358 OA
ATOM     33  H3  UNL     1      60.228  42.709   0.340  1.00  0.00     0.217 HD
ENDBRANCH   2  32
TORSDOF 7
ENDMDL
MODEL 2
REMARK VINA RESULT: -6.948144554      1.038      1.434
REMARK  7 active torsions:
REMARK  status: ('A' for Active; 'I' for Inactive)
REMARK    1  A    between atoms: C2_2  and  C4_4 
REMARK    2  A    between atoms: C4_4  and  C5_5 
REMARK    3  A    between atoms: C5_5  and  S1_6 
REMARK    4  A    between atoms: S1_6  and  N1_9 
REMARK    5  A    between atoms: N1_9  and  C6_11 
REMARK    6  A    between atoms: C7_12  and  O3_13 
REMARK    7  A    between atoms: C12_21  and  C13_22 
ROOT
HETATM    1  C6  UNL     1      62.616  41.936   2.515  1.00  0.00     0.088 A 
HETATM    2  C7  UNL     1      61.943  42.842   1.652  1.00  0.00     0.101 A 
HETATM    3  C8  UNL     1      61.093  43.798   2.141  1.00  0.00    -0.003 A 
HETATM    4  C9  UNL     1      60.395  44.744   1.216  1.00  0.00     0.053 C 
HETATM    5  C10 UNL     1      60.872  43.899   3.501  1.00  0.00     0.065 A 
HETATM    6 CL1  UNL     1      59.783  45.126   4.115  1.00  0.00    -0.082 Cl
HETATM    7  C11 UNL     1      61.522  43.021   4.338  1.00  0.00     0.070 A 
HETATM    8 CL2  UNL     1      61.184  43.188   6.048  1.00  0.00    -0.082 Cl
HETATM    9  C12 UNL     1      62.400  42.032   3.862  1.00  0.00     0.031 A 
ENDROOT
BRANCH   9  10
HETATM   10  C13 UNL     1      62.963  41.179   4.877  1.00  0.00     0.017 A 
HETATM   11  C14 UNL     1      62.523  39.996   5.328  1.00  0.00     0.004 A 
HETATM   12  C15 UNL     1      61.445  39.215   5.014  1.00  0.00     0.015 A 
HETATM   13  C20 UNL     1      63.378  39.510   6.303  1.00  0.00     0.044 A 
HETATM   14  C16 UNL     1      61.239  38.006   5.648  1.00  0.00     0.007 A 
HETATM   15  C17 UNL     1      62.080  37.519   6.616  1.00  0.00    -0.060 A 
HETATM   16  C18 UNL     1      61.843  36.214   7.290  1.00  0.00     0.048 C 
HETATM   17  C19 UNL     1      63.169  38.299   6.939  1.00  0.00     0.037 A 
HETATM   18  N2  UNL     1      64.353  40.330   6.499  1.00  0.00    -0.355 N 
HETATM   19  C21 UNL     1      64.180  41.443   5.626  1.00  0.00     0.035 A 
ATOM     20  H2  UNL     1      65.115  40.204   7.164  1.00  0.00     0.166 HD
HETATM   21  C22 UNL     1      65.001  42.493   5.532  1.00  0.00     0.044 C 
ENDBRANCH   9  10
BRANCH   1  22
HETATM   22  N1  UNL     1      63.487  41.003   1.912  1.00  0.00    -0.281 N 
ATOM     23  H1  UNL     1      64.489  41.182   1.993  1.00  0.00     0.178 HD
BRANCH  22  24
HETATM   24  S1  UNL     1      63.003  39.578   1.048  1.00  0.00     0.231 S 
HETATM   25  O1  UNL     1      62.995  39.820  -0.430  1.00  0.00    -0.206 OA
HETATM   26  O2  UNL     1      61.564  39.331   1.464  1.00  0.00    -0.206 OA
BRANCH  24  27
HETATM   27  C5  UNL     1      63.943  38.167   1.412  1.00  0.00     0.168 C 
BRANCH  27  28
HETATM   28  C4  UNL     1      63.999  37.667   2.796  1.00  0.00     0.049 C 
BRANCH  28  29
HETATM   29  C2  UNL     1      65.173  37.840   3.620  1.00  0.00    -0.092 C 
HETATM   30  C1  UNL     1      65.451  36.893   4.543  1.00  0.00     0.014 C 
HETATM   31  C3  UNL     1      66.081  39.012   3.610  1.00  0.00     0.042 C 
ENDBRANCH  28  29
ENDBRANCH  27  28
ENDBRANCH  24  27
ENDBRANCH  22  24
ENDBRANCH   1  22
BRANCH   2  32
HETATM   32  O3  UNL     1      62.163  42.743   0.290  1.00  0.00    -0.358 OA
ATOM     33  H3  UNL     1      62.584  41.961  -0.046  1.00  0.00     0.217 HD
ENDBRANCH   2  32
TORSDOF 7
ENDMDL
MODEL 3
REMARK VINA RESULT: -6.627650889      3.666      5.688
REMARK  7 active torsions:
REMARK  status: ('A' for Active; 'I' for Inactive)
REMARK    1  A    between atoms: C2_2  and  C4_4 
REMARK    2  A    between atoms: C4_4  and  C5_5 
REMARK    3  A    between atoms: C5_5  and  S1_6 
REMARK    4  A    between atoms: S1_6  and  N1_9 
REMARK    5  A    between atoms: N1_9  and  C6_11 
REMARK    6  A    between atoms: C7_12  and  O3_13 
REMARK    7  A    between atoms: C12_21  and  C13_22 
ROOT
HETATM    1  C6  UNL     1      62.989  38.762   3.349  1.00  0.00     0.088 A 
HETATM    2  C7  UNL     1      61.869  38.196   4.014  1.00  0.00     0.101 A 
HETATM    3  C8  UNL     1      61.862  38.012   5.372  1.00  0.00    -0.003 A 
HETATM    4  C9  UNL     1      60.672  37.415   6.054  1.00  0.00     0.053 C 
HETATM    5  C10 UNL     1      62.958  38.380   6.128  1.00  0.00     0.065 A 
HETATM    6 CL1  UNL     1      62.936  38.142   7.862  1.00  0.00    -0.082 Cl
HETATM    7  C11 UNL     1      64.044  38.928   5.483  1.00  0.00     0.070 A 
HETATM    8 CL2  UNL     1      65.409  39.354   6.495  1.00  0.00    -0.082 Cl
HETATM    9  C12 UNL     1      64.077  39.128   4.093  1.00  0.00     0.031 A 
ENDROOT
BRANCH   9  10
HETATM   10  C13 UNL     1      65.307  39.679   3.587  1.00  0.00     0.017 A 
HETATM   11  C14 UNL     1      66.364  39.046   3.058  1.00  0.00     0.004 A 
HETATM   12  C15 UNL     1      66.647  37.729   2.822  1.00  0.00     0.015 A 
HETATM   13  C20 UNL     1      67.332  39.964   2.685  1.00  0.00     0.044 A 
HETATM   14  C16 UNL     1      67.841  37.355   2.241  1.00  0.00     0.007 A 
HETATM   15  C17 UNL     1      68.805  38.258   1.870  1.00  0.00    -0.060 A 
HETATM   16  C18 UNL     1      70.087  37.837   1.244  1.00  0.00     0.048 C 
HETATM   17  C19 UNL     1      68.530  39.587   2.103  1.00  0.00     0.037 A 
HETATM   18  N2  UNL     1      66.943  41.164   2.950  1.00  0.00    -0.355 N 
HETATM   19  C21 UNL     1      65.646  41.091   3.535  1.00  0.00     0.035 A 
ATOM     20  H2  UNL     1      67.472  42.017   2.771  1.00  0.00     0.166 HD
HETATM   21  C22 UNL     1      64.911  42.136   3.930  1.00  0.00     0.044 C 
ENDBRANCH   9  10
BRANCH   1  22
HETATM   22  N1  UNL     1      62.888  38.929   1.951  1.00  0.00    -0.281 N 
ATOM     23  H1  UNL     1      62.702  39.872   1.606  1.00  0.00     0.178 HD
BRANCH  22  24
HETATM   24  S1  UNL     1      63.053  37.671   0.767  1.00  0.00     0.231 S 
HETATM   25  O1  UNL     1      61.716  37.124   0.370  1.00  0.00    -0.206 OA
HETATM   26  O2  UNL     1      63.796  36.553   1.477  1.00  0.00    -0.206 OA
BRANCH  24  27
HETATM   27  C5  UNL     1      63.948  38.131  -0.646  1.00  0.00     0.168 C 
BRANCH  27  28
HETATM   28  C4  UNL     1      65.398  38.363  -0.544  1.00  0.00     0.049 C 
BRANCH  28  29
HETATM   29  C2  UNL     1      65.967  39.686  -0.662  1.00  0.00    -0.092 C 
HETATM   30  C1  UNL     1      65.224  40.739  -0.254  1.00  0.00     0.014 C 
HETATM   31  C3  UNL     1      67.278  40.022  -1.267  1.00  0.00     0.042 C 
ENDBRANCH  28  29
ENDBRANCH  27  28
ENDBRANCH  24  27
ENDBRANCH  22  24
ENDBRANCH   1  22
BRANCH   2  32
HETATM   32  O3  UNL     1      60.770  37.827   3.260  1.00  0.00    -0.358 OA
ATOM     33  H3  UNL     1      59.973  38.336   3.342  1.00  0.00     0.217 HD
ENDBRANCH   2  32
TORSDOF 7
ENDMDL
MODEL 4
REMARK VINA RESULT: -6.548708675      2.994      3.960
REMARK  7 active torsions:
REMARK  status: ('A' for Active; 'I' for Inactive)
REMARK    1  A    between atoms: C2_2  and  C4_4 
REMARK    2  A    between atoms: C4_4  and  C5_5 
REMARK    3  A    between atoms: C5_5  and  S1_6 
REMARK    4  A    between atoms: S1_6  and  N1_9 
REMARK    5  A    between atoms: N1_9  and  C6_11 
REMARK    6  A    between atoms: C7_12  and  O3_13 
REMARK    7  A    between atoms: C12_21  and  C13_22 
ROOT
HETATM    1  C6  UNL     1      64.787  43.021   1.146  1.00  0.00     0.088 A 
HETATM    2  C7  UNL     1      65.217  43.472  -0.130  1.00  0.00     0.101 A 
HETATM    3  C8  UNL     1      64.346  44.053  -1.013  1.00  0.00    -0.003 A 
HETATM    4  C9  UNL     1      64.818  44.524  -2.353  1.00  0.00     0.053 C 
HETATM    5  C10 UNL     1      63.016  44.211  -0.674  1.00  0.00     0.065 A 
HETATM    6 CL1  UNL     1      61.912  44.956  -1.811  1.00  0.00    -0.082 Cl
HETATM    7  C11 UNL     1      62.599  43.773   0.562  1.00  0.00     0.070 A 
HETATM    8 CL2  UNL     1      60.899  43.983   0.924  1.00  0.00    -0.082 Cl
HETATM    9  C12 UNL     1      63.472  43.175   1.487  1.00  0.00     0.031 A 
ENDROOT
BRANCH   9  10
HETATM   10  C13 UNL     1      62.855  42.745   2.716  1.00  0.00     0.017 A 
HETATM   11  C14 UNL     1      62.411  41.527   3.059  1.00  0.00     0.004 A 
HETATM   12  C15 UNL     1      62.378  40.324   2.409  1.00  0.00     0.015 A 
HETATM   13  C20 UNL     1      61.899  41.552   4.345  1.00  0.00     0.044 A 
HETATM   14  C16 UNL     1      61.858  39.203   3.024  1.00  0.00     0.007 A 
HETATM   15  C17 UNL     1      61.349  39.219   4.297  1.00  0.00    -0.060 A 
HETATM   16  C18 UNL     1      60.791  38.001   4.945  1.00  0.00     0.048 C 
HETATM   17  C19 UNL     1      61.377  40.427   4.960  1.00  0.00     0.037 A 
HETATM   18  N2  UNL     1      61.996  42.734   4.848  1.00  0.00    -0.355 N 
HETATM   19  C21 UNL     1      62.602  43.582   3.876  1.00  0.00     0.035 A 
ATOM     20  H2  UNL     1      61.692  43.015   5.780  1.00  0.00     0.166 HD
HETATM   21  C22 UNL     1      62.879  44.879   4.039  1.00  0.00     0.044 C 
ENDBRANCH   9  10
BRANCH   1  22
HETATM   22  N1  UNL     1      65.768  42.457   1.991  1.00  0.00    -0.281 N 
ATOM     23  H1  UNL     1      66.139  43.049   2.735  1.00  0.00     0.178 HD
BRANCH  22  24
HETATM   24  S1  UNL     1      66.397  40.843   1.875  1.00  0.00     0.231 S 
HETATM   25  O1  UNL     1      67.773  40.841   1.283  1.00  0.00    -0.206 OA
HETATM   26  O2  UNL     1      65.488  40.133   0.887  1.00  0.00    -0.206 OA
BRANCH  24  27
HETATM   27  C5  UNL     1      66.395  39.966   3.371  1.00  0.00     0.168 C 
BRANCH  27  28
HETATM   28  C4  UNL     1      65.474  40.366   4.448  1.00  0.00     0.049 C 
BRANCH  28  29
HETATM   29  C2  UNL     1      64.939  39.406   5.387  1.00  0.00    -0.092 C 
HETATM   30  C1  UNL     1      64.575  39.846   6.612  1.00  0.00     0.014 C 
HETATM   31  C3  UNL     1      64.817  37.946   5.167  1.00  0.00     0.042 C 
ENDBRANCH  28  29
ENDBRANCH  27  28
ENDBRANCH  24  27
ENDBRANCH  22  24
ENDBRANCH   1  22
BRANCH   2  32
HETATM   32  O3  UNL     1      66.548  43.316  -0.472  1.00  0.00    -0.358 OA
ATOM     33  H3  UNL     1      66.939  43.941  -1.070  1.00  0.00     0.217 HD
ENDBRANCH   2  32
TORSDOF 7
ENDMDL
MODEL 5
REMARK VINA RESULT: -6.537811286      3.153      5.520
REMARK  7 active torsions:
REMARK  status: ('A' for Active; 'I' for Inactive)
REMARK    1  A    between atoms: C2_2  and  C4_4 
REMARK    2  A    between atoms: C4_4  and  C5_5 
REMARK    3  A    between atoms: C5_5  and  S1_6 
REMARK    4  A    between atoms: S1_6  and  N1_9 
REMARK    5  A    between atoms: N1_9  and  C6_11 
REMARK    6  A    between atoms: C7_12  and  O3_13 
REMARK    7  A    between atoms: C12_21  and  C13_22 
ROOT
HETATM    1  C6  UNL     1      62.815  38.843   3.584  1.00  0.00     0.088 A 
HETATM    2  C7  UNL     1      61.727  38.227   4.259  1.00  0.00     0.101 A 
HETATM    3  C8  UNL     1      61.759  38.000   5.609  1.00  0.00    -0.003 A 
HETATM    4  C9  UNL     1      60.602  37.352   6.302  1.00  0.00     0.053 C 
HETATM    5  C10 UNL     1      62.866  38.371   6.349  1.00  0.00     0.065 A 
HETATM    6 CL1  UNL     1      62.895  38.076   8.075  1.00  0.00    -0.082 Cl
HETATM    7  C11 UNL     1      63.921  38.966   5.695  1.00  0.00     0.070 A 
HETATM    8 CL2  UNL     1      65.301  39.393   6.685  1.00  0.00    -0.082 Cl
HETATM    9  C12 UNL     1      63.912  39.211   4.312  1.00  0.00     0.031 A 
ENDROOT
BRANCH   9  10
HETATM   10  C13 UNL     1      65.116  39.809   3.792  1.00  0.00     0.017 A 
HETATM   11  C14 UNL     1      66.165  39.222   3.200  1.00  0.00     0.004 A 
HETATM   12  C15 UNL     1      66.462  37.923   2.892  1.00  0.00     0.015 A 
HETATM   13  C20 UNL     1      67.103  40.174   2.840  1.00  0.00     0.044 A 
HETATM   14  C16 UNL     1      67.642  37.599   2.255  1.00  0.00     0.007 A 
HETATM   15  C17 UNL     1      68.577  38.537   1.896  1.00  0.00    -0.060 A 
HETATM   16  C18 UNL     1      69.845  38.170   1.209  1.00  0.00     0.048 C 
HETATM   17  C19 UNL     1      68.287  39.848   2.201  1.00  0.00     0.037 A 
HETATM   18  N2  UNL     1      66.703  41.353   3.174  1.00  0.00    -0.355 N 
HETATM   19  C21 UNL     1      65.427  41.228   3.797  1.00  0.00     0.035 A 
ATOM     20  H2  UNL     1      67.211  42.223   3.020  1.00  0.00     0.166 HD
HETATM   21  C22 UNL     1      64.688  42.238   4.266  1.00  0.00     0.044 C 
ENDBRANCH   9  10
BRANCH   1  22
HETATM   22  N1  UNL     1      62.673  39.052   2.195  1.00  0.00    -0.281 N 
ATOM     23  H1  UNL     1      62.797  38.242   1.587  1.00  0.00     0.178 HD
BRANCH  22  24
HETATM   24  S1  UNL     1      62.305  40.567   1.433  1.00  0.00     0.231 S 
HETATM   25  O1  UNL     1      61.767  41.554   2.423  1.00  0.00    -0.206 OA
HETATM   26  O2  UNL     1      61.181  40.259   0.459  1.00  0.00    -0.206 OA
BRANCH  24  27
HETATM   27  C5  UNL     1      63.629  41.268   0.559  1.00  0.00     0.168 C 
BRANCH  27  28
HETATM   28  C4  UNL     1      64.667  40.393  -0.013  1.00  0.00     0.049 C 
BRANCH  28  29
HETATM   29  C2  UNL     1      65.922  40.920  -0.498  1.00  0.00    -0.092 C 
HETATM   30  C1  UNL     1      66.766  40.076  -1.133  1.00  0.00     0.014 C 
HETATM   31  C3  UNL     1      66.424  42.300  -0.301  1.00  0.00     0.042 C 
ENDBRANCH  28  29
ENDBRANCH  27  28
ENDBRANCH  24  27
ENDBRANCH  22  24
ENDBRANCH   1  22
BRANCH   2  32
HETATM   32  O3  UNL     1      60.618  37.856   3.522  1.00  0.00    -0.358 OA
ATOM     33  H3  UNL     1      59.916  37.391   3.961  1.00  0.00     0.217 HD
ENDBRANCH   2  32
TORSDOF 7
ENDMDL
