MODEL 1
REMARK VINA RESULT: -6.764380697      0.000      0.000
REMARK  8 active torsions:
REMARK  status: ('A' for Active; 'I' for Inactive)
REMARK    1  A    between atoms: C2_2  and  C3_3 
REMARK    2  A    between atoms: C2_2  and  C11_15 
REMARK    3  A    between atoms: C2_2  and  C14_23 
REMARK    4  A    between atoms: C3_3  and  O1_4 
REMARK    5  A    between atoms: O1_4  and  C4_5 
REMARK    6  A    between atoms: C4_5  and  C5_7 
REMARK    7  A    between atoms: C11_15  and  C12_16 
REMARK    8  A    between atoms: C12_16  and  N1_18 
ROOT
HETATM    1  C1  UNL     1      66.053  35.428   2.825  1.00  0.00     0.018 C 
HETATM    2  C2  UNL     1      65.439  36.792   3.081  1.00  0.00    -0.012 C 
ENDROOT
BRANCH   2   3
HETATM    3  C3  UNL     1      65.439  36.852   4.643  1.00  0.00     0.189 C 
BRANCH   3   4
HETATM    4  O1  UNL     1      64.167  37.204   5.125  1.00  0.00    -0.317 OA
BRANCH   4   5
HETATM    5  C4  UNL     1      63.997  38.240   5.996  1.00  0.00     0.293 C 
HETATM    6  O2  UNL     1      63.817  37.948   7.214  1.00  0.00    -0.259 OA
BRANCH   5   7
HETATM    7  C5  UNL     1      64.013  39.644   5.592  1.00  0.00     0.042 A 
HETATM    8  C6  UNL     1      65.009  40.185   4.816  1.00  0.00     0.041 A 
HETATM    9  C7  UNL     1      65.027  41.509   4.433  1.00  0.00     0.036 A 
HETATM   10 CL1  UNL     1      66.336  42.138   3.438  1.00  0.00    -0.084 Cl
HETATM   11  C8  UNL     1      63.984  42.335   4.854  1.00  0.00     0.047 A 
HETATM   12  C9  UNL     1      62.970  41.821   5.632  1.00  0.00     0.036 A 
HETATM   13 CL2  UNL     1      61.680  42.884   6.141  1.00  0.00    -0.084 Cl
HETATM   14  C10 UNL     1      63.001  40.488   5.987  1.00  0.00     0.041 A 
ENDBRANCH   5   7
ENDBRANCH   4   5
ENDBRANCH   3   4
ENDBRANCH   2   3
BRANCH   2  15
HETATM   15  C11 UNL     1      66.397  37.853   2.697  1.00  0.00     0.081 C 
BRANCH  15  16
HETATM   16  C12 UNL     1      67.284  37.667   1.584  1.00  0.00     0.080 C 
HETATM   17  S1  UNL     1      66.764  37.835   0.046  1.00  0.00    -0.065 SA
BRANCH  16  18
HETATM   18  N1  UNL     1      68.640  37.336   1.762  1.00  0.00    -0.327 N 
HETATM   19  C13 UNL     1      69.472  38.320   1.951  1.00  0.00     0.201 C 
HETATM   20  N2  UNL     1      70.848  38.037   2.134  1.00  0.00    -0.066 NA
HETATM   21  N3  UNL     1      69.065  39.675   1.984  1.00  0.00    -0.066 NA
ATOM     22  H1  UNL     1      68.958  36.367   1.743  1.00  0.00     0.168 HD
ENDBRANCH  16  18
ENDBRANCH  15  16
ENDBRANCH   2  15
BRANCH   2  23
HETATM   23  C14 UNL     1      64.021  36.938   2.693  1.00  0.00     0.001 C 
HETATM   24  C15 UNL     1      63.761  36.094   1.443  1.00  0.00     0.006 C 
HETATM   25  C16 UNL     1      62.377  36.584   1.065  1.00  0.00     0.006 C 
HETATM   26  C17 UNL     1      62.531  38.063   1.150  1.00  0.00    -0.001 A 
HETATM   27  C18 UNL     1      63.633  38.306   2.200  1.00  0.00     0.003 A 
HETATM   28  C19 UNL     1      62.237  38.825   2.363  1.00  0.00    -0.039 A 
HETATM   29  C20 UNL     1      61.325  38.237   3.413  1.00  0.00     0.015 C 
HETATM   30  C21 UNL     1      62.072  40.320   2.192  1.00  0.00     0.015 C 
ENDBRANCH   2  23
TORSDOF 8
ENDMDL
MODEL 2
REMARK VINA RESULT: -6.646220243      3.266      4.881
REMARK  8 active torsions:
REMARK  status: ('A' for Active; 'I' for Inactive)
REMARK    1  A    between atoms: C2_2  and  C3_3 
REMARK    2  A    between atoms: C2_2  and  C11_15 
REMARK    3  A    between atoms: C2_2  and  C14_23 
REMARK    4  A    between atoms: C3_3  and  O1_4 
REMARK    5  A    between atoms: O1_4  and  C4_5 
REMARK    6  A    between atoms: C4_5  and  C5_7 
REMARK    7  A    between atoms: C11_15  and  C12_16 
REMARK    8  A    between atoms: C12_16  and  N1_18 
ROOT
HETATM    1  C1  UNL     1      65.272  38.416   5.171  1.00  0.00     0.018 C 
HETATM    2  C2  UNL     1      63.821  38.712   4.841  1.00  0.00    -0.012 C 
ENDROOT
BRANCH   2   3
HETATM    3  C3  UNL     1      63.600  40.073   5.578  1.00  0.00     0.189 C 
BRANCH   3   4
HETATM    4  O1  UNL     1      64.788  40.824   5.598  1.00  0.00    -0.317 OA
BRANCH   4   5
HETATM    5  C4  UNL     1      64.829  42.105   5.132  1.00  0.00     0.293 C 
HETATM    6  O2  UNL     1      64.793  43.034   5.991  1.00  0.00    -0.259 OA
BRANCH   5   7
HETATM    7  C5  UNL     1      64.911  42.445   3.713  1.00  0.00     0.042 A 
HETATM    8  C6  UNL     1      65.943  42.034   2.907  1.00  0.00     0.041 A 
HETATM    9  C7  UNL     1      66.023  42.352   1.568  1.00  0.00     0.036 A 
HETATM   10 CL1  UNL     1      67.376  41.792   0.590  1.00  0.00    -0.084 Cl
HETATM   11  C8  UNL     1      65.006  43.130   1.009  1.00  0.00     0.047 A 
HETATM   12  C9  UNL     1      63.957  43.557   1.794  1.00  0.00     0.036 A 
HETATM   13 CL2  UNL     1      62.702  44.527   1.062  1.00  0.00    -0.084 Cl
HETATM   14  C10 UNL     1      63.927  43.208   3.128  1.00  0.00     0.041 A 
ENDBRANCH   5   7
ENDBRANCH   4   5
ENDBRANCH   3   4
ENDBRANCH   2   3
BRANCH   2  15
HETATM   15  C11 UNL     1      63.696  39.073   3.411  1.00  0.00     0.081 C 
BRANCH  15  16
HETATM   16  C12 UNL     1      64.200  38.198   2.390  1.00  0.00     0.080 C 
HETATM   17  S1  UNL     1      65.617  38.496   1.639  1.00  0.00    -0.065 SA
BRANCH  16  18
HETATM   18  N1  UNL     1      63.502  37.044   1.991  1.00  0.00    -0.327 N 
HETATM   19  C13 UNL     1      62.556  37.196   1.108  1.00  0.00     0.201 C 
HETATM   20  N2  UNL     1      61.825  36.064   0.675  1.00  0.00    -0.066 NA
HETATM   21  N3  UNL     1      62.220  38.454   0.552  1.00  0.00    -0.066 NA
ATOM     22  H1  UNL     1      63.726  36.126   2.376  1.00  0.00     0.168 HD
ENDBRANCH  16  18
ENDBRANCH  15  16
ENDBRANCH   2  15
BRANCH   2  23
HETATM   23  C14 UNL     1      62.829  37.791   5.433  1.00  0.00     0.001 C 
HETATM   24  C15 UNL     1      61.457  38.085   4.824  1.00  0.00     0.006 C 
HETATM   25  C16 UNL     1      60.571  37.255   5.733  1.00  0.00     0.006 C 
HETATM   26  C17 UNL     1      61.066  37.632   7.086  1.00  0.00    -0.001 A 
HETATM   27  C18 UNL     1      62.547  38.014   6.894  1.00  0.00     0.003 A 
HETATM   28  C19 UNL     1      62.115  36.888   7.784  1.00  0.00    -0.039 A 
HETATM   29  C20 UNL     1      62.403  35.458   7.394  1.00  0.00     0.015 C 
HETATM   30  C21 UNL     1      62.242  37.144   9.270  1.00  0.00     0.015 C 
ENDBRANCH   2  23
TORSDOF 8
ENDMDL
MODEL 3
REMARK VINA RESULT: -6.491347055      4.801      6.796
REMARK  8 active torsions:
REMARK  status: ('A' for Active; 'I' for Inactive)
REMARK    1  A    between atoms: C2_2  and  C3_3 
REMARK    2  A    between atoms: C2_2  and  C11_15 
REMARK    3  A    between atoms: C2_2  and  C14_23 
REMARK    4  A    between atoms: C3_3  and  O1_4 
REMARK    5  A    between atoms: O1_4  and  C4_5 
REMARK    6  A    between atoms: C4_5  and  C5_7 
REMARK    7  A    between atoms: C11_15  and  C12_16 
REMARK    8  A    between atoms: C12_16  and  N1_18 
ROOT
HETATM    1  C1  UNL     1      63.817  41.201   2.696  1.00  0.00     0.018 C 
HETATM    2  C2  UNL     1      64.537  41.400   4.016  1.00  0.00    -0.012 C 
ENDROOT
BRANCH   2   3
HETATM    3  C3  UNL     1      66.001  41.672   3.541  1.00  0.00     0.189 C 
BRANCH   3   4
HETATM    4  O1  UNL     1      66.009  42.207   2.241  1.00  0.00    -0.317 OA
BRANCH   4   5
HETATM    5  C4  UNL     1      66.807  41.689   1.263  1.00  0.00     0.293 C 
HETATM    6  O2  UNL     1      67.177  42.475   0.343  1.00  0.00    -0.259 OA
BRANCH   5   7
HETATM    7  C5  UNL     1      67.244  40.295   1.233  1.00  0.00     0.042 A 
HETATM    8  C6  UNL     1      68.463  39.886   1.714  1.00  0.00     0.041 A 
HETATM    9  C7  UNL     1      68.879  38.572   1.687  1.00  0.00     0.036 A 
HETATM   10 CL1  UNL     1      70.457  38.115   2.320  1.00  0.00    -0.084 Cl
HETATM   11  C8  UNL     1      68.018  37.615   1.145  1.00  0.00     0.047 A 
HETATM   12  C9  UNL     1      66.788  37.996   0.655  1.00  0.00     0.036 A 
HETATM   13 CL2  UNL     1      65.736  36.772  -0.015  1.00  0.00    -0.084 Cl
HETATM   14  C10 UNL     1      66.422  39.325   0.708  1.00  0.00     0.041 A 
ENDBRANCH   5   7
ENDBRANCH   4   5
ENDBRANCH   3   4
ENDBRANCH   2   3
BRANCH   2  15
HETATM   15  C11 UNL     1      64.128  42.688   4.621  1.00  0.00     0.081 C 
BRANCH  15  16
HETATM   16  C12 UNL     1      62.768  43.138   4.528  1.00  0.00     0.080 C 
HETATM   17  S1  UNL     1      61.622  42.595   5.555  1.00  0.00    -0.065 SA
BRANCH  16  18
HETATM   18  N1  UNL     1      62.358  44.068   3.555  1.00  0.00    -0.327 N 
HETATM   19  C13 UNL     1      62.443  45.331   3.866  1.00  0.00     0.201 C 
HETATM   20  N2  UNL     1      62.041  46.304   2.920  1.00  0.00    -0.066 NA
HETATM   21  N3  UNL     1      62.923  45.783   5.118  1.00  0.00    -0.066 NA
ATOM     22  H1  UNL     1      62.010  43.767   2.645  1.00  0.00     0.168 HD
ENDBRANCH  16  18
ENDBRANCH  15  16
ENDBRANCH   2  15
BRANCH   2  23
HETATM   23  C14 UNL     1      64.631  40.205   4.880  1.00  0.00     0.001 C 
HETATM   24  C15 UNL     1      65.756  39.308   4.361  1.00  0.00     0.006 C 
HETATM   25  C16 UNL     1      65.511  38.058   5.184  1.00  0.00     0.006 C 
HETATM   26  C17 UNL     1      64.043  37.860   5.029  1.00  0.00    -0.001 A 
HETATM   27  C18 UNL     1      63.457  39.268   4.800  1.00  0.00     0.003 A 
HETATM   28  C19 UNL     1      63.063  38.411   5.965  1.00  0.00    -0.039 A 
HETATM   29  C20 UNL     1      63.492  38.786   7.362  1.00  0.00     0.015 C 
HETATM   30  C21 UNL     1      61.670  37.822   5.900  1.00  0.00     0.015 C 
ENDBRANCH   2  23
TORSDOF 8
ENDMDL
MODEL 4
REMARK VINA RESULT: -6.447742514      4.617      6.427
REMARK  8 active torsions:
REMARK  status: ('A' for Active; 'I' for Inactive)
REMARK    1  A    between atoms: C2_2  and  C3_3 
REMARK    2  A    between atoms: C2_2  and  C11_15 
REMARK    3  A    between atoms: C2_2  and  C14_23 
REMARK    4  A    between atoms: C3_3  and  O1_4 
REMARK    5  A    between atoms: O1_4  and  C4_5 
REMARK    6  A    between atoms: C4_5  and  C5_7 
REMARK    7  A    between atoms: C11_15  and  C12_16 
REMARK    8  A    between atoms: C12_16  and  N1_18 
ROOT
HETATM    1  C1  UNL     1      63.307  41.164   2.578  1.00  0.00     0.018 C 
HETATM    2  C2  UNL     1      63.967  42.396   3.170  1.00  0.00    -0.012 C 
ENDROOT
BRANCH   2   3
HETATM    3  C3  UNL     1      64.892  41.766   4.261  1.00  0.00     0.189 C 
BRANCH   3   4
HETATM    4  O1  UNL     1      64.535  40.428   4.501  1.00  0.00    -0.317 OA
BRANCH   4   5
HETATM    5  C4  UNL     1      64.323  39.963   5.766  1.00  0.00     0.293 C 
HETATM    6  O2  UNL     1      65.099  40.384   6.674  1.00  0.00    -0.259 OA
BRANCH   5   7
HETATM    7  C5  UNL     1      63.263  39.020   6.112  1.00  0.00     0.042 A 
HETATM    8  C6  UNL     1      63.198  38.384   7.327  1.00  0.00     0.041 A 
HETATM    9  C7  UNL     1      62.199  37.493   7.656  1.00  0.00     0.036 A 
HETATM   10 CL1  UNL     1      62.176  36.711   9.234  1.00  0.00    -0.084 Cl
HETATM   11  C8  UNL     1      61.209  37.226   6.709  1.00  0.00     0.047 A 
HETATM   12  C9  UNL     1      61.247  37.850   5.480  1.00  0.00     0.036 A 
HETATM   13 CL2  UNL     1      59.992  37.494   4.319  1.00  0.00    -0.084 Cl
HETATM   14  C10 UNL     1      62.270  38.733   5.204  1.00  0.00     0.041 A 
ENDBRANCH   5   7
ENDBRANCH   4   5
ENDBRANCH   3   4
ENDBRANCH   2   3
BRANCH   2  15
HETATM   15  C11 UNL     1      64.924  42.967   2.197  1.00  0.00     0.081 C 
BRANCH  15  16
HETATM   16  C12 UNL     1      64.469  43.463   0.929  1.00  0.00     0.080 C 
HETATM   17  S1  UNL     1      64.546  42.547  -0.419  1.00  0.00    -0.065 SA
BRANCH  16  18
HETATM   18  N1  UNL     1      63.934  44.757   0.786  1.00  0.00    -0.327 N 
HETATM   19  C13 UNL     1      62.647  44.852   0.607  1.00  0.00     0.201 C 
HETATM   20  N2  UNL     1      62.062  46.132   0.458  1.00  0.00    -0.066 NA
HETATM   21  N3  UNL     1      61.794  43.724   0.556  1.00  0.00    -0.066 NA
ATOM     22  H1  UNL     1      64.529  45.585   0.821  1.00  0.00     0.168 HD
ENDBRANCH  16  18
ENDBRANCH  15  16
ENDBRANCH   2  15
BRANCH   2  23
HETATM   23  C14 UNL     1      63.071  43.309   3.908  1.00  0.00     0.001 C 
HETATM   24  C15 UNL     1      63.619  43.502   5.323  1.00  0.00     0.006 C 
HETATM   25  C16 UNL     1      62.452  44.219   5.974  1.00  0.00     0.006 C 
HETATM   26  C17 UNL     1      61.293  43.384   5.551  1.00  0.00    -0.001 A 
HETATM   27  C18 UNL     1      61.702  42.758   4.204  1.00  0.00     0.003 A 
HETATM   28  C19 UNL     1      60.513  43.658   4.345  1.00  0.00    -0.039 A 
HETATM   29  C20 UNL     1      60.532  45.042   3.740  1.00  0.00     0.015 C 
HETATM   30  C21 UNL     1      59.164  42.979   4.250  1.00  0.00     0.015 C 
ENDBRANCH   2  23
TORSDOF 8
ENDMDL
MODEL 5
REMARK VINA RESULT: -6.405009051      3.200      4.809
REMARK  8 active torsions:
REMARK  status: ('A' for Active; 'I' for Inactive)
REMARK    1  A    between atoms: C2_2  and  C3_3 
REMARK    2  A    between atoms: C2_2  and  C11_15 
REMARK    3  A    between atoms: C2_2  and  C14_23 
REMARK    4  A    between atoms: C3_3  and  O1_4 
REMARK    5  A    between atoms: O1_4  and  C4_5 
REMARK    6  A    between atoms: C4_5  and  C5_7 
REMARK    7  A    between atoms: C11_15  and  C12_16 
REMARK    8  A    between atoms: C12_16  and  N1_18 
ROOT
HETATM    1  C1  UNL     1      65.451  37.914   4.973  1.00  0.00     0.018 C 
HETATM    2  C2  UNL     1      64.050  38.480   4.840  1.00  0.00    -0.012 C 
ENDROOT
BRANCH   2   3
HETATM    3  C3  UNL     1      64.136  39.755   5.740  1.00  0.00     0.189 C 
BRANCH   3   4
HETATM    4  O1  UNL     1      64.681  40.833   5.021  1.00  0.00    -0.317 OA
BRANCH   4   5
HETATM    5  C4  UNL     1      64.231  42.108   5.198  1.00  0.00     0.293 C 
HETATM    6  O2  UNL     1      64.971  42.897   5.854  1.00  0.00    -0.259 OA
BRANCH   5   7
HETATM    7  C5  UNL     1      62.956  42.592   4.674  1.00  0.00     0.042 A 
HETATM    8  C6  UNL     1      62.504  42.288   3.413  1.00  0.00     0.041 A 
HETATM    9  C7  UNL     1      61.302  42.743   2.916  1.00  0.00     0.036 A 
HETATM   10 CL1  UNL     1      60.783  42.315   1.288  1.00  0.00    -0.084 Cl
HETATM   11  C8  UNL     1      60.509  43.550   3.733  1.00  0.00     0.047 A 
HETATM   12  C9  UNL     1      60.935  43.872   5.004  1.00  0.00     0.036 A 
HETATM   13 CL2  UNL     1      59.917  44.884   6.000  1.00  0.00    -0.084 Cl
HETATM   14  C10 UNL     1      62.147  43.389   5.451  1.00  0.00     0.041 A 
ENDBRANCH   5   7
ENDBRANCH   4   5
ENDBRANCH   3   4
ENDBRANCH   2   3
BRANCH   2  15
HETATM   15  C11 UNL     1      63.859  39.032   3.481  1.00  0.00     0.081 C 
BRANCH  15  16
HETATM   16  C12 UNL     1      64.276  38.288   2.325  1.00  0.00     0.080 C 
HETATM   17  S1  UNL     1      65.551  38.763   1.424  1.00  0.00    -0.065 SA
BRANCH  16  18
HETATM   18  N1  UNL     1      63.611  37.118   1.916  1.00  0.00    -0.327 N 
HETATM   19  C13 UNL     1      62.594  37.261   1.115  1.00  0.00     0.201 C 
HETATM   20  N2  UNL     1      61.892  36.112   0.675  1.00  0.00    -0.066 NA
HETATM   21  N3  UNL     1      62.151  38.523   0.654  1.00  0.00    -0.066 NA
ATOM     22  H1  UNL     1      63.912  36.196   2.234  1.00  0.00     0.168 HD
ENDBRANCH  16  18
ENDBRANCH  15  16
ENDBRANCH   2  15
BRANCH   2  23
HETATM   23  C14 UNL     1      62.971  37.664   5.435  1.00  0.00     0.001 C 
HETATM   24  C15 UNL     1      61.638  38.074   4.809  1.00  0.00     0.006 C 
HETATM   25  C16 UNL     1      60.671  37.344   5.720  1.00  0.00     0.006 C 
HETATM   26  C17 UNL     1      61.187  37.693   7.073  1.00  0.00    -0.001 A 
HETATM   27  C18 UNL     1      62.699  37.933   6.890  1.00  0.00     0.003 A 
HETATM   28  C19 UNL     1      62.156  36.866   7.792  1.00  0.00    -0.039 A 
HETATM   29  C20 UNL     1      62.314  35.410   7.426  1.00  0.00     0.015 C 
HETATM   30  C21 UNL     1      62.294  37.132   9.276  1.00  0.00     0.015 C 
ENDBRANCH   2  23
TORSDOF 8
ENDMDL
