MODEL 1
REMARK VINA RESULT: -6.258646742      0.000      0.000
REMARK  7 active torsions:
REMARK  status: ('A' for Active; 'I' for Inactive)
REMARK    1  A    between atoms: C2_2  and  C3_3 
REMARK    2  A    between atoms: C3_3  and  N1_4 
REMARK    3  A    between atoms: N1_4  and  C4_5 
REMARK    4  A    between atoms: N1_4  and  S1_25 
REMARK    5  A    between atoms: C8_11  and  C9_12 
REMARK    6  A    between atoms: C9_12  and  N3_14 
REMARK    7  A    between atoms: N3_14  and  C11_17 
ROOT
HETATM    1  C4  UNL     1      63.904  39.337   5.144  1.00  0.00     0.046 A 
HETATM    2  C5  UNL     1      64.187  40.675   5.205  1.00  0.00     0.032 A 
HETATM    3  C6  UNL     1      65.217  41.284   4.480  1.00  0.00     0.033 A 
HETATM    4  C7  UNL     1      65.996  40.497   3.655  1.00  0.00     0.044 A 
HETATM    5  N2  UNL     1      67.014  40.800   2.846  1.00  0.00    -0.356 N 
ATOM      6  H2  UNL     1      67.407  41.729   2.701  1.00  0.00     0.166 HD
HETATM    7  C8  UNL     1      67.428  39.675   2.262  1.00  0.00     0.058 A 
HETATM    8  C14 UNL     1      66.661  38.650   2.706  1.00  0.00     0.048 A 
HETATM    9 BR1  UNL     1      66.748  36.789   2.250  1.00  0.00    -0.048 Br
HETATM   10  C15 UNL     1      65.731  39.160   3.591  1.00  0.00     0.012 A 
HETATM   11  C16 UNL     1      64.690  38.574   4.326  1.00  0.00     0.045 A 
ENDROOT
BRANCH   7  12
HETATM   12  C9  UNL     1      68.615  39.509   1.334  1.00  0.00     0.235 C 
HETATM   13  C10 UNL     1      69.788  39.453   2.261  1.00  0.00     0.047 C 
BRANCH  12  14
HETATM   14  N3  UNL     1      68.562  40.482   0.317  1.00  0.00    -0.044 N 
ATOM     15  H32 UNL     1      68.130  41.340   0.659  1.00  0.00     0.280 HD
ATOM     16  H31 UNL     1      69.495  40.834   0.104  1.00  0.00     0.280 HD
BRANCH  14  17
HETATM   17  C11 UNL     1      67.900  40.018  -0.889  1.00  0.00     0.194 C 
HETATM   18  C12 UNL     1      68.221  40.938  -2.042  1.00  0.00     0.064 C 
HETATM   19  C13 UNL     1      68.458  38.632  -1.262  1.00  0.00     0.064 C 
HETATM   20 CL1  UNL     1      66.132  40.013  -0.761  1.00  0.00    -0.088 Cl
ENDBRANCH  14  17
ENDBRANCH  12  14
ENDBRANCH   7  12
BRANCH   1  21
HETATM   21  N1  UNL     1      62.769  38.717   5.757  1.00  0.00    -0.273 N 
BRANCH  21  22
HETATM   22  C3  UNL     1      62.899  38.056   7.031  1.00  0.00     0.168 C 
BRANCH  22  23
HETATM   23  C2  UNL     1      63.140  36.624   6.964  1.00  0.00    -0.016 C 
HETATM   24  C1  UNL     1      62.347  35.816   7.718  1.00  0.00     0.008 C 
ENDBRANCH  22  23
ENDBRANCH  21  22
BRANCH  21  25
HETATM   25  S1  UNL     1      61.219  38.611   4.953  1.00  0.00     0.229 S 
HETATM   26  C17 UNL     1      61.375  37.966   3.301  1.00  0.00     0.186 C 
HETATM   27  O1  UNL     1      60.288  37.775   5.782  1.00  0.00    -0.206 OA
HETATM   28  O2  UNL     1      60.674  40.027   4.883  1.00  0.00    -0.206 OA
ENDBRANCH  21  25
ENDBRANCH   1  21
TORSDOF 7
ENDMDL
MODEL 2
REMARK VINA RESULT: -6.204563686      1.275      1.416
REMARK  7 active torsions:
REMARK  status: ('A' for Active; 'I' for Inactive)
REMARK    1  A    between atoms: C2_2  and  C3_3 
REMARK    2  A    between atoms: C3_3  and  N1_4 
REMARK    3  A    between atoms: N1_4  and  C4_5 
REMARK    4  A    between atoms: N1_4  and  S1_25 
REMARK    5  A    between atoms: C8_11  and  C9_12 
REMARK    6  A    between atoms: C9_12  and  N3_14 
REMARK    7  A    between atoms: N3_14  and  C11_17 
ROOT
HETATM    1  C4  UNL     1      64.257  38.581   4.860  1.00  0.00     0.046 A 
HETATM    2  C5  UNL     1      64.587  39.907   4.787  1.00  0.00     0.032 A 
HETATM    3  C6  UNL     1      65.657  40.400   4.031  1.00  0.00     0.033 A 
HETATM    4  C7  UNL     1      66.425  39.504   3.315  1.00  0.00     0.044 A 
HETATM    5  N2  UNL     1      67.474  39.684   2.507  1.00  0.00    -0.356 N 
ATOM      6  H2  UNL     1      67.904  40.579   2.276  1.00  0.00     0.166 HD
HETATM    7  C8  UNL     1      67.859  38.490   2.057  1.00  0.00     0.058 A 
HETATM    8  C14 UNL     1      67.045  37.545   2.585  1.00  0.00     0.048 A 
HETATM    9 BR1  UNL     1      67.075  35.644   2.331  1.00  0.00    -0.048 Br
HETATM   10  C15 UNL     1      66.113  38.177   3.386  1.00  0.00     0.012 A 
HETATM   11  C16 UNL     1      65.034  37.709   4.149  1.00  0.00     0.045 A 
ENDROOT
BRANCH   7  12
HETATM   12  C9  UNL     1      69.062  38.186   1.186  1.00  0.00     0.235 C 
HETATM   13  C10 UNL     1      70.222  38.303   2.123  1.00  0.00     0.047 C 
BRANCH  12  14
HETATM   14  N3  UNL     1      69.012  38.971   0.018  1.00  0.00    -0.044 N 
ATOM     15  H32 UNL     1      68.260  39.659   0.075  1.00  0.00     0.280 HD
ATOM     16  H31 UNL     1      69.814  39.600  -0.030  1.00  0.00     0.280 HD
BRANCH  14  17
HETATM   17  C11 UNL     1      68.901  38.187  -1.199  1.00  0.00     0.194 C 
HETATM   18  C12 UNL     1      68.589  39.089  -2.369  1.00  0.00     0.064 C 
HETATM   19  C13 UNL     1      70.263  37.533  -1.497  1.00  0.00     0.064 C 
HETATM   20 CL1  UNL     1      67.586  36.999  -1.150  1.00  0.00    -0.088 Cl
ENDBRANCH  14  17
ENDBRANCH  12  14
ENDBRANCH   7  12
BRANCH   1  21
HETATM   21  N1  UNL     1      63.086  38.069   5.503  1.00  0.00    -0.273 N 
BRANCH  21  22
HETATM   22  C3  UNL     1      63.203  37.218   6.659  1.00  0.00     0.168 C 
BRANCH  22  23
HETATM   23  C2  UNL     1      62.935  37.864   7.934  1.00  0.00    -0.016 C 
HETATM   24  C1  UNL     1      62.219  37.167   8.856  1.00  0.00     0.008 C 
ENDBRANCH  22  23
ENDBRANCH  21  22
BRANCH  21  25
HETATM   25  S1  UNL     1      61.480  38.330   4.859  1.00  0.00     0.229 S 
HETATM   26  C17 UNL     1      61.408  38.002   3.111  1.00  0.00     0.186 C 
HETATM   27  O1  UNL     1      60.499  37.484   5.617  1.00  0.00    -0.206 OA
HETATM   28  O2  UNL     1      61.154  39.795   5.102  1.00  0.00    -0.206 OA
ENDBRANCH  21  25
ENDBRANCH   1  21
TORSDOF 7
ENDMDL
MODEL 3
REMARK VINA RESULT: -6.135464671      4.329      7.764
REMARK  7 active torsions:
REMARK  status: ('A' for Active; 'I' for Inactive)
REMARK    1  A    between atoms: C2_2  and  C3_3 
REMARK    2  A    between atoms: C3_3  and  N1_4 
REMARK    3  A    between atoms: N1_4  and  C4_5 
REMARK    4  A    between atoms: N1_4  and  S1_25 
REMARK    5  A    between atoms: C8_11  and  C9_12 
REMARK    6  A    between atoms: C9_12  and  N3_14 
REMARK    7  A    between atoms: N3_14  and  C11_17 
ROOT
HETATM    1  C4  UNL     1      66.060  38.616   0.752  1.00  0.00     0.046 A 
HETATM    2  C5  UNL     1      67.182  38.715   1.529  1.00  0.00     0.032 A 
HETATM    3  C6  UNL     1      67.160  38.703   2.928  1.00  0.00     0.033 A 
HETATM    4  C7  UNL     1      65.942  38.585   3.566  1.00  0.00     0.044 A 
HETATM    5  N2  UNL     1      65.623  38.526   4.862  1.00  0.00    -0.356 N 
ATOM      6  H2  UNL     1      66.279  38.563   5.642  1.00  0.00     0.166 HD
HETATM    7  C8  UNL     1      64.299  38.410   4.958  1.00  0.00     0.058 A 
HETATM    8  C14 UNL     1      63.774  38.395   3.710  1.00  0.00     0.048 A 
HETATM    9 BR1  UNL     1      61.939  38.251   3.170  1.00  0.00    -0.048 Br
HETATM   10  C15 UNL     1      64.813  38.495   2.804  1.00  0.00     0.012 A 
HETATM   11  C16 UNL     1      64.862  38.506   1.403  1.00  0.00     0.045 A 
ENDROOT
BRANCH   7  12
HETATM   12  C9  UNL     1      63.471  38.401   6.228  1.00  0.00     0.235 C 
HETATM   13  C10 UNL     1      63.852  39.675   6.914  1.00  0.00     0.047 C 
BRANCH  12  14
HETATM   14  N3  UNL     1      63.629  37.166   6.888  1.00  0.00    -0.044 N 
ATOM     15  H32 UNL     1      63.982  36.456   6.247  1.00  0.00     0.280 HD
ATOM     16  H31 UNL     1      64.408  37.204   7.545  1.00  0.00     0.280 HD
BRANCH  14  17
HETATM   17  C11 UNL     1      62.420  36.709   7.549  1.00  0.00     0.194 C 
HETATM   18  C12 UNL     1      61.204  37.176   6.786  1.00  0.00     0.064 C 
HETATM   19  C13 UNL     1      62.391  35.169   7.525  1.00  0.00     0.064 C 
HETATM   20 CL1  UNL     1      62.230  37.355   9.189  1.00  0.00    -0.088 Cl
ENDBRANCH  14  17
ENDBRANCH  12  14
ENDBRANCH   7  12
BRANCH   1  21
HETATM   21  N1  UNL     1      66.066  38.477  -0.672  1.00  0.00    -0.273 N 
BRANCH  21  22
HETATM   22  C3  UNL     1      66.273  39.627  -1.516  1.00  0.00     0.168 C 
BRANCH  22  23
HETATM   23  C2  UNL     1      67.664  39.964  -1.774  1.00  0.00    -0.016 C 
HETATM   24  C1  UNL     1      68.133  41.135  -1.267  1.00  0.00     0.008 C 
ENDBRANCH  22  23
ENDBRANCH  21  22
BRANCH  21  25
HETATM   25  S1  UNL     1      65.700  36.960  -1.462  1.00  0.00     0.229 S 
HETATM   26  C17 UNL     1      63.947  36.739  -1.687  1.00  0.00     0.186 C 
HETATM   27  O1  UNL     1      66.433  36.892  -2.770  1.00  0.00    -0.206 OA
HETATM   28  O2  UNL     1      66.224  35.864  -0.550  1.00  0.00    -0.206 OA
ENDBRANCH  21  25
ENDBRANCH   1  21
TORSDOF 7
ENDMDL
MODEL 4
REMARK VINA RESULT: -6.070818631      4.692      7.513
REMARK  7 active torsions:
REMARK  status: ('A' for Active; 'I' for Inactive)
REMARK    1  A    between atoms: C2_2  and  C3_3 
REMARK    2  A    between atoms: C3_3  and  N1_4 
REMARK    3  A    between atoms: N1_4  and  C4_5 
REMARK    4  A    between atoms: N1_4  and  S1_25 
REMARK    5  A    between atoms: C8_11  and  C9_12 
REMARK    6  A    between atoms: C9_12  and  N3_14 
REMARK    7  A    between atoms: N3_14  and  C11_17 
ROOT
HETATM    1  C4  UNL     1      67.723  37.279   1.868  1.00  0.00     0.046 A 
HETATM    2  C5  UNL     1      67.105  36.245   2.516  1.00  0.00     0.032 A 
HETATM    3  C6  UNL     1      66.135  36.420   3.508  1.00  0.00     0.033 A 
HETATM    4  C7  UNL     1      65.775  37.706   3.857  1.00  0.00     0.044 A 
HETATM    5  N2  UNL     1      64.882  38.168   4.737  1.00  0.00    -0.356 N 
ATOM      6  H2  UNL     1      64.282  37.600   5.334  1.00  0.00     0.166 HD
HETATM    7  C8  UNL     1      64.912  39.500   4.697  1.00  0.00     0.058 A 
HETATM    8  C14 UNL     1      65.833  39.884   3.781  1.00  0.00     0.048 A 
HETATM    9 BR1  UNL     1      66.352  41.656   3.256  1.00  0.00    -0.048 Br
HETATM   10  C15 UNL     1      66.389  38.748   3.225  1.00  0.00     0.012 A 
HETATM   11  C16 UNL     1      67.357  38.546   2.231  1.00  0.00     0.045 A 
ENDROOT
BRANCH   7  12
HETATM   12  C9  UNL     1      64.141  40.460   5.581  1.00  0.00     0.235 C 
HETATM   13  C10 UNL     1      63.815  39.646   6.794  1.00  0.00     0.047 C 
BRANCH  12  14
HETATM   14  N3  UNL     1      63.110  41.067   4.837  1.00  0.00    -0.044 N 
ATOM     15  H32 UNL     1      63.230  40.887   3.840  1.00  0.00     0.280 HD
ATOM     16  H31 UNL     1      62.223  40.587   4.990  1.00  0.00     0.280 HD
BRANCH  14  17
HETATM   17  C11 UNL     1      62.977  42.489   5.092  1.00  0.00     0.194 C 
HETATM   18  C12 UNL     1      62.764  43.230   3.794  1.00  0.00     0.064 C 
HETATM   19  C13 UNL     1      61.719  42.727   5.947  1.00  0.00     0.064 C 
HETATM   20 CL1  UNL     1      64.425  43.210   5.819  1.00  0.00    -0.088 Cl
ENDBRANCH  14  17
ENDBRANCH  12  14
ENDBRANCH   7  12
BRANCH   1  21
HETATM   21  N1  UNL     1      68.606  37.128   0.752  1.00  0.00    -0.273 N 
BRANCH  21  22
HETATM   22  C3  UNL     1      68.168  37.473  -0.576  1.00  0.00     0.168 C 
BRANCH  22  23
HETATM   23  C2  UNL     1      67.267  36.518  -1.200  1.00  0.00    -0.016 C 
HETATM   24  C1  UNL     1      65.965  36.881  -1.345  1.00  0.00     0.008 C 
ENDBRANCH  22  23
ENDBRANCH  21  22
BRANCH  21  25
HETATM   25  S1  UNL     1      70.192  36.407   0.910  1.00  0.00     0.229 S 
HETATM   26  C17 UNL     1      70.219  34.732   0.307  1.00  0.00     0.186 C 
HETATM   27  O1  UNL     1      71.199  37.262   0.198  1.00  0.00    -0.206 OA
HETATM   28  O2  UNL     1      70.516  36.404   2.395  1.00  0.00    -0.206 OA
ENDBRANCH  21  25
ENDBRANCH   1  21
TORSDOF 7
ENDMDL
MODEL 5
REMARK VINA RESULT: -6.050977482      4.129      7.859
REMARK  7 active torsions:
REMARK  status: ('A' for Active; 'I' for Inactive)
REMARK    1  A    between atoms: C2_2  and  C3_3 
REMARK    2  A    between atoms: C3_3  and  N1_4 
REMARK    3  A    between atoms: N1_4  and  C4_5 
REMARK    4  A    between atoms: N1_4  and  S1_25 
REMARK    5  A    between atoms: C8_11  and  C9_12 
REMARK    6  A    between atoms: C9_12  and  N3_14 
REMARK    7  A    between atoms: N3_14  and  C11_17 
ROOT
HETATM    1  C4  UNL     1      66.392  38.499   0.779  1.00  0.00     0.046 A 
HETATM    2  C5  UNL     1      67.450  38.719   1.618  1.00  0.00     0.032 A 
HETATM    3  C6  UNL     1      67.331  38.816   3.009  1.00  0.00     0.033 A 
HETATM    4  C7  UNL     1      66.078  38.681   3.573  1.00  0.00     0.044 A 
HETATM    5  N2  UNL     1      65.672  38.707   4.845  1.00  0.00    -0.356 N 
ATOM      6  H2  UNL     1      66.269  38.841   5.661  1.00  0.00     0.166 HD
HETATM    7  C8  UNL     1      64.351  38.527   4.863  1.00  0.00     0.058 A 
HETATM    8  C14 UNL     1      63.918  38.385   3.587  1.00  0.00     0.048 A 
HETATM    9 BR1  UNL     1      62.134  38.100   2.941  1.00  0.00    -0.048 Br
HETATM   10  C15 UNL     1      65.012  38.471   2.748  1.00  0.00     0.012 A 
HETATM   11  C16 UNL     1      65.158  38.374   1.356  1.00  0.00     0.045 A 
ENDROOT
BRANCH   7  12
HETATM   12  C9  UNL     1      63.438  38.572   6.071  1.00  0.00     0.235 C 
HETATM   13  C10 UNL     1      63.688  39.924   6.660  1.00  0.00     0.047 C 
BRANCH  12  14
HETATM   14  N3  UNL     1      63.626  37.414   6.851  1.00  0.00    -0.044 N 
ATOM     15  H32 UNL     1      64.117  36.695   6.319  1.00  0.00     0.280 HD
ATOM     16  H31 UNL     1      64.314  37.580   7.586  1.00  0.00     0.280 HD
BRANCH  14  17
HETATM   17  C11 UNL     1      62.393  36.890   7.410  1.00  0.00     0.194 C 
HETATM   18  C12 UNL     1      62.423  35.380   7.402  1.00  0.00     0.064 C 
HETATM   19  C13 UNL     1      62.290  37.322   8.884  1.00  0.00     0.064 C 
HETATM   20 CL1  UNL     1      60.953  37.342   6.480  1.00  0.00    -0.088 Cl
ENDBRANCH  14  17
ENDBRANCH  12  14
ENDBRANCH   7  12
BRANCH   1  21
HETATM   21  N1  UNL     1      66.506  38.250  -0.625  1.00  0.00    -0.273 N 
BRANCH  21  22
HETATM   22  C3  UNL     1      66.058  39.233  -1.579  1.00  0.00     0.168 C 
BRANCH  22  23
HETATM   23  C2  UNL     1      66.830  40.464  -1.608  1.00  0.00    -0.016 C 
HETATM   24  C1  UNL     1      68.149  40.373  -1.925  1.00  0.00     0.008 C 
ENDBRANCH  22  23
ENDBRANCH  21  22
BRANCH  21  25
HETATM   25  S1  UNL     1      67.060  36.716  -1.257  1.00  0.00     0.229 S 
HETATM   26  C17 UNL     1      68.836  36.655  -1.379  1.00  0.00     0.186 C 
HETATM   27  O1  UNL     1      66.532  35.605  -0.397  1.00  0.00    -0.206 OA
HETATM   28  O2  UNL     1      66.463  36.583  -2.648  1.00  0.00    -0.206 OA
ENDBRANCH  21  25
ENDBRANCH   1  21
TORSDOF 7
ENDMDL
