MODEL 1
REMARK VINA RESULT: -7.371686711      0.000      0.000
REMARK  7 active torsions:
REMARK  status: ('A' for Active; 'I' for Inactive)
REMARK    1  A    between atoms: C3_3  and  C4_4 
REMARK    2  A    between atoms: C3_3  and  C18_28 
REMARK    3  A    between atoms: C4_4  and  C5_5 
REMARK    4  A    between atoms: C5_5  and  N1_6 
REMARK       I    between atoms: N1_6  and  C6_8 
REMARK    5  A    between atoms: C6_8  and  C7_10 
REMARK       I    between atoms: N2_13  and  C10_14 
REMARK       I    between atoms: C10_14  and  N3_16 
REMARK    6  A    between atoms: N3_16  and  C11_18 
REMARK    7  A    between atoms: C11_18  and  C12_19 
ROOT
HETATM    1  C1  UNL     1      62.217  35.991   7.559  1.00  0.00     0.012 C 
HETATM    2  C2  UNL     1      62.498  36.903   6.845  1.00  0.00    -0.112 C 
HETATM    3  C3  UNL     1      62.876  38.068   5.956  1.00  0.00     0.073 C 
ENDROOT
BRANCH   3   4
HETATM    4  C4  UNL     1      63.257  39.200   6.852  1.00  0.00     0.037 C 
BRANCH   4   5
HETATM    5  C5  UNL     1      64.645  39.732   6.725  1.00  0.00     0.123 C 
BRANCH   5   6
HETATM    6  N1  UNL     1      65.233  39.474   5.406  1.00  0.00    -0.361 N 
HETATM    7  C6  UNL     1      65.236  40.459   4.424  1.00  0.00     0.221 C 
HETATM    8  O1  UNL     1      64.767  41.604   4.532  1.00  0.00    -0.273 OA
ATOM      9  H1  UNL     1      65.644  38.561   5.207  1.00  0.00     0.162 HD
BRANCH   7  10
HETATM   10  C7  UNL     1      65.858  40.129   3.101  1.00  0.00     0.081 C 
HETATM   11  C8  UNL     1      66.731  38.909   3.173  1.00  0.00     0.034 C 
HETATM   12  C9  UNL     1      66.919  38.308   1.800  1.00  0.00     0.128 C 
HETATM   13  N2  UNL     1      66.608  39.233   0.748  1.00  0.00    -0.334 N 
HETATM   14  C10 UNL     1      67.520  39.432  -0.307  1.00  0.00     0.318 C 
HETATM   15  C16 UNL     1      65.359  39.996   0.724  1.00  0.00     0.128 C 
HETATM   16  O2  UNL     1      68.604  38.772  -0.288  1.00  0.00    -0.247 OA
HETATM   17  N3  UNL     1      67.215  40.345  -1.346  1.00  0.00    -0.338 N 
ATOM     18  H3  UNL     1      66.326  40.841  -1.294  1.00  0.00     0.164 HD
HETATM   19  C17 UNL     1      64.739  39.811   2.105  1.00  0.00     0.034 C 
BRANCH  17  20
HETATM   20  C11 UNL     1      68.075  40.624  -2.475  1.00  0.00     0.170 C 
BRANCH  20  21
HETATM   21  C12 UNL     1      67.813  39.580  -3.507  1.00  0.00     0.004 A 
HETATM   22  C13 UNL     1      66.652  39.333  -4.195  1.00  0.00     0.042 A 
HETATM   23  C14 UNL     1      66.666  38.336  -5.085  1.00  0.00     0.063 A 
HETATM   24 CL1  UNL     1      65.237  37.892  -6.057  1.00  0.00    -0.082 Cl
HETATM   25  C15 UNL     1      67.835  37.642  -5.239  1.00  0.00     0.096 A 
HETATM   26 CL2  UNL     1      68.168  36.280  -6.328  1.00  0.00    -0.074 Cl
HETATM   27  S1  UNL     1      68.881  38.409  -4.130  1.00  0.00    -0.079 SA
ENDBRANCH  20  21
ENDBRANCH  17  20
ENDBRANCH   7  10
ENDBRANCH   5   6
ENDBRANCH   4   5
ENDBRANCH   3   4
BRANCH   3  28
HETATM   28  C18 UNL     1      61.697  38.319   5.055  1.00  0.00    -0.037 C 
HETATM   29  C19 UNL     1      62.013  38.042   3.596  1.00  0.00     0.015 C 
HETATM   30  C20 UNL     1      61.548  39.882   5.080  1.00  0.00     0.015 C 
HETATM   31  C21 UNL     1      60.432  37.731   5.546  1.00  0.00     0.015 C 
ENDBRANCH   3  28
TORSDOF 7
ENDMDL
MODEL 2
REMARK VINA RESULT: -7.288626269      2.223      2.778
REMARK  7 active torsions:
REMARK  status: ('A' for Active; 'I' for Inactive)
REMARK    1  A    between atoms: C3_3  and  C4_4 
REMARK    2  A    between atoms: C3_3  and  C18_28 
REMARK    3  A    between atoms: C4_4  and  C5_5 
REMARK    4  A    between atoms: C5_5  and  N1_6 
REMARK       I    between atoms: N1_6  and  C6_8 
REMARK    5  A    between atoms: C6_8  and  C7_10 
REMARK       I    between atoms: N2_13  and  C10_14 
REMARK       I    between atoms: C10_14  and  N3_16 
REMARK    6  A    between atoms: N3_16  and  C11_18 
REMARK    7  A    between atoms: C11_18  and  C12_19 
ROOT
HETATM    1  C1  UNL     1      62.218  36.191   7.408  1.00  0.00     0.012 C 
HETATM    2  C2  UNL     1      62.467  37.107   6.687  1.00  0.00    -0.112 C 
HETATM    3  C3  UNL     1      62.807  38.275   5.786  1.00  0.00     0.073 C 
ENDROOT
BRANCH   3   4
HETATM    4  C4  UNL     1      63.300  39.378   6.663  1.00  0.00     0.037 C 
BRANCH   4   5
HETATM    5  C5  UNL     1      64.663  39.914   6.382  1.00  0.00     0.123 C 
BRANCH   5   6
HETATM    6  N1  UNL     1      64.858  40.257   4.969  1.00  0.00    -0.361 N 
HETATM    7  C6  UNL     1      64.569  41.535   4.502  1.00  0.00     0.221 C 
HETATM    8  O1  UNL     1      64.133  42.482   5.176  1.00  0.00    -0.273 OA
ATOM      9  H1  UNL     1      65.210  39.550   4.322  1.00  0.00     0.162 HD
BRANCH   7  10
HETATM   10  C7  UNL     1      64.796  41.818   3.048  1.00  0.00     0.081 C 
HETATM   11  C8  UNL     1      64.007  43.003   2.570  1.00  0.00     0.034 C 
HETATM   12  C9  UNL     1      64.615  43.574   1.310  1.00  0.00     0.128 C 
HETATM   13  N2  UNL     1      65.487  42.645   0.652  1.00  0.00    -0.334 N 
HETATM   14  C10 UNL     1      65.337  42.393  -0.726  1.00  0.00     0.318 C 
HETATM   15  C16 UNL     1      66.549  41.932   1.365  1.00  0.00     0.128 C 
HETATM   16  O2  UNL     1      64.417  43.009  -1.346  1.00  0.00    -0.247 OA
HETATM   17  N3  UNL     1      66.198  41.475  -1.377  1.00  0.00    -0.338 N 
ATOM     18  H3  UNL     1      66.913  41.016  -0.815  1.00  0.00     0.164 HD
HETATM   19  C17 UNL     1      66.274  42.165   2.847  1.00  0.00     0.034 C 
BRANCH  17  20
HETATM   20  C11 UNL     1      66.134  41.143  -2.783  1.00  0.00     0.170 C 
BRANCH  20  21
HETATM   21  C12 UNL     1      67.210  40.147  -3.058  1.00  0.00     0.004 A 
HETATM   22  C13 UNL     1      67.615  39.640  -4.267  1.00  0.00     0.042 A 
HETATM   23  C14 UNL     1      68.616  38.755  -4.258  1.00  0.00     0.063 A 
HETATM   24 CL1  UNL     1      69.255  38.006  -5.747  1.00  0.00    -0.082 Cl
HETATM   25  C15 UNL     1      69.157  38.425  -3.045  1.00  0.00     0.096 A 
HETATM   26 CL2  UNL     1      70.482  37.293  -2.706  1.00  0.00    -0.074 Cl
HETATM   27  S1  UNL     1      68.245  39.367  -1.953  1.00  0.00    -0.079 SA
ENDBRANCH  20  21
ENDBRANCH  17  20
ENDBRANCH   7  10
ENDBRANCH   5   6
ENDBRANCH   4   5
ENDBRANCH   3   4
BRANCH   3  28
HETATM   28  C18 UNL     1      61.564  38.579   4.993  1.00  0.00    -0.037 C 
HETATM   29  C19 UNL     1      60.395  37.693   5.386  1.00  0.00     0.015 C 
HETATM   30  C20 UNL     1      61.916  38.061   3.554  1.00  0.00     0.015 C 
HETATM   31  C21 UNL     1      61.254  40.022   4.897  1.00  0.00     0.015 C 
ENDBRANCH   3  28
TORSDOF 7
ENDMDL
MODEL 3
REMARK VINA RESULT: -7.268083071      1.699      2.647
REMARK  7 active torsions:
REMARK  status: ('A' for Active; 'I' for Inactive)
REMARK    1  A    between atoms: C3_3  and  C4_4 
REMARK    2  A    between atoms: C3_3  and  C18_28 
REMARK    3  A    between atoms: C4_4  and  C5_5 
REMARK    4  A    between atoms: C5_5  and  N1_6 
REMARK       I    between atoms: N1_6  and  C6_8 
REMARK    5  A    between atoms: C6_8  and  C7_10 
REMARK       I    between atoms: N2_13  and  C10_14 
REMARK       I    between atoms: C10_14  and  N3_16 
REMARK    6  A    between atoms: N3_16  and  C11_18 
REMARK    7  A    between atoms: C11_18  and  C12_19 
ROOT
HETATM    1  C1  UNL     1      63.355  40.234   6.308  1.00  0.00     0.012 C 
HETATM    2  C2  UNL     1      63.416  39.049   6.418  1.00  0.00    -0.112 C 
HETATM    3  C3  UNL     1      63.516  37.544   6.539  1.00  0.00     0.073 C 
ENDROOT
BRANCH   3   4
HETATM    4  C4  UNL     1      63.668  37.001   5.156  1.00  0.00     0.037 C 
BRANCH   4   5
HETATM    5  C5  UNL     1      65.058  36.837   4.639  1.00  0.00     0.123 C 
BRANCH   5   6
HETATM    6  N1  UNL     1      65.308  37.623   3.426  1.00  0.00    -0.361 N 
HETATM    7  C6  UNL     1      65.913  38.874   3.502  1.00  0.00     0.221 C 
HETATM    8  O1  UNL     1      66.288  39.446   4.538  1.00  0.00    -0.273 OA
ATOM      9  H1  UNL     1      65.035  37.249   2.517  1.00  0.00     0.162 HD
BRANCH   7  10
HETATM   10  C7  UNL     1      66.143  39.620   2.223  1.00  0.00     0.081 C 
HETATM   11  C8  UNL     1      65.381  40.913   2.175  1.00  0.00     0.034 C 
HETATM   12  C9  UNL     1      65.999  41.858   1.171  1.00  0.00     0.128 C 
HETATM   13  N2  UNL     1      66.847  41.183   0.232  1.00  0.00    -0.334 N 
HETATM   14  C10 UNL     1      66.688  41.408  -1.149  1.00  0.00     0.318 C 
HETATM   15  C16 UNL     1      67.894  40.251   0.657  1.00  0.00     0.128 C 
HETATM   16  O2  UNL     1      65.781  42.214  -1.519  1.00  0.00    -0.247 OA
HETATM   17  N3  UNL     1      67.525  40.741  -2.078  1.00  0.00    -0.338 N 
ATOM     18  H3  UNL     1      68.231  40.106  -1.708  1.00  0.00     0.164 HD
HETATM   19  C17 UNL     1      67.629  39.982   2.134  1.00  0.00     0.034 C 
BRANCH  17  20
HETATM   20  C11 UNL     1      67.450  40.898  -3.513  1.00  0.00     0.170 C 
BRANCH  20  21
HETATM   21  C12 UNL     1      67.359  39.534  -4.109  1.00  0.00     0.004 A 
HETATM   22  C13 UNL     1      66.267  38.706  -4.182  1.00  0.00     0.042 A 
HETATM   23  C14 UNL     1      66.433  37.521  -4.778  1.00  0.00     0.063 A 
HETATM   24 CL1  UNL     1      65.111  36.335  -4.950  1.00  0.00    -0.082 Cl
HETATM   25  C15 UNL     1      67.678  37.228  -5.267  1.00  0.00     0.096 A 
HETATM   26 CL2  UNL     1      68.210  35.754  -6.099  1.00  0.00    -0.074 Cl
HETATM   27  S1  UNL     1      68.577  38.625  -4.877  1.00  0.00    -0.079 SA
ENDBRANCH  20  21
ENDBRANCH  17  20
ENDBRANCH   7  10
ENDBRANCH   5   6
ENDBRANCH   4   5
ENDBRANCH   3   4
BRANCH   3  28
HETATM   28  C18 UNL     1      62.287  37.093   7.283  1.00  0.00    -0.037 C 
HETATM   29  C19 UNL     1      62.303  37.522   8.740  1.00  0.00     0.015 C 
HETATM   30  C20 UNL     1      62.476  35.538   7.385  1.00  0.00     0.015 C 
HETATM   31  C21 UNL     1      61.022  37.355   6.565  1.00  0.00     0.015 C 
ENDBRANCH   3  28
TORSDOF 7
ENDMDL
MODEL 4
REMARK VINA RESULT: -7.214588530      1.759      2.144
REMARK  7 active torsions:
REMARK  status: ('A' for Active; 'I' for Inactive)
REMARK    1  A    between atoms: C3_3  and  C4_4 
REMARK    2  A    between atoms: C3_3  and  C18_28 
REMARK    3  A    between atoms: C4_4  and  C5_5 
REMARK    4  A    between atoms: C5_5  and  N1_6 
REMARK       I    between atoms: N1_6  and  C6_8 
REMARK    5  A    between atoms: C6_8  and  C7_10 
REMARK       I    between atoms: N2_13  and  C10_14 
REMARK       I    between atoms: C10_14  and  N3_16 
REMARK    6  A    between atoms: N3_16  and  C11_18 
REMARK    7  A    between atoms: C11_18  and  C12_19 
ROOT
HETATM    1  C1  UNL     1      62.243  36.413   7.662  1.00  0.00     0.012 C 
HETATM    2  C2  UNL     1      62.497  37.191   6.795  1.00  0.00    -0.112 C 
HETATM    3  C3  UNL     1      62.843  38.185   5.709  1.00  0.00     0.073 C 
ENDROOT
BRANCH   3   4
HETATM    4  C4  UNL     1      63.359  39.413   6.384  1.00  0.00     0.037 C 
BRANCH   4   5
HETATM    5  C5  UNL     1      64.811  39.717   6.226  1.00  0.00     0.123 C 
BRANCH   5   6
HETATM    6  N1  UNL     1      65.129  40.308   4.922  1.00  0.00    -0.361 N 
HETATM    7  C6  UNL     1      65.649  39.526   3.895  1.00  0.00     0.221 C 
HETATM    8  O1  UNL     1      65.898  38.311   3.952  1.00  0.00    -0.273 OA
ATOM      9  H1  UNL     1      64.966  41.303   4.766  1.00  0.00     0.162 HD
BRANCH   7  10
HETATM   10  C7  UNL     1      65.945  40.194   2.587  1.00  0.00     0.081 C 
HETATM   11  C8  UNL     1      65.425  41.602   2.538  1.00  0.00     0.034 C 
HETATM   12  C9  UNL     1      66.152  42.401   1.480  1.00  0.00     0.128 C 
HETATM   13  N2  UNL     1      66.818  41.565   0.523  1.00  0.00    -0.334 N 
HETATM   14  C10 UNL     1      66.632  41.789  -0.856  1.00  0.00     0.318 C 
HETATM   15  C16 UNL     1      67.700  40.468   0.925  1.00  0.00     0.128 C 
HETATM   16  O2  UNL     1      65.868  42.739  -1.206  1.00  0.00    -0.247 OA
HETATM   17  N3  UNL     1      67.289  40.965  -1.803  1.00  0.00    -0.338 N 
ATOM     18  H3  UNL     1      67.887  40.219  -1.447  1.00  0.00     0.164 HD
HETATM   19  C17 UNL     1      67.465  40.280   2.420  1.00  0.00     0.034 C 
BRANCH  17  20
HETATM   20  C11 UNL     1      67.172  41.105  -3.237  1.00  0.00     0.170 C 
BRANCH  20  21
HETATM   21  C12 UNL     1      66.915  39.748  -3.801  1.00  0.00     0.004 A 
HETATM   22  C13 UNL     1      67.668  39.044  -4.707  1.00  0.00     0.042 A 
HETATM   23  C14 UNL     1      67.231  37.830  -5.057  1.00  0.00     0.063 A 
HETATM   24 CL1  UNL     1      68.098  36.794  -6.223  1.00  0.00    -0.082 Cl
HETATM   25  C15 UNL     1      66.070  37.387  -4.485  1.00  0.00     0.096 A 
HETATM   26 CL2  UNL     1      65.241  35.839  -4.744  1.00  0.00    -0.074 Cl
HETATM   27  S1  UNL     1      65.625  38.686  -3.473  1.00  0.00    -0.079 SA
ENDBRANCH  20  21
ENDBRANCH  17  20
ENDBRANCH   7  10
ENDBRANCH   5   6
ENDBRANCH   4   5
ENDBRANCH   3   4
BRANCH   3  28
HETATM   28  C18 UNL     1      61.596  38.371   4.886  1.00  0.00    -0.037 C 
HETATM   29  C19 UNL     1      61.832  38.105   3.409  1.00  0.00     0.015 C 
HETATM   30  C20 UNL     1      61.368  39.924   4.920  1.00  0.00     0.015 C 
HETATM   31  C21 UNL     1      60.398  37.719   5.458  1.00  0.00     0.015 C 
ENDBRANCH   3  28
TORSDOF 7
ENDMDL
MODEL 5
REMARK VINA RESULT: -7.206013338      2.369      3.199
REMARK  7 active torsions:
REMARK  status: ('A' for Active; 'I' for Inactive)
REMARK    1  A    between atoms: C3_3  and  C4_4 
REMARK    2  A    between atoms: C3_3  and  C18_28 
REMARK    3  A    between atoms: C4_4  and  C5_5 
REMARK    4  A    between atoms: C5_5  and  N1_6 
REMARK       I    between atoms: N1_6  and  C6_8 
REMARK    5  A    between atoms: C6_8  and  C7_10 
REMARK       I    between atoms: N2_13  and  C10_14 
REMARK       I    between atoms: C10_14  and  N3_16 
REMARK    6  A    between atoms: N3_16  and  C11_18 
REMARK    7  A    between atoms: C11_18  and  C12_19 
ROOT
HETATM    1  C1  UNL     1      62.190  38.263   3.647  1.00  0.00     0.012 C 
HETATM    2  C2  UNL     1      62.417  38.476   4.798  1.00  0.00    -0.112 C 
HETATM    3  C3  UNL     1      62.721  38.768   6.251  1.00  0.00     0.073 C 
ENDROOT
BRANCH   3   4
HETATM    4  C4  UNL     1      64.168  39.124   6.335  1.00  0.00     0.037 C 
BRANCH   4   5
HETATM    5  C5  UNL     1      64.525  40.565   6.185  1.00  0.00     0.123 C 
BRANCH   5   6
HETATM    6  N1  UNL     1      64.903  40.916   4.812  1.00  0.00    -0.361 N 
HETATM    7  C6  UNL     1      64.039  41.646   4.002  1.00  0.00     0.221 C 
HETATM    8  O1  UNL     1      62.912  42.061   4.317  1.00  0.00    -0.273 OA
ATOM      9  H1  UNL     1      65.810  40.622   4.447  1.00  0.00     0.162 HD
BRANCH   7  10
HETATM   10  C7  UNL     1      64.491  41.975   2.612  1.00  0.00     0.081 C 
HETATM   11  C8  UNL     1      63.929  43.280   2.126  1.00  0.00     0.034 C 
HETATM   12  C9  UNL     1      64.766  43.832   0.995  1.00  0.00     0.128 C 
HETATM   13  N2  UNL     1      65.593  42.830   0.385  1.00  0.00    -0.334 N 
HETATM   14  C10 UNL     1      65.596  42.676  -1.015  1.00  0.00     0.318 C 
HETATM   15  C16 UNL     1      66.452  41.943   1.173  1.00  0.00     0.128 C 
HETATM   16  O2  UNL     1      64.852  43.444  -1.699  1.00  0.00    -0.247 OA
HETATM   17  N3  UNL     1      66.412  41.688  -1.618  1.00  0.00    -0.338 N 
ATOM     18  H3  UNL     1      66.983  41.106  -1.005  1.00  0.00     0.164 HD
HETATM   19  C17 UNL     1      66.015  42.129   2.622  1.00  0.00     0.034 C 
BRANCH  17  20
HETATM   20  C11 UNL     1      66.494  41.445  -3.041  1.00  0.00     0.170 C 
BRANCH  20  21
HETATM   21  C12 UNL     1      67.448  40.317  -3.249  1.00  0.00     0.004 A 
HETATM   22  C13 UNL     1      67.799  39.703  -4.425  1.00  0.00     0.042 A 
HETATM   23  C14 UNL     1      68.691  38.709  -4.357  1.00  0.00     0.063 A 
HETATM   24 CL1  UNL     1      69.247  37.813  -5.796  1.00  0.00    -0.082 Cl
HETATM   25  C15 UNL     1      69.182  38.386  -3.122  1.00  0.00     0.096 A 
HETATM   26 CL2  UNL     1      70.364  37.128  -2.707  1.00  0.00    -0.074 Cl
HETATM   27  S1  UNL     1      68.379  39.484  -2.092  1.00  0.00    -0.079 SA
ENDBRANCH  20  21
ENDBRANCH  17  20
ENDBRANCH   7  10
ENDBRANCH   5   6
ENDBRANCH   4   5
ENDBRANCH   3   4
BRANCH   3  28
HETATM   28  C18 UNL     1      62.304  37.548   7.028  1.00  0.00    -0.037 C 
HETATM   29  C19 UNL     1      62.553  37.699   8.519  1.00  0.00     0.015 C 
HETATM   30  C20 UNL     1      63.369  36.472   6.613  1.00  0.00     0.015 C 
HETATM   31  C21 UNL     1      60.967  37.033   6.664  1.00  0.00     0.015 C 
ENDBRANCH   3  28
TORSDOF 7
ENDMDL
