MODEL 1
REMARK VINA RESULT: -7.659422886      0.000      0.000
REMARK  9 active torsions:
REMARK  status: ('A' for Active; 'I' for Inactive)
REMARK    1  A    between atoms: C3_3  and  C4_4 
REMARK    2  A    between atoms: C4_4  and  O1_5 
REMARK    3  A    between atoms: C4_4  and  N1_7 
REMARK    4  A    between atoms: N1_7  and  C5_9 
REMARK    5  A    between atoms: C5_9  and  C6_10 
REMARK       I    between atoms: N2_11  and  C7_13 
REMARK    6  A    between atoms: C7_13  and  C8_15 
REMARK    7  A    between atoms: C8_15  and  C9_16 
REMARK    8  A    between atoms: C9_16  and  C10_17 
REMARK    9  A    between atoms: C16_26  and  C17_27 
ROOT
HETATM    1  C1  UNL     1      65.589  44.039  -1.431  1.00  0.00     0.055 C 
HETATM    2  C2  UNL     1      65.621  43.413  -0.110  1.00  0.00     0.020 A 
HETATM    3  C3  UNL     1      66.605  42.575   0.286  1.00  0.00     0.093 A 
HETATM    4  N3  UNL     1      66.565  42.070   1.556  1.00  0.00    -0.351 N 
ATOM      5  H3  UNL     1      67.312  41.440   1.849  1.00  0.00     0.166 HD
HETATM    6  C13 UNL     1      65.602  42.355   2.432  1.00  0.00     0.048 A 
HETATM    7  C14 UNL     1      65.562  41.845   3.711  1.00  0.00     0.054 A 
HETATM    8  C15 UNL     1      64.566  42.141   4.615  1.00  0.00     0.044 A 
HETATM    9 CL1  UNL     1      64.623  41.429   6.215  1.00  0.00    -0.084 Cl
HETATM   10  C16 UNL     1      63.539  42.990   4.252  1.00  0.00    -0.013 A 
HETATM   11  C20 UNL     1      63.561  43.515   2.971  1.00  0.00     0.028 A 
HETATM   12  C21 UNL     1      64.569  43.204   2.081  1.00  0.00     0.042 A 
HETATM   13  C22 UNL     1      64.605  43.712   0.817  1.00  0.00     0.192 A 
HETATM   14  O3  UNL     1      63.691  44.491   0.442  1.00  0.00    -0.287 OA
ENDROOT
BRANCH   3  15
HETATM   15  C4  UNL     1      67.693  42.116  -0.540  1.00  0.00     0.164 C 
BRANCH  15  16
HETATM   16  O1  UNL     1      68.897  42.477  -0.172  1.00  0.00    -0.345 OA
ATOM     17  H1  UNL     1      69.493  42.733  -0.867  1.00  0.00     0.219 HD
ENDBRANCH  15  16
BRANCH  15  18
HETATM   18  N1  UNL     1      67.698  41.337  -1.683  1.00  0.00    -0.364 N 
ATOM     19  H1  UNL     1      67.861  41.768  -2.594  1.00  0.00     0.162 HD
BRANCH  18  20
HETATM   20  C5  UNL     1      67.468  39.890  -1.585  1.00  0.00     0.166 C 
BRANCH  20  21
HETATM   21  C6  UNL     1      68.593  39.124  -2.159  1.00  0.00     0.083 C 
HETATM   22  N2  UNL     1      68.632  38.861  -3.396  1.00  0.00    -0.339 N 
HETATM   23  C7  UNL     1      67.658  39.240  -4.344  1.00  0.00     0.221 C 
ATOM     24  H2  UNL     1      69.434  38.331  -3.736  1.00  0.00     0.167 HD
HETATM   25  O2  UNL     1      67.768  40.348  -4.902  1.00  0.00    -0.273 OA
BRANCH  23  26
HETATM   26  C8  UNL     1      66.554  38.345  -4.654  1.00  0.00     0.103 C 
BRANCH  26  27
HETATM   27  C9  UNL     1      65.396  38.937  -5.370  1.00  0.00     0.013 C 
BRANCH  27  28
HETATM   28  C10 UNL     1      64.662  38.036  -6.300  1.00  0.00    -0.022 C 
HETATM   29  C11 UNL     1      63.479  38.848  -6.850  1.00  0.00     0.009 C 
HETATM   30  C12 UNL     1      64.022  36.857  -5.572  1.00  0.00     0.009 C 
ENDBRANCH  27  28
ENDBRANCH  26  27
ENDBRANCH  23  26
ENDBRANCH  20  21
ENDBRANCH  18  20
ENDBRANCH  15  18
ENDBRANCH   3  15
BRANCH  10  31
HETATM   31  C17 UNL     1      62.456  43.318   5.221  1.00  0.00     0.058 C 
HETATM   32  C18 UNL     1      61.877  42.059   5.812  1.00  0.00     0.037 C 
HETATM   33  C19 UNL     1      62.932  44.294   6.265  1.00  0.00     0.037 C 
HETATM   34 CL2  UNL     1      61.131  44.124   4.320  1.00  0.00    -0.115 Cl
ENDBRANCH  10  31
TORSDOF 9
ENDMDL
MODEL 2
REMARK VINA RESULT: -7.615405513      5.500      8.213
REMARK  9 active torsions:
REMARK  status: ('A' for Active; 'I' for Inactive)
REMARK    1  A    between atoms: C3_3  and  C4_4 
REMARK    2  A    between atoms: C4_4  and  O1_5 
REMARK    3  A    between atoms: C4_4  and  N1_7 
REMARK    4  A    between atoms: N1_7  and  C5_9 
REMARK    5  A    between atoms: C5_9  and  C6_10 
REMARK       I    between atoms: N2_11  and  C7_13 
REMARK    6  A    between atoms: C7_13  and  C8_15 
REMARK    7  A    between atoms: C8_15  and  C9_16 
REMARK    8  A    between atoms: C9_16  and  C10_17 
REMARK    9  A    between atoms: C16_26  and  C17_27 
ROOT
HETATM    1  C1  UNL     1      69.039  35.185  -4.124  1.00  0.00     0.055 C 
HETATM    2  C2  UNL     1      67.771  35.711  -3.622  1.00  0.00     0.020 A 
HETATM    3  C3  UNL     1      67.407  35.646  -2.322  1.00  0.00     0.093 A 
HETATM    4  N3  UNL     1      66.216  36.202  -1.945  1.00  0.00    -0.351 N 
ATOM      5  H3  UNL     1      65.950  36.150  -0.961  1.00  0.00     0.166 HD
HETATM    6  C13 UNL     1      65.385  36.807  -2.792  1.00  0.00     0.048 A 
HETATM    7  C14 UNL     1      64.186  37.367  -2.411  1.00  0.00     0.054 A 
HETATM    8  C15 UNL     1      63.327  37.993  -3.289  1.00  0.00     0.044 A 
HETATM    9 CL1  UNL     1      61.827  38.667  -2.684  1.00  0.00    -0.084 Cl
HETATM   10  C16 UNL     1      63.658  38.082  -4.626  1.00  0.00    -0.013 A 
HETATM   11  C20 UNL     1      64.861  37.526  -5.030  1.00  0.00     0.028 A 
HETATM   12  C21 UNL     1      65.704  36.903  -4.134  1.00  0.00     0.042 A 
HETATM   13  C22 UNL     1      66.891  36.352  -4.515  1.00  0.00     0.192 A 
HETATM   14  O3  UNL     1      67.234  36.409  -5.723  1.00  0.00    -0.287 OA
ENDROOT
BRANCH   3  15
HETATM   15  C4  UNL     1      68.152  34.986  -1.280  1.00  0.00     0.164 C 
BRANCH  15  16
HETATM   16  O1  UNL     1      67.799  33.756  -0.998  1.00  0.00    -0.345 OA
ATOM     17  H1  UNL     1      67.133  33.650  -0.329  1.00  0.00     0.219 HD
ENDBRANCH  15  16
BRANCH  15  18
HETATM   18  N1  UNL     1      69.208  35.426  -0.502  1.00  0.00    -0.364 N 
ATOM     19  H1  UNL     1      69.546  34.853   0.273  1.00  0.00     0.162 HD
BRANCH  18  20
HETATM   20  C5  UNL     1      69.844  36.719  -0.790  1.00  0.00     0.166 C 
BRANCH  20  21
HETATM   21  C6  UNL     1      70.000  37.529   0.435  1.00  0.00     0.083 C 
HETATM   22  N2  UNL     1      69.193  38.467   0.696  1.00  0.00    -0.339 N 
HETATM   23  C7  UNL     1      68.094  38.849  -0.103  1.00  0.00     0.221 C 
ATOM     24  H2  UNL     1      69.350  38.992   1.557  1.00  0.00     0.167 HD
HETATM   25  O2  UNL     1      66.999  38.285   0.079  1.00  0.00    -0.273 OA
BRANCH  23  26
HETATM   26  C8  UNL     1      68.252  39.881  -1.116  1.00  0.00     0.103 C 
BRANCH  26  27
HETATM   27  C9  UNL     1      68.047  39.468  -2.527  1.00  0.00     0.013 C 
BRANCH  27  28
HETATM   28  C10 UNL     1      67.474  40.493  -3.440  1.00  0.00    -0.022 C 
HETATM   29  C11 UNL     1      65.978  40.587  -3.107  1.00  0.00     0.009 C 
HETATM   30  C12 UNL     1      67.523  40.053  -4.901  1.00  0.00     0.009 C 
ENDBRANCH  27  28
ENDBRANCH  26  27
ENDBRANCH  23  26
ENDBRANCH  20  21
ENDBRANCH  18  20
ENDBRANCH  15  18
ENDBRANCH   3  15
BRANCH  10  31
HETATM   31  C17 UNL     1      62.738  38.756  -5.585  1.00  0.00     0.058 C 
HETATM   32  C18 UNL     1      61.403  38.060  -5.614  1.00  0.00     0.037 C 
HETATM   33  C19 UNL     1      62.629  40.230  -5.294  1.00  0.00     0.037 C 
HETATM   34 CL2  UNL     1      63.439  38.600  -7.229  1.00  0.00    -0.115 Cl
ENDBRANCH  10  31
TORSDOF 9
ENDMDL
MODEL 3
REMARK VINA RESULT: -7.585286153      5.395      7.615
REMARK  9 active torsions:
REMARK  status: ('A' for Active; 'I' for Inactive)
REMARK    1  A    between atoms: C3_3  and  C4_4 
REMARK    2  A    between atoms: C4_4  and  O1_5 
REMARK    3  A    between atoms: C4_4  and  N1_7 
REMARK    4  A    between atoms: N1_7  and  C5_9 
REMARK    5  A    between atoms: C5_9  and  C6_10 
REMARK       I    between atoms: N2_11  and  C7_13 
REMARK    6  A    between atoms: C7_13  and  C8_15 
REMARK    7  A    between atoms: C8_15  and  C9_16 
REMARK    8  A    between atoms: C9_16  and  C10_17 
REMARK    9  A    between atoms: C16_26  and  C17_27 
ROOT
HETATM    1  C1  UNL     1      61.800  45.952   5.098  1.00  0.00     0.055 C 
HETATM    2  C2  UNL     1      61.496  44.535   4.901  1.00  0.00     0.020 A 
HETATM    3  C3  UNL     1      60.467  44.099   4.141  1.00  0.00     0.093 A 
HETATM    4  N3  UNL     1      60.289  42.753   3.988  1.00  0.00    -0.351 N 
ATOM      5  H3  UNL     1      59.511  42.431   3.411  1.00  0.00     0.166 HD
HETATM    6  C13 UNL     1      61.076  41.837   4.551  1.00  0.00     0.048 A 
HETATM    7  C14 UNL     1      60.895  40.480   4.397  1.00  0.00     0.054 A 
HETATM    8  C15 UNL     1      61.710  39.534   4.980  1.00  0.00     0.044 A 
HETATM    9 CL1  UNL     1      61.378  37.835   4.709  1.00  0.00    -0.084 Cl
HETATM   10  C16 UNL     1      62.772  39.935   5.766  1.00  0.00    -0.013 A 
HETATM   11  C20 UNL     1      62.972  41.295   5.933  1.00  0.00     0.028 A 
HETATM   12  C21 UNL     1      62.143  42.224   5.340  1.00  0.00     0.042 A 
HETATM   13  C22 UNL     1      62.326  43.565   5.495  1.00  0.00     0.192 A 
HETATM   14  O3  UNL     1      63.281  43.977   6.202  1.00  0.00    -0.287 OA
ENDROOT
BRANCH   3  15
HETATM   15  C4  UNL     1      59.488  44.941   3.501  1.00  0.00     0.164 C 
BRANCH  15  16
HETATM   16  O1  UNL     1      58.365  45.128   4.150  1.00  0.00    -0.345 OA
ATOM     17  H1  UNL     1      57.933  44.349   4.481  1.00  0.00     0.219 HD
ENDBRANCH  15  16
BRANCH  15  18
HETATM   18  N1  UNL     1      59.520  45.613   2.292  1.00  0.00    -0.364 N 
ATOM     19  H1  UNL     1      58.802  46.305   2.073  1.00  0.00     0.162 HD
BRANCH  18  20
HETATM   20  C5  UNL     1      60.587  45.330   1.324  1.00  0.00     0.166 C 
BRANCH  20  21
HETATM   21  C6  UNL     1      61.686  46.311   1.429  1.00  0.00     0.083 C 
HETATM   22  N2  UNL     1      62.892  45.946   1.316  1.00  0.00    -0.339 N 
HETATM   23  C7  UNL     1      63.329  44.623   1.089  1.00  0.00     0.221 C 
ATOM     24  H2  UNL     1      63.608  46.668   1.396  1.00  0.00     0.167 HD
HETATM   25  O2  UNL     1      63.431  44.223  -0.086  1.00  0.00    -0.273 OA
BRANCH  23  26
HETATM   26  C8  UNL     1      63.649  43.757   2.212  1.00  0.00     0.103 C 
BRANCH  26  27
HETATM   27  C9  UNL     1      64.733  42.765   2.002  1.00  0.00     0.013 C 
BRANCH  27  28
HETATM   28  C10 UNL     1      64.798  41.639   2.972  1.00  0.00    -0.022 C 
HETATM   29  C11 UNL     1      66.288  41.394   3.257  1.00  0.00     0.009 C 
HETATM   30  C12 UNL     1      64.295  40.330   2.368  1.00  0.00     0.009 C 
ENDBRANCH  27  28
ENDBRANCH  26  27
ENDBRANCH  23  26
ENDBRANCH  20  21
ENDBRANCH  18  20
ENDBRANCH  15  18
ENDBRANCH   3  15
BRANCH  10  31
HETATM   31  C17 UNL     1      63.660  38.922   6.402  1.00  0.00     0.058 C 
HETATM   32  C18 UNL     1      64.864  39.587   7.016  1.00  0.00     0.037 C 
HETATM   33  C19 UNL     1      62.900  38.063   7.378  1.00  0.00     0.037 C 
HETATM   34 CL2  UNL     1      64.271  37.832   5.115  1.00  0.00    -0.115 Cl
ENDBRANCH  10  31
TORSDOF 9
ENDMDL
MODEL 4
REMARK VINA RESULT: -7.567778018      3.707      4.813
REMARK  9 active torsions:
REMARK  status: ('A' for Active; 'I' for Inactive)
REMARK    1  A    between atoms: C3_3  and  C4_4 
REMARK    2  A    between atoms: C4_4  and  O1_5 
REMARK    3  A    between atoms: C4_4  and  N1_7 
REMARK    4  A    between atoms: N1_7  and  C5_9 
REMARK    5  A    between atoms: C5_9  and  C6_10 
REMARK       I    between atoms: N2_11  and  C7_13 
REMARK    6  A    between atoms: C7_13  and  C8_15 
REMARK    7  A    between atoms: C8_15  and  C9_16 
REMARK    8  A    between atoms: C9_16  and  C10_17 
REMARK    9  A    between atoms: C16_26  and  C17_27 
ROOT
HETATM    1  C1  UNL     1      68.634  35.329   1.169  1.00  0.00     0.055 C 
HETATM    2  C2  UNL     1      68.214  36.647   1.640  1.00  0.00     0.020 A 
HETATM    3  C3  UNL     1      68.807  37.796   1.243  1.00  0.00     0.093 A 
HETATM    4  N3  UNL     1      68.316  38.983   1.711  1.00  0.00    -0.351 N 
ATOM      5  H3  UNL     1      68.767  39.845   1.406  1.00  0.00     0.166 HD
HETATM    6  C13 UNL     1      67.280  39.074   2.544  1.00  0.00     0.048 A 
HETATM    7  C14 UNL     1      66.786  40.271   3.016  1.00  0.00     0.054 A 
HETATM    8  C15 UNL     1      65.715  40.364   3.877  1.00  0.00     0.044 A 
HETATM    9 CL1  UNL     1      65.179  41.946   4.408  1.00  0.00    -0.084 Cl
HETATM   10  C16 UNL     1      65.081  39.216   4.309  1.00  0.00    -0.013 A 
HETATM   11  C20 UNL     1      65.561  38.003   3.846  1.00  0.00     0.028 A 
HETATM   12  C21 UNL     1      66.636  37.933   2.985  1.00  0.00     0.042 A 
HETATM   13  C22 UNL     1      67.120  36.747   2.520  1.00  0.00     0.192 A 
HETATM   14  O3  UNL     1      66.574  35.675   2.887  1.00  0.00    -0.287 OA
ENDROOT
BRANCH   3  15
HETATM   15  C4  UNL     1      69.966  37.885   0.392  1.00  0.00     0.164 C 
BRANCH  15  16
HETATM   16  O1  UNL     1      71.131  37.888   0.990  1.00  0.00    -0.345 OA
ATOM     17  H1  UNL     1      71.827  38.371   0.559  1.00  0.00     0.219 HD
ENDBRANCH  15  16
BRANCH  15  18
HETATM   18  N1  UNL     1      70.076  37.966  -0.985  1.00  0.00    -0.364 N 
ATOM     19  H1  UNL     1      70.975  38.192  -1.413  1.00  0.00     0.162 HD
BRANCH  18  20
HETATM   20  C5  UNL     1      68.899  37.725  -1.831  1.00  0.00     0.166 C 
BRANCH  20  21
HETATM   21  C6  UNL     1      68.987  36.422  -2.519  1.00  0.00     0.083 C 
HETATM   22  N2  UNL     1      69.284  36.358  -3.747  1.00  0.00    -0.339 N 
HETATM   23  C7  UNL     1      69.557  37.463  -4.582  1.00  0.00     0.221 C 
ATOM     24  H2  UNL     1      69.331  35.430  -4.169  1.00  0.00     0.167 HD
HETATM   25  O2  UNL     1      70.726  37.886  -4.648  1.00  0.00    -0.273 OA
BRANCH  23  26
HETATM   26  C8  UNL     1      68.484  38.084  -5.343  1.00  0.00     0.103 C 
BRANCH  26  27
HETATM   27  C9  UNL     1      67.369  37.202  -5.767  1.00  0.00     0.013 C 
BRANCH  27  28
HETATM   28  C10 UNL     1      66.073  37.385  -5.059  1.00  0.00    -0.022 C 
HETATM   29  C11 UNL     1      65.562  35.978  -4.713  1.00  0.00     0.009 C 
HETATM   30  C12 UNL     1      65.000  37.979  -5.969  1.00  0.00     0.009 C 
ENDBRANCH  27  28
ENDBRANCH  26  27
ENDBRANCH  23  26
ENDBRANCH  20  21
ENDBRANCH  18  20
ENDBRANCH  15  18
ENDBRANCH   3  15
BRANCH  10  31
HETATM   31  C17 UNL     1      63.921  39.303   5.241  1.00  0.00     0.058 C 
HETATM   32  C18 UNL     1      64.359  39.837   6.580  1.00  0.00     0.037 C 
HETATM   33  C19 UNL     1      62.790  40.090   4.634  1.00  0.00     0.037 C 
HETATM   34 CL2  UNL     1      63.309  37.641   5.522  1.00  0.00    -0.115 Cl
ENDBRANCH  10  31
TORSDOF 9
ENDMDL
MODEL 5
REMARK VINA RESULT: -7.527146997      1.572      1.855
REMARK  9 active torsions:
REMARK  status: ('A' for Active; 'I' for Inactive)
REMARK    1  A    between atoms: C3_3  and  C4_4 
REMARK    2  A    between atoms: C4_4  and  O1_5 
REMARK    3  A    between atoms: C4_4  and  N1_7 
REMARK    4  A    between atoms: N1_7  and  C5_9 
REMARK    5  A    between atoms: C5_9  and  C6_10 
REMARK       I    between atoms: N2_11  and  C7_13 
REMARK    6  A    between atoms: C7_13  and  C8_15 
REMARK    7  A    between atoms: C8_15  and  C9_16 
REMARK    8  A    between atoms: C9_16  and  C10_17 
REMARK    9  A    between atoms: C16_26  and  C17_27 
ROOT
HETATM    1  C1  UNL     1      65.735  42.220  -2.141  1.00  0.00     0.055 C 
HETATM    2  C2  UNL     1      65.812  42.092  -0.687  1.00  0.00     0.020 A 
HETATM    3  C3  UNL     1      66.887  41.580  -0.047  1.00  0.00     0.093 A 
HETATM    4  N3  UNL     1      66.879  41.538   1.319  1.00  0.00    -0.351 N 
ATOM      5  H3  UNL     1      67.694  41.152   1.795  1.00  0.00     0.166 HD
HETATM    6  C13 UNL     1      65.864  41.974   2.063  1.00  0.00     0.048 A 
HETATM    7  C14 UNL     1      65.856  41.932   3.440  1.00  0.00     0.054 A 
HETATM    8  C15 UNL     1      64.805  42.384   4.208  1.00  0.00     0.044 A 
HETATM    9 CL1  UNL     1      64.913  42.276   5.953  1.00  0.00    -0.084 Cl
HETATM   10  C16 UNL     1      63.686  42.913   3.596  1.00  0.00    -0.013 A 
HETATM   11  C20 UNL     1      63.674  42.966   2.212  1.00  0.00     0.028 A 
HETATM   12  C21 UNL     1      64.737  42.507   1.463  1.00  0.00     0.042 A 
HETATM   13  C22 UNL     1      64.741  42.553   0.101  1.00  0.00     0.192 A 
HETATM   14  O3  UNL     1      63.743  43.027  -0.500  1.00  0.00    -0.287 OA
ENDROOT
BRANCH   3  15
HETATM   15  C4  UNL     1      68.048  41.015  -0.688  1.00  0.00     0.164 C 
BRANCH  15  16
HETATM   16  O1  UNL     1      68.903  41.865  -1.200  1.00  0.00    -0.345 OA
ATOM     17  H1  UNL     1      68.538  42.657  -1.579  1.00  0.00     0.219 HD
ENDBRANCH  15  16
BRANCH  15  18
HETATM   18  N1  UNL     1      68.438  39.699  -0.863  1.00  0.00    -0.364 N 
ATOM     19  H1  UNL     1      68.568  39.093  -0.052  1.00  0.00     0.162 HD
BRANCH  18  20
HETATM   20  C5  UNL     1      68.666  39.176  -2.216  1.00  0.00     0.166 C 
BRANCH  20  21
HETATM   21  C6  UNL     1      68.715  37.700  -2.223  1.00  0.00     0.083 C 
HETATM   22  N2  UNL     1      69.101  37.070  -3.249  1.00  0.00    -0.339 N 
HETATM   23  C7  UNL     1      69.515  37.659  -4.464  1.00  0.00     0.221 C 
ATOM     24  H2  UNL     1      69.115  36.052  -3.196  1.00  0.00     0.167 HD
HETATM   25  O2  UNL     1      70.713  37.973  -4.597  1.00  0.00    -0.273 OA
BRANCH  23  26
HETATM   26  C8  UNL     1      68.552  37.890  -5.529  1.00  0.00     0.103 C 
BRANCH  26  27
HETATM   27  C9  UNL     1      67.478  36.878  -5.688  1.00  0.00     0.013 C 
BRANCH  27  28
HETATM   28  C10 UNL     1      66.080  37.368  -5.552  1.00  0.00    -0.022 C 
HETATM   29  C11 UNL     1      66.170  38.783  -4.961  1.00  0.00     0.009 C 
HETATM   30  C12 UNL     1      65.287  36.564  -4.525  1.00  0.00     0.009 C 
ENDBRANCH  27  28
ENDBRANCH  26  27
ENDBRANCH  23  26
ENDBRANCH  20  21
ENDBRANCH  18  20
ENDBRANCH  15  18
ENDBRANCH   3  15
BRANCH  10  31
HETATM   31  C17 UNL     1      62.543  43.405   4.415  1.00  0.00     0.058 C 
HETATM   32  C18 UNL     1      61.506  44.056   3.538  1.00  0.00     0.037 C 
HETATM   33  C19 UNL     1      61.979  42.310   5.281  1.00  0.00     0.037 C 
HETATM   34 CL2  UNL     1      63.159  44.678   5.520  1.00  0.00    -0.115 Cl
ENDBRANCH  10  31
TORSDOF 9
ENDMDL
