MODEL 1
REMARK VINA RESULT: -7.010695874      0.000      0.000
REMARK  9 active torsions:
REMARK  status: ('A' for Active; 'I' for Inactive)
REMARK    1  A    between atoms: C2_2  and  C4_4 
REMARK    2  A    between atoms: C4_4  and  C5_5 
REMARK    3  A    between atoms: C4_4  and  N1_14 
REMARK    4  A    between atoms: C5_5  and  C6_6 
REMARK       I    between atoms: N1_14  and  C12_16 
REMARK       I    between atoms: C12_16  and  N2_18 
REMARK    5  A    between atoms: N2_18  and  C14_20 
REMARK    6  A    between atoms: C16_22  and  N3_23 
REMARK    7  A    between atoms: C19_29  and  N4_30 
REMARK    8  A    between atoms: N4_30  and  N5_32 
REMARK    9  A    between atoms: N5_32  and  N6_33 
ROOT
HETATM    1  N1  UNL     1      63.196  42.690   3.388  1.00  0.00    -0.338 N 
ATOM      2  H1  UNL     1      62.177  42.740   3.377  1.00  0.00     0.164 HD
HETATM    3  C12 UNL     1      63.873  42.715   2.152  1.00  0.00     0.318 C 
HETATM    4  O1  UNL     1      65.143  42.656   2.083  1.00  0.00    -0.247 OA
HETATM    5  N2  UNL     1      63.136  42.809   0.956  1.00  0.00    -0.332 N 
HETATM    6  C13 UNL     1      61.698  42.874   1.046  1.00  0.00     0.155 C 
ENDROOT
BRANCH   5   7
HETATM    7  C14 UNL     1      63.816  42.838  -0.331  1.00  0.00     0.115 C 
HETATM    8  C15 UNL     1      63.000  42.111  -1.347  1.00  0.00     0.060 C 
HETATM    9  C16 UNL     1      63.263  42.559  -2.766  1.00  0.00     0.185 C 
HETATM   10  C17 UNL     1      63.067  44.028  -2.966  1.00  0.00     0.035 C 
HETATM   11  C18 UNL     1      63.373  44.864  -1.775  1.00  0.00     0.032 C 
HETATM   12  C19 UNL     1      64.216  44.226  -0.730  1.00  0.00     0.137 C 
BRANCH   9  13
HETATM   13  N3  UNL     1      62.318  41.867  -3.620  1.00  0.00    -0.075 N 
ATOM     14  H33 UNL     1      62.384  40.852  -3.548  1.00  0.00     0.274 HD
ATOM     15  H32 UNL     1      61.352  41.959  -3.303  1.00  0.00     0.274 HD
ATOM     16  H31 UNL     1      62.460  42.209  -4.570  1.00  0.00     0.274 HD
ENDBRANCH   9  13
BRANCH  12  17
HETATM   17  N4  UNL     1      65.605  44.316  -1.156  1.00  0.00    -0.246 N 
ATOM     18  H4  UNL     1      65.820  44.827  -2.012  1.00  0.00     0.197 HD
BRANCH  17  19
HETATM   19  N5  UNL     1      66.522  43.809  -0.535  1.00  0.00    -0.248 NA
BRANCH  19  20
HETATM   20  N6  UNL     1      67.419  43.422   0.195  1.00  0.00    -0.261 N 
ATOM     21  H62 UNL     1      66.745  43.539   0.953  1.00  0.00     0.193 HD
ATOM     22  H61 UNL     1      68.246  43.089   0.692  1.00  0.00     0.193 HD
ENDBRANCH  19  20
ENDBRANCH  17  19
ENDBRANCH  12  17
ENDBRANCH   5   7
BRANCH   1  23
HETATM   23  C4  UNL     1      63.862  42.598   4.684  1.00  0.00     0.093 C 
BRANCH  23  24
HETATM   24  C2  UNL     1      62.883  42.997   5.713  1.00  0.00     0.001 C 
HETATM   25  C1  UNL     1      61.442  42.697   5.442  1.00  0.00     0.011 C 
HETATM   26  C3  UNL     1      63.046  44.456   6.141  1.00  0.00     0.011 C 
ENDBRANCH  23  24
BRANCH  23  27
HETATM   27  C5  UNL     1      64.657  41.376   4.833  1.00  0.00     0.067 C 
BRANCH  27  28
HETATM   28  C6  UNL     1      64.041  40.186   5.434  1.00  0.00    -0.018 A 
HETATM   29  C7  UNL     1      64.141  39.856   6.768  1.00  0.00     0.011 A 
HETATM   30  C8  UNL     1      63.540  38.752   7.322  1.00  0.00     0.020 A 
HETATM   31  C9  UNL     1      62.794  37.902   6.555  1.00  0.00     0.013 A 
HETATM   32 BR1  UNL     1      61.945  36.353   7.305  1.00  0.00    -0.051 Br
HETATM   33  C10 UNL     1      62.661  38.188   5.212  1.00  0.00     0.061 A 
HETATM   34  C11 UNL     1      63.267  39.296   4.667  1.00  0.00     0.124 A 
HETATM   35  F1  UNL     1      63.141  39.578   3.356  1.00  0.00    -0.206 F 
ENDBRANCH  27  28
ENDBRANCH  23  27
ENDBRANCH   1  23
TORSDOF 9
ENDMDL
MODEL 2
REMARK VINA RESULT: -6.946120761      3.534      4.799
REMARK  9 active torsions:
REMARK  status: ('A' for Active; 'I' for Inactive)
REMARK    1  A    between atoms: C2_2  and  C4_4 
REMARK    2  A    between atoms: C4_4  and  C5_5 
REMARK    3  A    between atoms: C4_4  and  N1_14 
REMARK    4  A    between atoms: C5_5  and  C6_6 
REMARK       I    between atoms: N1_14  and  C12_16 
REMARK       I    between atoms: C12_16  and  N2_18 
REMARK    5  A    between atoms: N2_18  and  C14_20 
REMARK    6  A    between atoms: C16_22  and  N3_23 
REMARK    7  A    between atoms: C19_29  and  N4_30 
REMARK    8  A    between atoms: N4_30  and  N5_32 
REMARK    9  A    between atoms: N5_32  and  N6_33 
ROOT
HETATM    1  N1  UNL     1      64.097  40.681   2.954  1.00  0.00    -0.338 N 
ATOM      2  H1  UNL     1      63.674  39.754   2.983  1.00  0.00     0.164 HD
HETATM    3  C12 UNL     1      65.423  40.789   2.485  1.00  0.00     0.318 C 
HETATM    4  O1  UNL     1      66.020  41.912   2.421  1.00  0.00    -0.247 OA
HETATM    5  N2  UNL     1      66.112  39.633   2.075  1.00  0.00    -0.332 N 
HETATM    6  C13 UNL     1      65.425  38.367   2.155  1.00  0.00     0.155 C 
ENDROOT
BRANCH   5   7
HETATM    7  C14 UNL     1      67.480  39.723   1.586  1.00  0.00     0.115 C 
HETATM    8  C15 UNL     1      68.312  38.657   2.219  1.00  0.00     0.060 C 
HETATM    9  C16 UNL     1      69.519  38.266   1.399  1.00  0.00     0.185 C 
HETATM   10  C17 UNL     1      69.174  37.832   0.011  1.00  0.00     0.035 C 
HETATM   11  C18 UNL     1      67.973  38.493  -0.567  1.00  0.00     0.032 C 
HETATM   12  C19 UNL     1      67.547  39.757   0.089  1.00  0.00     0.137 C 
BRANCH   9  13
HETATM   13  N3  UNL     1      70.150  37.145   2.068  1.00  0.00    -0.075 N 
ATOM     14  H33 UNL     1      69.548  36.324   2.126  1.00  0.00     0.274 HD
ATOM     15  H32 UNL     1      70.898  36.721   1.518  1.00  0.00     0.274 HD
ATOM     16  H31 UNL     1      70.464  37.474   2.981  1.00  0.00     0.274 HD
ENDBRANCH   9  13
BRANCH  12  17
HETATM   17  N4  UNL     1      68.388  40.832  -0.417  1.00  0.00    -0.246 N 
ATOM     18  H4  UNL     1      69.212  40.588  -0.966  1.00  0.00     0.197 HD
BRANCH  17  19
HETATM   19  N5  UNL     1      68.152  42.010  -0.214  1.00  0.00    -0.248 NA
BRANCH  19  20
HETATM   20  N6  UNL     1      67.783  43.136   0.074  1.00  0.00    -0.261 N 
ATOM     21  H62 UNL     1      66.838  42.753   0.030  1.00  0.00     0.193 HD
ATOM     22  H61 UNL     1      67.609  44.111   0.318  1.00  0.00     0.193 HD
ENDBRANCH  19  20
ENDBRANCH  17  19
ENDBRANCH  12  17
ENDBRANCH   5   7
BRANCH   1  23
HETATM   23  C4  UNL     1      63.292  41.815   3.401  1.00  0.00     0.093 C 
BRANCH  23  24
HETATM   24  C2  UNL     1      62.264  42.059   2.373  1.00  0.00     0.001 C 
HETATM   25  C1  UNL     1      61.059  42.848   2.781  1.00  0.00     0.011 C 
HETATM   26  C3  UNL     1      61.837  40.778   1.656  1.00  0.00     0.011 C 
ENDBRANCH  23  24
BRANCH  23  27
HETATM   27  C5  UNL     1      62.938  41.741   4.821  1.00  0.00     0.067 C 
BRANCH  27  28
HETATM   28  C6  UNL     1      62.758  40.425   5.449  1.00  0.00    -0.018 A 
HETATM   29  C7  UNL     1      61.696  39.586   5.191  1.00  0.00     0.011 A 
HETATM   30  C8  UNL     1      61.551  38.348   5.767  1.00  0.00     0.020 A 
HETATM   31  C9  UNL     1      62.481  37.874   6.651  1.00  0.00     0.013 A 
HETATM   32 BR1  UNL     1      62.302  36.148   7.471  1.00  0.00    -0.051 Br
HETATM   33  C10 UNL     1      63.566  38.676   6.943  1.00  0.00     0.061 A 
HETATM   34  C11 UNL     1      63.700  39.914   6.360  1.00  0.00     0.124 A 
HETATM   35  F1  UNL     1      64.757  40.699   6.643  1.00  0.00    -0.206 F 
ENDBRANCH  27  28
ENDBRANCH  23  27
ENDBRANCH   1  23
TORSDOF 9
ENDMDL
MODEL 3
REMARK VINA RESULT: -6.775739799      5.056      8.617
REMARK  9 active torsions:
REMARK  status: ('A' for Active; 'I' for Inactive)
REMARK    1  A    between atoms: C2_2  and  C4_4 
REMARK    2  A    between atoms: C4_4  and  C5_5 
REMARK    3  A    between atoms: C4_4  and  N1_14 
REMARK    4  A    between atoms: C5_5  and  C6_6 
REMARK       I    between atoms: N1_14  and  C12_16 
REMARK       I    between atoms: C12_16  and  N2_18 
REMARK    5  A    between atoms: N2_18  and  C14_20 
REMARK    6  A    between atoms: C16_22  and  N3_23 
REMARK    7  A    between atoms: C19_29  and  N4_30 
REMARK    8  A    between atoms: N4_30  and  N5_32 
REMARK    9  A    between atoms: N5_32  and  N6_33 
ROOT
HETATM    1  N1  UNL     1      63.843  39.258  -1.154  1.00  0.00    -0.338 N 
ATOM      2  H1  UNL     1      63.210  38.629  -0.661  1.00  0.00     0.164 HD
HETATM    3  C12 UNL     1      64.307  40.400  -0.470  1.00  0.00     0.318 C 
HETATM    4  O1  UNL     1      65.099  41.233  -1.018  1.00  0.00    -0.247 OA
HETATM    5  N2  UNL     1      63.891  40.635   0.854  1.00  0.00    -0.332 N 
HETATM    6  C13 UNL     1      62.991  39.686   1.464  1.00  0.00     0.155 C 
ENDROOT
BRANCH   5   7
HETATM    7  C14 UNL     1      64.359  41.807   1.579  1.00  0.00     0.115 C 
HETATM    8  C15 UNL     1      63.260  42.340   2.438  1.00  0.00     0.060 C 
HETATM    9  C16 UNL     1      63.754  43.126   3.630  1.00  0.00     0.185 C 
HETATM   10  C17 UNL     1      64.698  42.356   4.495  1.00  0.00     0.035 C 
HETATM   11  C18 UNL     1      65.533  41.360   3.772  1.00  0.00     0.032 C 
HETATM   12  C19 UNL     1      65.646  41.550   2.302  1.00  0.00     0.137 C 
BRANCH   9  13
HETATM   13  N3  UNL     1      62.595  43.465   4.433  1.00  0.00    -0.075 N 
ATOM     14  H33 UNL     1      62.324  44.445   4.350  1.00  0.00     0.274 HD
ATOM     15  H32 UNL     1      61.729  43.058   4.077  1.00  0.00     0.274 HD
ATOM     16  H31 UNL     1      62.800  43.188   5.393  1.00  0.00     0.274 HD
ENDBRANCH   9  13
BRANCH  12  17
HETATM   17  N4  UNL     1      66.650  42.576   2.057  1.00  0.00    -0.246 N 
ATOM     18  H4  UNL     1      67.251  42.864   2.829  1.00  0.00     0.197 HD
BRANCH  17  19
HETATM   19  N5  UNL     1      66.803  43.106   0.971  1.00  0.00    -0.248 NA
BRANCH  19  20
HETATM   20  N6  UNL     1      67.104  43.565  -0.118  1.00  0.00    -0.261 N 
ATOM     21  H62 UNL     1      68.041  43.211   0.081  1.00  0.00     0.193 HD
ATOM     22  H61 UNL     1      67.225  43.988  -1.038  1.00  0.00     0.193 HD
ENDBRANCH  19  20
ENDBRANCH  17  19
ENDBRANCH  12  17
ENDBRANCH   5   7
BRANCH   1  23
HETATM   23  C4  UNL     1      64.214  38.919  -2.526  1.00  0.00     0.093 C 
BRANCH  23  24
HETATM   24  C2  UNL     1      64.377  37.454  -2.590  1.00  0.00     0.001 C 
HETATM   25  C1  UNL     1      63.859  36.655  -1.435  1.00  0.00     0.011 C 
HETATM   26  C3  UNL     1      65.812  37.038  -2.916  1.00  0.00     0.011 C 
ENDBRANCH  23  24
BRANCH  23  27
HETATM   27  C5  UNL     1      63.418  39.634  -3.527  1.00  0.00     0.067 C 
BRANCH  27  28
HETATM   28  C6  UNL     1      63.133  38.987  -4.814  1.00  0.00    -0.018 A 
HETATM   29  C7  UNL     1      61.924  38.409  -5.135  1.00  0.00     0.011 A 
HETATM   30  C8  UNL     1      61.662  37.827  -6.351  1.00  0.00     0.020 A 
HETATM   31  C9  UNL     1      62.616  37.791  -7.330  1.00  0.00     0.013 A 
HETATM   32 BR1  UNL     1      62.275  36.984  -9.038  1.00  0.00    -0.051 Br
HETATM   33  C10 UNL     1      63.845  38.358  -7.060  1.00  0.00     0.061 A 
HETATM   34  C11 UNL     1      64.096  38.939  -5.839  1.00  0.00     0.124 A 
HETATM   35  F1  UNL     1      65.294  39.492  -5.571  1.00  0.00    -0.206 F 
ENDBRANCH  27  28
ENDBRANCH  23  27
ENDBRANCH   1  23
TORSDOF 9
ENDMDL
MODEL 4
REMARK VINA RESULT: -6.722492258      1.573      1.900
REMARK  9 active torsions:
REMARK  status: ('A' for Active; 'I' for Inactive)
REMARK    1  A    between atoms: C2_2  and  C4_4 
REMARK    2  A    between atoms: C4_4  and  C5_5 
REMARK    3  A    between atoms: C4_4  and  N1_14 
REMARK    4  A    between atoms: C5_5  and  C6_6 
REMARK       I    between atoms: N1_14  and  C12_16 
REMARK       I    between atoms: C12_16  and  N2_18 
REMARK    5  A    between atoms: N2_18  and  C14_20 
REMARK    6  A    between atoms: C16_22  and  N3_23 
REMARK    7  A    between atoms: C19_29  and  N4_30 
REMARK    8  A    between atoms: N4_30  and  N5_32 
REMARK    9  A    between atoms: N5_32  and  N6_33 
ROOT
HETATM    1  N1  UNL     1      62.417  43.256   3.565  1.00  0.00    -0.338 N 
ATOM      2  H1  UNL     1      61.481  43.620   3.386  1.00  0.00     0.164 HD
HETATM    3  C12 UNL     1      63.251  43.002   2.456  1.00  0.00     0.318 C 
HETATM    4  O1  UNL     1      64.432  42.546   2.597  1.00  0.00    -0.247 OA
HETATM    5  N2  UNL     1      62.776  43.254   1.156  1.00  0.00    -0.332 N 
HETATM    6  C13 UNL     1      61.436  43.768   1.008  1.00  0.00     0.155 C 
ENDROOT
BRANCH   5   7
HETATM    7  C14 UNL     1      63.621  43.000  -0.002  1.00  0.00     0.115 C 
HETATM    8  C15 UNL     1      62.866  42.199  -1.010  1.00  0.00     0.060 C 
HETATM    9  C16 UNL     1      63.371  42.376  -2.423  1.00  0.00     0.185 C 
HETATM   10  C17 UNL     1      63.387  43.802  -2.870  1.00  0.00     0.035 C 
HETATM   11  C18 UNL     1      63.630  44.791  -1.785  1.00  0.00     0.032 C 
HETATM   12  C19 UNL     1      64.239  44.255  -0.540  1.00  0.00     0.137 C 
BRANCH   9  13
HETATM   13  N3  UNL     1      62.471  41.649  -3.297  1.00  0.00    -0.075 N 
ATOM     14  H33 UNL     1      62.583  40.637  -3.233  1.00  0.00     0.274 HD
ATOM     15  H32 UNL     1      61.498  41.694  -2.995  1.00  0.00     0.274 HD
ATOM     16  H31 UNL     1      62.612  42.007  -4.242  1.00  0.00     0.274 HD
ENDBRANCH   9  13
BRANCH  12  17
HETATM   17  N4  UNL     1      65.674  44.133  -0.758  1.00  0.00    -0.246 N 
ATOM     18  H4  UNL     1      66.066  44.488  -1.629  1.00  0.00     0.197 HD
BRANCH  17  19
HETATM   19  N5  UNL     1      66.426  43.627   0.055  1.00  0.00    -0.248 NA
BRANCH  19  20
HETATM   20  N6  UNL     1      67.061  43.149   0.981  1.00  0.00    -0.261 N 
ATOM     21  H62 UNL     1      66.387  42.384   0.945  1.00  0.00     0.193 HD
ATOM     22  H61 UNL     1      67.673  42.862   1.745  1.00  0.00     0.193 HD
ENDBRANCH  19  20
ENDBRANCH  17  19
ENDBRANCH  12  17
ENDBRANCH   5   7
BRANCH   1  23
HETATM   23  C4  UNL     1      62.810  43.032   4.953  1.00  0.00     0.093 C 
BRANCH  23  24
HETATM   24  C2  UNL     1      62.557  44.284   5.691  1.00  0.00     0.001 C 
HETATM   25  C1  UNL     1      61.534  44.242   6.782  1.00  0.00     0.011 C 
HETATM   26  C3  UNL     1      62.287  45.468   4.761  1.00  0.00     0.011 C 
ENDBRANCH  23  24
BRANCH  23  27
HETATM   27  C5  UNL     1      62.354  41.742   5.476  1.00  0.00     0.067 C 
BRANCH  27  28
HETATM   28  C6  UNL     1      63.080  40.519   5.107  1.00  0.00    -0.018 A 
HETATM   29  C7  UNL     1      62.560  39.525   4.308  1.00  0.00     0.011 A 
HETATM   30  C8  UNL     1      63.258  38.397   3.952  1.00  0.00     0.020 A 
HETATM   31  C9  UNL     1      64.539  38.200   4.386  1.00  0.00     0.013 A 
HETATM   32 BR1  UNL     1      65.536  36.633   3.903  1.00  0.00    -0.051 Br
HETATM   33  C10 UNL     1      65.108  39.168   5.189  1.00  0.00     0.061 A 
HETATM   34  C11 UNL     1      64.400  40.294   5.540  1.00  0.00     0.124 A 
HETATM   35  F1  UNL     1      64.950  41.240   6.323  1.00  0.00    -0.206 F 
ENDBRANCH  27  28
ENDBRANCH  23  27
ENDBRANCH   1  23
TORSDOF 9
ENDMDL
MODEL 5
REMARK VINA RESULT: -6.652674610      1.402      1.784
REMARK  9 active torsions:
REMARK  status: ('A' for Active; 'I' for Inactive)
REMARK    1  A    between atoms: C2_2  and  C4_4 
REMARK    2  A    between atoms: C4_4  and  C5_5 
REMARK    3  A    between atoms: C4_4  and  N1_14 
REMARK    4  A    between atoms: C5_5  and  C6_6 
REMARK       I    between atoms: N1_14  and  C12_16 
REMARK       I    between atoms: C12_16  and  N2_18 
REMARK    5  A    between atoms: N2_18  and  C14_20 
REMARK    6  A    between atoms: C16_22  and  N3_23 
REMARK    7  A    between atoms: C19_29  and  N4_30 
REMARK    8  A    between atoms: N4_30  and  N5_32 
REMARK    9  A    between atoms: N5_32  and  N6_33 
ROOT
HETATM    1  N1  UNL     1      62.583  43.030   3.282  1.00  0.00    -0.338 N 
ATOM      2  H1  UNL     1      61.766  42.422   3.241  1.00  0.00     0.164 HD
HETATM    3  C12 UNL     1      63.399  43.121   2.136  1.00  0.00     0.318 C 
HETATM    4  O1  UNL     1      64.437  43.857   2.110  1.00  0.00    -0.247 OA
HETATM    5  N2  UNL     1      63.065  42.384   0.984  1.00  0.00    -0.332 N 
HETATM    6  C13 UNL     1      61.888  41.551   1.026  1.00  0.00     0.155 C 
ENDROOT
BRANCH   5   7
HETATM    7  C14 UNL     1      63.893  42.465  -0.211  1.00  0.00     0.115 C 
HETATM    8  C15 UNL     1      63.408  41.484  -1.227  1.00  0.00     0.060 C 
HETATM    9  C16 UNL     1      63.758  41.863  -2.646  1.00  0.00     0.185 C 
HETATM   10  C17 UNL     1      63.270  43.222  -3.033  1.00  0.00     0.035 C 
HETATM   11  C18 UNL     1      63.214  44.203  -1.916  1.00  0.00     0.032 C 
HETATM   12  C19 UNL     1      64.024  43.871  -0.715  1.00  0.00     0.137 C 
BRANCH   9  13
HETATM   13  N3  UNL     1      63.118  40.899  -3.521  1.00  0.00    -0.075 N 
ATOM     14  H33 UNL     1      63.632  40.020  -3.589  1.00  0.00     0.274 HD
ATOM     15  H32 UNL     1      62.256  40.518  -3.131  1.00  0.00     0.274 HD
ATOM     16  H31 UNL     1      62.982  41.352  -4.424  1.00  0.00     0.274 HD
ENDBRANCH   9  13
BRANCH  12  17
HETATM   17  N4  UNL     1      65.404  44.250  -0.986  1.00  0.00    -0.246 N 
ATOM     18  H4  UNL     1      65.584  44.958  -1.696  1.00  0.00     0.197 HD
BRANCH  17  19
HETATM   19  N5  UNL     1      66.352  43.758  -0.400  1.00  0.00    -0.248 NA
BRANCH  19  20
HETATM   20  N6  UNL     1      67.385  43.401   0.141  1.00  0.00    -0.261 N 
ATOM     21  H62 UNL     1      66.970  43.769   0.998  1.00  0.00     0.193 HD
ATOM     22  H61 UNL     1      68.289  43.058   0.469  1.00  0.00     0.193 HD
ENDBRANCH  19  20
ENDBRANCH  17  19
ENDBRANCH  12  17
ENDBRANCH   5   7
BRANCH   1  23
HETATM   23  C4  UNL     1      62.836  43.752   4.526  1.00  0.00     0.093 C 
BRANCH  23  24
HETATM   24  C2  UNL     1      61.528  44.053   5.135  1.00  0.00     0.001 C 
HETATM   25  C1  UNL     1      61.481  44.201   6.624  1.00  0.00     0.011 C 
HETATM   26  C3  UNL     1      60.429  43.098   4.667  1.00  0.00     0.011 C 
ENDBRANCH  23  24
BRANCH  23  27
HETATM   27  C5  UNL     1      63.921  43.165   5.318  1.00  0.00     0.067 C 
BRANCH  27  28
HETATM   28  C6  UNL     1      64.094  41.707   5.329  1.00  0.00    -0.018 A 
HETATM   29  C7  UNL     1      63.237  40.833   5.961  1.00  0.00     0.011 A 
HETATM   30  C8  UNL     1      63.398  39.469   5.945  1.00  0.00     0.020 A 
HETATM   31  C9  UNL     1      64.447  38.895   5.282  1.00  0.00     0.013 A 
HETATM   32 BR1  UNL     1      64.695  36.993   5.244  1.00  0.00    -0.051 Br
HETATM   33  C10 UNL     1      65.335  39.727   4.631  1.00  0.00     0.061 A 
HETATM   34  C11 UNL     1      65.165  41.091   4.654  1.00  0.00     0.124 A 
HETATM   35  F1  UNL     1      66.029  41.906   4.021  1.00  0.00    -0.206 F 
ENDBRANCH  27  28
ENDBRANCH  23  27
ENDBRANCH   1  23
TORSDOF 9
ENDMDL
