MODEL 1
REMARK VINA RESULT: -7.601854614      0.000      0.000
REMARK  9 active torsions:
REMARK  status: ('A' for Active; 'I' for Inactive)
REMARK    1  A    between atoms: C2_2  and  C3_3 
REMARK    2  A    between atoms: C3_3  and  C4_4 
REMARK    3  A    between atoms: C3_3  and  N1_7 
REMARK    4  A    between atoms: C4_4  and  O1_5 
REMARK    5  A    between atoms: N1_7  and  C5_9 
REMARK    6  A    between atoms: C5_9  and  C6_10 
REMARK    7  A    between atoms: C8_13  and  C9_14 
REMARK    8  A    between atoms: C10_19  and  C11_20 
REMARK    9  A    between atoms: C11_20  and  C13_22 
ROOT
HETATM    1  C6  UNL     1      15.783   8.465  39.672  1.00  0.00     0.051 A 
HETATM    2  C7  UNL     1      16.229   9.710  39.285  1.00  0.00     0.171 A 
HETATM    3  O2  UNL     1      16.501   9.658  38.004  1.00  0.00    -0.301 OA
HETATM    4  C8  UNL     1      16.264   8.465  37.530  1.00  0.00     0.194 A 
HETATM    5  N5  UNL     1      15.818   7.712  38.551  1.00  0.00    -0.334 N 
ATOM      6  H5  UNL     1      15.549   6.730  38.489  1.00  0.00     0.168 HD
ENDROOT
BRANCH   4   7
HETATM    7  C9  UNL     1      16.469   8.090  36.135  1.00  0.00     0.174 A 
HETATM    8  N2  UNL     1      15.776   8.518  35.070  1.00  0.00    -0.281 N 
HETATM    9  N3  UNL     1      16.266   7.940  33.962  1.00  0.00    -0.287 N 
ATOM     10  H2  UNL     1      14.999   9.178  35.097  1.00  0.00     0.188 HD
HETATM   11  C10 UNL     1      17.287   7.129  34.311  1.00  0.00     0.101 A 
ATOM     12  H3  UNL     1      15.923   8.089  33.012  1.00  0.00     0.188 HD
HETATM   13  N4  UNL     1      17.386   7.243  35.637  1.00  0.00    -0.326 N 
ATOM     14  H4  UNL     1      18.073   6.746  36.204  1.00  0.00     0.169 HD
BRANCH  11  15
HETATM   15  C11 UNL     1      18.155   6.274  33.434  1.00  0.00     0.055 C 
HETATM   16  C12 UNL     1      17.692   4.849  33.474  1.00  0.00     0.018 C 
BRANCH  15  17
HETATM   17  C13 UNL     1      18.244   6.832  32.043  1.00  0.00    -0.003 A 
HETATM   18  C14 UNL     1      18.951   6.106  30.968  1.00  0.00     0.006 A 
HETATM   19  C15 UNL     1      19.555   7.352  31.548  1.00  0.00     0.006 A 
ENDBRANCH  15  17
ENDBRANCH  11  15
ENDBRANCH   4   7
BRANCH   1  20
HETATM   20  C5  UNL     1      15.358   8.074  41.044  1.00  0.00     0.173 C 
BRANCH  20  21
HETATM   21  N1  UNL     1      14.380   7.056  41.059  1.00  0.00    -0.410 N 
ATOM     22  H1  UNL     1      14.153   6.534  40.212  1.00  0.00     0.154 HD
BRANCH  21  23
HETATM   23  C3  UNL     1      13.723   6.780  42.283  1.00  0.00     0.100 C 
BRANCH  23  24
HETATM   24  C2  UNL     1      12.223   6.743  42.044  1.00  0.00     0.022 C 
HETATM   25  C1  UNL     1      11.575   5.833  43.074  1.00  0.00     0.007 C 
ENDBRANCH  23  24
BRANCH  23  26
HETATM   26  C4  UNL     1      14.127   5.369  42.742  1.00  0.00     0.188 C 
BRANCH  26  27
HETATM   27  O1  UNL     1      14.472   4.658  41.582  1.00  0.00    -0.399 OA
ATOM     28  H1  UNL     1      13.680   4.223  41.290  1.00  0.00     0.209 HD
ENDBRANCH  26  27
ENDBRANCH  23  26
ENDBRANCH  21  23
ENDBRANCH  20  21
ENDBRANCH   1  20
TORSDOF 9
ENDMDL
MODEL 2
REMARK VINA RESULT: -7.393609966      0.976      1.450
REMARK  9 active torsions:
REMARK  status: ('A' for Active; 'I' for Inactive)
REMARK    1  A    between atoms: C2_2  and  C3_3 
REMARK    2  A    between atoms: C3_3  and  C4_4 
REMARK    3  A    between atoms: C3_3  and  N1_7 
REMARK    4  A    between atoms: C4_4  and  O1_5 
REMARK    5  A    between atoms: N1_7  and  C5_9 
REMARK    6  A    between atoms: C5_9  and  C6_10 
REMARK    7  A    between atoms: C8_13  and  C9_14 
REMARK    8  A    between atoms: C10_19  and  C11_20 
REMARK    9  A    between atoms: C11_20  and  C13_22 
ROOT
HETATM    1  C6  UNL     1      16.390   8.335  39.272  1.00  0.00     0.051 A 
HETATM    2  C7  UNL     1      17.750   8.474  39.095  1.00  0.00     0.171 A 
HETATM    3  O2  UNL     1      18.000   8.372  37.812  1.00  0.00    -0.301 OA
HETATM    4  C8  UNL     1      16.897   8.176  37.142  1.00  0.00     0.194 A 
HETATM    5  N5  UNL     1      15.888   8.151  38.031  1.00  0.00    -0.334 N 
ATOM      6  H5  UNL     1      14.903   8.015  37.805  1.00  0.00     0.168 HD
ENDROOT
BRANCH   4   7
HETATM    7  C9  UNL     1      16.845   8.023  35.692  1.00  0.00     0.174 A 
HETATM    8  N2  UNL     1      15.883   8.455  34.864  1.00  0.00    -0.281 N 
HETATM    9  N3  UNL     1      16.198   8.116  33.603  1.00  0.00    -0.287 N 
ATOM     10  H2  UNL     1      15.045   8.962  35.147  1.00  0.00     0.188 HD
HETATM   11  C10 UNL     1      17.376   7.456  33.614  1.00  0.00     0.101 A 
ATOM     12  H3  UNL     1      15.640   8.323  32.775  1.00  0.00     0.188 HD
HETATM   13  N4  UNL     1      17.743   7.416  34.896  1.00  0.00    -0.326 N 
ATOM     14  H4  UNL     1      18.601   6.978  35.232  1.00  0.00     0.169 HD
BRANCH  11  15
HETATM   15  C11 UNL     1      18.145   6.882  32.460  1.00  0.00     0.055 C 
HETATM   16  C12 UNL     1      19.263   7.802  32.070  1.00  0.00     0.018 C 
BRANCH  15  17
HETATM   17  C13 UNL     1      18.600   5.481  32.749  1.00  0.00    -0.003 A 
HETATM   18  C14 UNL     1      19.243   4.653  31.709  1.00  0.00     0.006 A 
HETATM   19  C15 UNL     1      17.847   4.334  32.158  1.00  0.00     0.006 A 
ENDBRANCH  15  17
ENDBRANCH  11  15
ENDBRANCH   4   7
BRANCH   1  20
HETATM   20  C5  UNL     1      15.666   8.389  40.571  1.00  0.00     0.173 C 
BRANCH  20  21
HETATM   21  N1  UNL     1      14.718   7.354  40.728  1.00  0.00    -0.410 N 
ATOM     22  H1  UNL     1      14.520   6.704  39.966  1.00  0.00     0.154 HD
BRANCH  21  23
HETATM   23  C3  UNL     1      14.051   7.243  41.972  1.00  0.00     0.100 C 
BRANCH  23  24
HETATM   24  C2  UNL     1      12.554   7.371  41.747  1.00  0.00     0.022 C 
HETATM   25  C1  UNL     1      11.835   6.295  42.544  1.00  0.00     0.007 C 
ENDBRANCH  23  24
BRANCH  23  26
HETATM   26  C4  UNL     1      14.290   5.829  42.526  1.00  0.00     0.188 C 
BRANCH  26  27
HETATM   27  O1  UNL     1      14.727   5.048  41.444  1.00  0.00    -0.399 OA
ATOM     28  H1  UNL     1      15.531   4.628  41.724  1.00  0.00     0.209 HD
ENDBRANCH  26  27
ENDBRANCH  23  26
ENDBRANCH  21  23
ENDBRANCH  20  21
ENDBRANCH   1  20
TORSDOF 9
ENDMDL
MODEL 3
REMARK VINA RESULT: -7.216980547      2.119      8.796
REMARK  9 active torsions:
REMARK  status: ('A' for Active; 'I' for Inactive)
REMARK    1  A    between atoms: C2_2  and  C3_3 
REMARK    2  A    between atoms: C3_3  and  C4_4 
REMARK    3  A    between atoms: C3_3  and  N1_7 
REMARK    4  A    between atoms: C4_4  and  O1_5 
REMARK    5  A    between atoms: N1_7  and  C5_9 
REMARK    6  A    between atoms: C5_9  and  C6_10 
REMARK    7  A    between atoms: C8_13  and  C9_14 
REMARK    8  A    between atoms: C10_19  and  C11_20 
REMARK    9  A    between atoms: C11_20  and  C13_22 
ROOT
HETATM    1  C6  UNL     1      16.714   8.006  36.078  1.00  0.00     0.051 A 
HETATM    2  C7  UNL     1      17.582   7.346  36.922  1.00  0.00     0.171 A 
HETATM    3  O2  UNL     1      17.251   7.648  38.154  1.00  0.00    -0.301 OA
HETATM    4  C8  UNL     1      16.229   8.459  38.170  1.00  0.00     0.194 A 
HETATM    5  N5  UNL     1      15.882   8.691  36.892  1.00  0.00    -0.334 N 
ATOM      6  H5  UNL     1      15.114   9.289  36.585  1.00  0.00     0.168 HD
ENDROOT
BRANCH   4   7
HETATM    7  C9  UNL     1      15.625   8.978  39.393  1.00  0.00     0.174 A 
HETATM    8  N2  UNL     1      15.814  10.187  39.942  1.00  0.00    -0.281 N 
HETATM    9  N3  UNL     1      15.085  10.282  41.066  1.00  0.00    -0.287 N 
ATOM     10  H2  UNL     1      16.417  10.918  39.566  1.00  0.00     0.188 HD
HETATM   11  C10 UNL     1      14.417   9.124  41.248  1.00  0.00     0.101 A 
ATOM     12  H3  UNL     1      15.044  11.096  41.680  1.00  0.00     0.188 HD
HETATM   13  N4  UNL     1      14.765   8.353  40.216  1.00  0.00    -0.326 N 
ATOM     14  H4  UNL     1      14.421   7.404  40.069  1.00  0.00     0.169 HD
BRANCH  11  15
HETATM   15  C11 UNL     1      13.472   8.744  42.351  1.00  0.00     0.055 C 
HETATM   16  C12 UNL     1      12.594   9.905  42.708  1.00  0.00     0.018 C 
BRANCH  15  17
HETATM   17  C13 UNL     1      12.705   7.500  42.008  1.00  0.00    -0.003 A 
HETATM   18  C14 UNL     1      11.889   6.798  43.021  1.00  0.00     0.006 A 
HETATM   19  C15 UNL     1      13.173   6.185  42.541  1.00  0.00     0.006 A 
ENDBRANCH  15  17
ENDBRANCH  11  15
ENDBRANCH   4   7
BRANCH   1  20
HETATM   20  C5  UNL     1      16.722   7.944  34.591  1.00  0.00     0.173 C 
BRANCH  20  21
HETATM   21  N1  UNL     1      16.909   6.639  34.085  1.00  0.00    -0.410 N 
ATOM     22  H1  UNL     1      16.165   5.943  34.142  1.00  0.00     0.154 HD
BRANCH  21  23
HETATM   23  C3  UNL     1      18.158   6.324  33.498  1.00  0.00     0.100 C 
BRANCH  23  24
HETATM   24  C2  UNL     1      18.143   4.873  33.046  1.00  0.00     0.022 C 
HETATM   25  C1  UNL     1      18.675   4.786  31.626  1.00  0.00     0.007 C 
ENDBRANCH  23  24
BRANCH  23  26
HETATM   26  C4  UNL     1      18.325   7.174  32.228  1.00  0.00     0.188 C 
BRANCH  26  27
HETATM   27  O1  UNL     1      19.358   8.087  32.496  1.00  0.00    -0.399 OA
ATOM     28  H1  UNL     1      19.771   8.274  31.661  1.00  0.00     0.209 HD
ENDBRANCH  26  27
ENDBRANCH  23  26
ENDBRANCH  21  23
ENDBRANCH  20  21
ENDBRANCH   1  20
TORSDOF 9
ENDMDL
MODEL 4
REMARK VINA RESULT: -7.168651024      2.116      8.775
REMARK  9 active torsions:
REMARK  status: ('A' for Active; 'I' for Inactive)
REMARK    1  A    between atoms: C2_2  and  C3_3 
REMARK    2  A    between atoms: C3_3  and  C4_4 
REMARK    3  A    between atoms: C3_3  and  N1_7 
REMARK    4  A    between atoms: C4_4  and  O1_5 
REMARK    5  A    between atoms: N1_7  and  C5_9 
REMARK    6  A    between atoms: C5_9  and  C6_10 
REMARK    7  A    between atoms: C8_13  and  C9_14 
REMARK    8  A    between atoms: C10_19  and  C11_20 
REMARK    9  A    between atoms: C11_20  and  C13_22 
ROOT
HETATM    1  C6  UNL     1      16.750   7.998  35.708  1.00  0.00     0.051 A 
HETATM    2  C7  UNL     1      17.347   7.052  36.512  1.00  0.00     0.171 A 
HETATM    3  O2  UNL     1      17.012   7.312  37.753  1.00  0.00    -0.301 OA
HETATM    4  C8  UNL     1      16.238   8.361  37.811  1.00  0.00     0.194 A 
HETATM    5  N5  UNL     1      16.064   8.799  36.551  1.00  0.00    -0.334 N 
ATOM      6  H5  UNL     1      15.505   9.607  36.278  1.00  0.00     0.168 HD
ENDROOT
BRANCH   4   7
HETATM    7  C9  UNL     1      15.697   8.902  39.054  1.00  0.00     0.174 A 
HETATM    8  N2  UNL     1      15.907  10.123  39.567  1.00  0.00    -0.281 N 
HETATM    9  N3  UNL     1      15.238  10.237  40.726  1.00  0.00    -0.287 N 
ATOM     10  H2  UNL     1      16.484  10.849  39.144  1.00  0.00     0.188 HD
HETATM   11  C10 UNL     1      14.588   9.079  40.967  1.00  0.00     0.101 A 
ATOM     12  H3  UNL     1      15.224  11.063  41.325  1.00  0.00     0.188 HD
HETATM   13  N4  UNL     1      14.886   8.289  39.934  1.00  0.00    -0.326 N 
ATOM     14  H4  UNL     1      14.541   7.335  39.825  1.00  0.00     0.169 HD
BRANCH  11  15
HETATM   15  C11 UNL     1      13.706   8.717  42.126  1.00  0.00     0.055 C 
HETATM   16  C12 UNL     1      12.856   9.887  42.519  1.00  0.00     0.018 C 
BRANCH  15  17
HETATM   17  C13 UNL     1      12.914   7.474  41.842  1.00  0.00    -0.003 A 
HETATM   18  C14 UNL     1      11.994   6.903  42.848  1.00  0.00     0.006 A 
HETATM   19  C15 UNL     1      13.282   6.201  42.533  1.00  0.00     0.006 A 
ENDBRANCH  15  17
ENDBRANCH  11  15
ENDBRANCH   4   7
BRANCH   1  20
HETATM   20  C5  UNL     1      16.857   8.081  34.225  1.00  0.00     0.173 C 
BRANCH  20  21
HETATM   21  N1  UNL     1      18.090   7.607  33.726  1.00  0.00    -0.410 N 
ATOM     22  H1  UNL     1      18.973   7.900  34.144  1.00  0.00     0.154 HD
BRANCH  21  23
HETATM   23  C3  UNL     1      18.065   6.713  32.628  1.00  0.00     0.100 C 
BRANCH  23  24
HETATM   24  C2  UNL     1      19.228   7.030  31.702  1.00  0.00     0.022 C 
HETATM   25  C1  UNL     1      19.544   5.806  30.858  1.00  0.00     0.007 C 
ENDBRANCH  23  24
BRANCH  23  26
HETATM   26  C4  UNL     1      18.305   5.289  33.157  1.00  0.00     0.188 C 
BRANCH  26  27
HETATM   27  O1  UNL     1      17.084   4.856  33.697  1.00  0.00    -0.399 OA
ATOM     28  H1  UNL     1      17.247   4.672  34.614  1.00  0.00     0.209 HD
ENDBRANCH  26  27
ENDBRANCH  23  26
ENDBRANCH  21  23
ENDBRANCH  20  21
ENDBRANCH   1  20
TORSDOF 9
ENDMDL
MODEL 5
REMARK VINA RESULT: -7.042302149      2.227      2.969
REMARK  9 active torsions:
REMARK  status: ('A' for Active; 'I' for Inactive)
REMARK    1  A    between atoms: C2_2  and  C3_3 
REMARK    2  A    between atoms: C3_3  and  C4_4 
REMARK    3  A    between atoms: C3_3  and  N1_7 
REMARK    4  A    between atoms: C4_4  and  O1_5 
REMARK    5  A    between atoms: N1_7  and  C5_9 
REMARK    6  A    between atoms: C5_9  and  C6_10 
REMARK    7  A    between atoms: C8_13  and  C9_14 
REMARK    8  A    between atoms: C10_19  and  C11_20 
REMARK    9  A    between atoms: C11_20  and  C13_22 
ROOT
HETATM    1  C6  UNL     1      16.907   8.760  38.844  1.00  0.00     0.051 A 
HETATM    2  C7  UNL     1      18.189   8.299  38.640  1.00  0.00     0.171 A 
HETATM    3  O2  UNL     1      18.318   8.024  37.365  1.00  0.00    -0.301 OA
HETATM    4  C8  UNL     1      17.209   8.275  36.725  1.00  0.00     0.194 A 
HETATM    5  N5  UNL     1      16.322   8.733  37.627  1.00  0.00    -0.334 N 
ATOM      6  H5  UNL     1      15.363   9.014  37.424  1.00  0.00     0.168 HD
ENDROOT
BRANCH   4   7
HETATM    7  C9  UNL     1      17.036   8.072  35.290  1.00  0.00     0.174 A 
HETATM    8  N2  UNL     1      15.906   8.211  34.582  1.00  0.00    -0.281 N 
HETATM    9  N3  UNL     1      16.155   7.931  33.292  1.00  0.00    -0.287 N 
ATOM     10  H2  UNL     1      15.001   8.486  34.961  1.00  0.00     0.188 HD
HETATM   11  C10 UNL     1      17.459   7.606  33.163  1.00  0.00     0.101 A 
ATOM     12  H3  UNL     1      15.472   7.958  32.535  1.00  0.00     0.188 HD
HETATM   13  N4  UNL     1      17.966   7.701  34.394  1.00  0.00    -0.326 N 
ATOM     14  H4  UNL     1      18.942   7.515  34.626  1.00  0.00     0.169 HD
BRANCH  11  15
HETATM   15  C11 UNL     1      18.218   7.222  31.926  1.00  0.00     0.055 C 
HETATM   16  C12 UNL     1      19.648   7.657  32.036  1.00  0.00     0.018 C 
BRANCH  15  17
HETATM   17  C13 UNL     1      18.061   5.761  31.620  1.00  0.00    -0.003 A 
HETATM   18  C14 UNL     1      18.521   4.725  32.568  1.00  0.00     0.006 A 
HETATM   19  C15 UNL     1      19.272   4.951  31.288  1.00  0.00     0.006 A 
ENDBRANCH  15  17
ENDBRANCH  11  15
ENDBRANCH   4   7
BRANCH   1  20
HETATM   20  C5  UNL     1      16.328   9.194  40.146  1.00  0.00     0.173 C 
BRANCH  20  21
HETATM   21  N1  UNL     1      15.425  10.272  40.026  1.00  0.00    -0.410 N 
ATOM     22  H1  UNL     1      15.736  11.181  39.681  1.00  0.00     0.154 HD
BRANCH  21  23
HETATM   23  C3  UNL     1      14.077  10.057  40.400  1.00  0.00     0.100 C 
BRANCH  23  24
HETATM   24  C2  UNL     1      14.033   9.073  41.557  1.00  0.00     0.022 C 
HETATM   25  C1  UNL     1      12.958   8.033  41.289  1.00  0.00     0.007 C 
ENDBRANCH  23  24
BRANCH  23  26
HETATM   26  C4  UNL     1      13.503  11.381  40.931  1.00  0.00     0.188 C 
BRANCH  26  27
HETATM   27  O1  UNL     1      12.171  11.441  40.493  1.00  0.00    -0.399 OA
ATOM     28  H1  UNL     1      11.668  11.801  41.213  1.00  0.00     0.209 HD
ENDBRANCH  26  27
ENDBRANCH  23  26
ENDBRANCH  21  23
ENDBRANCH  20  21
ENDBRANCH   1  20
TORSDOF 9
ENDMDL
