MODEL 1
REMARK VINA RESULT: -6.694282526      0.000      0.000
REMARK  10 active torsions:
REMARK  status: ('A' for Active; 'I' for Inactive)
REMARK    1  A    between atoms: C2_2  and  C3_3 
REMARK    2  A    between atoms: C3_3  and  O1_5 
REMARK    3  A    between atoms: C3_3  and  C5_7 
REMARK    4  A    between atoms: C5_7  and  O2_8 
REMARK    5  A    between atoms: C5_7  and  C6_10 
REMARK    6  A    between atoms: C6_10  and  C7_11 
REMARK    7  A    between atoms: C7_11  and  N1_12 
REMARK    8  A    between atoms: C9_14  and  C10_15 
REMARK    9  A    between atoms: C10_15  and  N2_16 
REMARK   10  A    between atoms: N2_16  and  C11_19 
ROOT
HETATM    1  C11 UNL     1      16.791   7.074  34.717  1.00  0.00     0.213 C 
HETATM    2  C12 UNL     1      15.734   8.058  34.495  1.00  0.00     0.099 C 
HETATM    3  N3  UNL     1      14.905   8.846  34.332  1.00  0.00    -0.195 NA
HETATM    4  C13 UNL     1      16.381   5.651  34.311  1.00  0.00     0.055 C 
HETATM    5  C14 UNL     1      17.795   5.477  33.801  1.00  0.00     0.007 C 
HETATM    6  C15 UNL     1      17.834   6.998  33.620  1.00  0.00     0.055 C 
ENDROOT
BRANCH   1   7
HETATM    7  N2  UNL     1      17.364   7.054  36.027  1.00  0.00    -0.048 N 
ATOM      8  H22 UNL     1      18.103   6.354  36.092  1.00  0.00     0.279 HD
ATOM      9  H21 UNL     1      16.709   6.667  36.706  1.00  0.00     0.279 HD
BRANCH   7  10
HETATM   10  C10 UNL     1      17.844   8.356  36.451  1.00  0.00     0.294 C 
BRANCH  10  11
HETATM   11  C9  UNL     1      17.348   8.717  37.792  1.00  0.00     0.070 A 
HETATM   12  C8  UNL     1      17.935   8.353  38.993  1.00  0.00     0.139 A 
HETATM   13  N1  UNL     1      17.223   8.850  40.001  1.00  0.00    -0.287 N 
HETATM   14  N5  UNL     1      16.223   9.506  39.493  1.00  0.00    -0.241 N 
HETATM   15  N4  UNL     1      16.262   9.449  38.152  1.00  0.00    -0.287 N 
ATOM     16  H5  UNL     1      15.511   9.994  40.035  1.00  0.00     0.208 HD
ATOM     17  H4  UNL     1      15.593   9.880  37.514  1.00  0.00     0.188 HD
BRANCH  13  18
HETATM   18  C7  UNL     1      17.552   8.665  41.423  1.00  0.00     0.152 C 
BRANCH  18  19
HETATM   19  C6  UNL     1      16.324   8.804  42.255  1.00  0.00     0.057 C 
BRANCH  19  20
HETATM   20  C5  UNL     1      15.571   7.547  42.483  1.00  0.00     0.157 C 
BRANCH  20  21
HETATM   21  C3  UNL     1      14.311   7.337  41.757  1.00  0.00     0.097 C 
HETATM   22  C4  UNL     1      13.587   8.690  41.615  1.00  0.00     0.053 C 
BRANCH  21  23
HETATM   23  C2  UNL     1      13.332   6.413  42.359  1.00  0.00     0.003 C 
HETATM   24  C1  UNL     1      12.037   6.474  42.379  1.00  0.00     0.010 C 
ENDBRANCH  21  23
BRANCH  21  25
HETATM   25  O1  UNL     1      14.592   6.951  40.428  1.00  0.00    -0.384 OA
ATOM     26  H1  UNL     1      14.287   7.616  39.823  1.00  0.00     0.211 HD
ENDBRANCH  21  25
ENDBRANCH  20  21
BRANCH  20  27
HETATM   27  O2  UNL     1      16.496   6.494  42.258  1.00  0.00    -0.392 OA
ATOM     28  H2  UNL     1      16.390   5.788  42.885  1.00  0.00     0.210 HD
ENDBRANCH  20  27
ENDBRANCH  19  20
ENDBRANCH  18  19
ENDBRANCH  13  18
ENDBRANCH  10  11
ENDBRANCH   7  10
ENDBRANCH   1   7
TORSDOF 10
ENDMDL
MODEL 2
REMARK VINA RESULT: -6.564497346      1.311      1.784
REMARK  10 active torsions:
REMARK  status: ('A' for Active; 'I' for Inactive)
REMARK    1  A    between atoms: C2_2  and  C3_3 
REMARK    2  A    between atoms: C3_3  and  O1_5 
REMARK    3  A    between atoms: C3_3  and  C5_7 
REMARK    4  A    between atoms: C5_7  and  O2_8 
REMARK    5  A    between atoms: C5_7  and  C6_10 
REMARK    6  A    between atoms: C6_10  and  C7_11 
REMARK    7  A    between atoms: C7_11  and  N1_12 
REMARK    8  A    between atoms: C9_14  and  C10_15 
REMARK    9  A    between atoms: C10_15  and  N2_16 
REMARK   10  A    between atoms: N2_16  and  C11_19 
ROOT
HETATM    1  C11 UNL     1      16.859   6.945  34.540  1.00  0.00     0.213 C 
HETATM    2  C12 UNL     1      15.787   7.886  34.222  1.00  0.00     0.099 C 
HETATM    3  N3  UNL     1      14.945   8.640  33.984  1.00  0.00    -0.195 NA
HETATM    4  C13 UNL     1      16.510   5.494  34.179  1.00  0.00     0.055 C 
HETATM    5  C14 UNL     1      17.953   5.341  33.747  1.00  0.00     0.007 C 
HETATM    6  C15 UNL     1      17.958   6.853  33.500  1.00  0.00     0.055 C 
ENDROOT
BRANCH   1   7
HETATM    7  N2  UNL     1      17.367   7.000  35.876  1.00  0.00    -0.048 N 
ATOM      8  H22 UNL     1      18.244   6.485  35.955  1.00  0.00     0.279 HD
ATOM      9  H21 UNL     1      16.791   6.444  36.508  1.00  0.00     0.279 HD
BRANCH   7  10
HETATM   10  C10 UNL     1      17.514   8.357  36.366  1.00  0.00     0.294 C 
BRANCH  10  11
HETATM   11  C9  UNL     1      17.333   8.439  37.827  1.00  0.00     0.070 A 
HETATM   12  C8  UNL     1      16.131   8.660  38.478  1.00  0.00     0.139 A 
HETATM   13  N1  UNL     1      16.337   8.674  39.793  1.00  0.00    -0.287 N 
HETATM   14  N5  UNL     1      17.604   8.473  39.996  1.00  0.00    -0.241 N 
HETATM   15  N4  UNL     1      18.246   8.326  38.826  1.00  0.00    -0.287 N 
ATOM     16  H5  UNL     1      18.047   8.432  40.914  1.00  0.00     0.208 HD
ATOM     17  H4  UNL     1      19.245   8.158  38.708  1.00  0.00     0.188 HD
BRANCH  13  18
HETATM   18  C7  UNL     1      15.282   8.881  40.798  1.00  0.00     0.152 C 
BRANCH  18  19
HETATM   19  C6  UNL     1      14.531   7.614  41.020  1.00  0.00     0.057 C 
BRANCH  19  20
HETATM   20  C5  UNL     1      14.963   6.822  42.198  1.00  0.00     0.157 C 
BRANCH  20  21
HETATM   21  C3  UNL     1      14.183   5.637  42.576  1.00  0.00     0.097 C 
HETATM   22  C4  UNL     1      12.683   5.983  42.498  1.00  0.00     0.053 C 
BRANCH  21  23
HETATM   23  C2  UNL     1      14.404   5.087  43.927  1.00  0.00     0.003 C 
HETATM   24  C1  UNL     1      14.955   3.971  44.288  1.00  0.00     0.010 C 
ENDBRANCH  21  23
BRANCH  21  25
HETATM   25  O1  UNL     1      14.358   4.627  41.605  1.00  0.00    -0.384 OA
ATOM     26  H1  UNL     1      13.569   4.533  41.084  1.00  0.00     0.211 HD
ENDBRANCH  21  25
ENDBRANCH  20  21
BRANCH  20  27
HETATM   27  O2  UNL     1      16.330   6.510  41.975  1.00  0.00    -0.392 OA
ATOM     28  H2  UNL     1      16.816   7.256  41.644  1.00  0.00     0.210 HD
ENDBRANCH  20  27
ENDBRANCH  19  20
ENDBRANCH  18  19
ENDBRANCH  13  18
ENDBRANCH  10  11
ENDBRANCH   7  10
ENDBRANCH   1   7
TORSDOF 10
ENDMDL
MODEL 3
REMARK VINA RESULT: -6.535005528      1.161      1.683
REMARK  10 active torsions:
REMARK  status: ('A' for Active; 'I' for Inactive)
REMARK    1  A    between atoms: C2_2  and  C3_3 
REMARK    2  A    between atoms: C3_3  and  O1_5 
REMARK    3  A    between atoms: C3_3  and  C5_7 
REMARK    4  A    between atoms: C5_7  and  O2_8 
REMARK    5  A    between atoms: C5_7  and  C6_10 
REMARK    6  A    between atoms: C6_10  and  C7_11 
REMARK    7  A    between atoms: C7_11  and  N1_12 
REMARK    8  A    between atoms: C9_14  and  C10_15 
REMARK    9  A    between atoms: C10_15  and  N2_16 
REMARK   10  A    between atoms: N2_16  and  C11_19 
ROOT
HETATM    1  C11 UNL     1      16.796   7.079  34.693  1.00  0.00     0.213 C 
HETATM    2  C12 UNL     1      15.737   8.064  34.485  1.00  0.00     0.099 C 
HETATM    3  N3  UNL     1      14.907   8.854  34.334  1.00  0.00    -0.195 NA
HETATM    4  C13 UNL     1      16.373   5.655  34.304  1.00  0.00     0.055 C 
HETATM    5  C14 UNL     1      17.777   5.473  33.767  1.00  0.00     0.007 C 
HETATM    6  C15 UNL     1      17.816   6.993  33.576  1.00  0.00     0.055 C 
ENDROOT
BRANCH   1   7
HETATM    7  N2  UNL     1      17.395   7.066  35.991  1.00  0.00    -0.048 N 
ATOM      8  H22 UNL     1      18.179   6.414  36.025  1.00  0.00     0.279 HD
ATOM      9  H21 UNL     1      16.780   6.620  36.672  1.00  0.00     0.279 HD
BRANCH   7  10
HETATM   10  C10 UNL     1      17.796   8.386  36.439  1.00  0.00     0.294 C 
BRANCH  10  11
HETATM   11  C9  UNL     1      17.431   8.626  37.847  1.00  0.00     0.070 A 
HETATM   12  C8  UNL     1      16.300   9.297  38.282  1.00  0.00     0.139 A 
HETATM   13  N1  UNL     1      16.289   9.328  39.612  1.00  0.00    -0.287 N 
HETATM   14  N5  UNL     1      17.353   8.710  40.030  1.00  0.00    -0.241 N 
HETATM   15  N4  UNL     1      18.075   8.268  38.988  1.00  0.00    -0.287 N 
ATOM     16  H5  UNL     1      17.604   8.580  41.010  1.00  0.00     0.208 HD
ATOM     17  H4  UNL     1      18.954   7.754  39.043  1.00  0.00     0.188 HD
BRANCH  13  18
HETATM   18  C7  UNL     1      15.235   9.960  40.422  1.00  0.00     0.152 C 
BRANCH  18  19
HETATM   19  C6  UNL     1      14.150   8.979  40.704  1.00  0.00     0.057 C 
BRANCH  19  20
HETATM   20  C5  UNL     1      14.533   7.851  41.588  1.00  0.00     0.157 C 
BRANCH  20  21
HETATM   21  C3  UNL     1      13.652   7.504  42.711  1.00  0.00     0.097 C 
HETATM   22  C4  UNL     1      14.286   6.341  43.500  1.00  0.00     0.053 C 
BRANCH  21  23
HETATM   23  C2  UNL     1      12.280   7.073  42.385  1.00  0.00     0.003 C 
HETATM   24  C1  UNL     1      11.710   5.921  42.554  1.00  0.00     0.010 C 
ENDBRANCH  21  23
BRANCH  21  25
HETATM   25  O1  UNL     1      13.621   8.573  43.633  1.00  0.00    -0.384 OA
ATOM     26  H1  UNL     1      13.186   8.303  44.433  1.00  0.00     0.211 HD
ENDBRANCH  21  25
ENDBRANCH  20  21
BRANCH  20  27
HETATM   27  O2  UNL     1      14.759   6.743  40.728  1.00  0.00    -0.392 OA
ATOM     28  H2  UNL     1      15.569   6.832  40.240  1.00  0.00     0.210 HD
ENDBRANCH  20  27
ENDBRANCH  19  20
ENDBRANCH  18  19
ENDBRANCH  13  18
ENDBRANCH  10  11
ENDBRANCH   7  10
ENDBRANCH   1   7
TORSDOF 10
ENDMDL
MODEL 4
REMARK VINA RESULT: -6.496316141      1.245      2.070
REMARK  10 active torsions:
REMARK  status: ('A' for Active; 'I' for Inactive)
REMARK    1  A    between atoms: C2_2  and  C3_3 
REMARK    2  A    between atoms: C3_3  and  O1_5 
REMARK    3  A    between atoms: C3_3  and  C5_7 
REMARK    4  A    between atoms: C5_7  and  O2_8 
REMARK    5  A    between atoms: C5_7  and  C6_10 
REMARK    6  A    between atoms: C6_10  and  C7_11 
REMARK    7  A    between atoms: C7_11  and  N1_12 
REMARK    8  A    between atoms: C9_14  and  C10_15 
REMARK    9  A    between atoms: C10_15  and  N2_16 
REMARK   10  A    between atoms: N2_16  and  C11_19 
ROOT
HETATM    1  C11 UNL     1      16.824   7.076  34.735  1.00  0.00     0.213 C 
HETATM    2  C12 UNL     1      15.765   8.061  34.528  1.00  0.00     0.099 C 
HETATM    3  N3  UNL     1      14.933   8.850  34.378  1.00  0.00    -0.195 NA
HETATM    4  C13 UNL     1      16.425   5.664  34.283  1.00  0.00     0.055 C 
HETATM    5  C14 UNL     1      17.846   5.511  33.785  1.00  0.00     0.007 C 
HETATM    6  C15 UNL     1      17.880   7.037  33.649  1.00  0.00     0.055 C 
ENDROOT
BRANCH   1   7
HETATM    7  N2  UNL     1      17.381   7.022  36.050  1.00  0.00    -0.048 N 
ATOM      8  H22 UNL     1      18.159   6.363  36.090  1.00  0.00     0.279 HD
ATOM      9  H21 UNL     1      16.742   6.563  36.699  1.00  0.00     0.279 HD
BRANCH   7  10
HETATM   10  C10 UNL     1      17.779   8.325  36.547  1.00  0.00     0.294 C 
BRANCH  10  11
HETATM   11  C9  UNL     1      17.320   8.552  37.930  1.00  0.00     0.070 A 
HETATM   12  C8  UNL     1      16.062   9.000  38.298  1.00  0.00     0.139 A 
HETATM   13  N1  UNL     1      15.996   9.090  39.624  1.00  0.00    -0.287 N 
HETATM   14  N5  UNL     1      17.146   8.722  40.103  1.00  0.00    -0.241 N 
HETATM   15  N4  UNL     1      17.981   8.387  39.106  1.00  0.00    -0.287 N 
ATOM     16  H5  UNL     1      17.381   8.691  41.095  1.00  0.00     0.208 HD
ATOM     17  H4  UNL     1      18.942   8.065  39.212  1.00  0.00     0.188 HD
BRANCH  13  18
HETATM   18  C7  UNL     1      14.807   9.532  40.370  1.00  0.00     0.152 C 
BRANCH  18  19
HETATM   19  C6  UNL     1      14.629   8.697  41.590  1.00  0.00     0.057 C 
BRANCH  19  20
HETATM   20  C5  UNL     1      14.221   7.293  41.339  1.00  0.00     0.157 C 
BRANCH  20  21
HETATM   21  C3  UNL     1      14.686   6.247  42.260  1.00  0.00     0.097 C 
HETATM   22  C4  UNL     1      13.660   6.096  43.400  1.00  0.00     0.053 C 
BRANCH  21  23
HETATM   23  C2  UNL     1      15.992   6.455  42.913  1.00  0.00     0.003 C 
HETATM   24  C1  UNL     1      17.018   5.666  42.984  1.00  0.00     0.010 C 
ENDBRANCH  21  23
BRANCH  21  25
HETATM   25  O1  UNL     1      14.663   4.996  41.604  1.00  0.00    -0.384 OA
ATOM     26  H1  UNL     1      15.320   4.420  41.974  1.00  0.00     0.211 HD
ENDBRANCH  21  25
ENDBRANCH  20  21
BRANCH  20  27
HETATM   27  O2  UNL     1      12.805   7.313  41.229  1.00  0.00    -0.392 OA
ATOM     28  H2  UNL     1      12.422   8.034  41.714  1.00  0.00     0.210 HD
ENDBRANCH  20  27
ENDBRANCH  19  20
ENDBRANCH  18  19
ENDBRANCH  13  18
ENDBRANCH  10  11
ENDBRANCH   7  10
ENDBRANCH   1   7
TORSDOF 10
ENDMDL
MODEL 5
REMARK VINA RESULT: -6.455083117      1.063      1.188
REMARK  10 active torsions:
REMARK  status: ('A' for Active; 'I' for Inactive)
REMARK    1  A    between atoms: C2_2  and  C3_3 
REMARK    2  A    between atoms: C3_3  and  O1_5 
REMARK    3  A    between atoms: C3_3  and  C5_7 
REMARK    4  A    between atoms: C5_7  and  O2_8 
REMARK    5  A    between atoms: C5_7  and  C6_10 
REMARK    6  A    between atoms: C6_10  and  C7_11 
REMARK    7  A    between atoms: C7_11  and  N1_12 
REMARK    8  A    between atoms: C9_14  and  C10_15 
REMARK    9  A    between atoms: C10_15  and  N2_16 
REMARK   10  A    between atoms: N2_16  and  C11_19 
ROOT
HETATM    1  C11 UNL     1      16.663   7.468  34.347  1.00  0.00     0.213 C 
HETATM    2  C12 UNL     1      15.457   8.167  33.910  1.00  0.00     0.099 C 
HETATM    3  N3  UNL     1      14.507   8.733  33.574  1.00  0.00    -0.195 NA
HETATM    4  C13 UNL     1      16.502   5.941  34.356  1.00  0.00     0.055 C 
HETATM    5  C14 UNL     1      17.930   5.871  33.855  1.00  0.00     0.007 C 
HETATM    6  C15 UNL     1      17.712   7.270  33.271  1.00  0.00     0.055 C 
ENDROOT
BRANCH   1   7
HETATM    7  N2  UNL     1      17.222   7.900  35.591  1.00  0.00    -0.048 N 
ATOM      8  H22 UNL     1      18.017   8.520  35.438  1.00  0.00     0.279 HD
ATOM      9  H21 UNL     1      17.699   7.132  36.062  1.00  0.00     0.279 HD
BRANCH   7  10
HETATM   10  C10 UNL     1      16.242   8.517  36.464  1.00  0.00     0.294 C 
BRANCH  10  11
HETATM   11  C9  UNL     1      16.708   8.576  37.862  1.00  0.00     0.070 A 
HETATM   12  C8  UNL     1      15.997   9.106  38.926  1.00  0.00     0.139 A 
HETATM   13  N1  UNL     1      16.718   8.994  40.038  1.00  0.00    -0.287 N 
HETATM   14  N5  UNL     1      17.841   8.421  39.725  1.00  0.00    -0.241 N 
HETATM   15  N4  UNL     1      17.876   8.151  38.410  1.00  0.00    -0.287 N 
ATOM     16  H5  UNL     1      18.590   8.208  40.384  1.00  0.00     0.208 HD
ATOM     17  H4  UNL     1      18.644   7.705  37.910  1.00  0.00     0.188 HD
BRANCH  13  18
HETATM   18  C7  UNL     1      16.276   9.451  41.366  1.00  0.00     0.152 C 
BRANCH  18  19
HETATM   19  C6  UNL     1      16.174   8.292  42.297  1.00  0.00     0.057 C 
BRANCH  19  20
HETATM   20  C5  UNL     1      14.807   8.002  42.795  1.00  0.00     0.157 C 
BRANCH  20  21
HETATM   21  C3  UNL     1      13.918   7.168  41.974  1.00  0.00     0.097 C 
HETATM   22  C4  UNL     1      12.977   8.086  41.170  1.00  0.00     0.053 C 
BRANCH  21  23
HETATM   23  C2  UNL     1      13.047   6.212  42.682  1.00  0.00     0.003 C 
HETATM   24  C1  UNL     1      11.768   6.024  42.582  1.00  0.00     0.010 C 
ENDBRANCH  21  23
BRANCH  21  25
HETATM   25  O1  UNL     1      14.677   6.499  40.989  1.00  0.00    -0.384 OA
ATOM     26  H1  UNL     1      14.157   6.373  40.205  1.00  0.00     0.211 HD
ENDBRANCH  21  25
ENDBRANCH  20  21
BRANCH  20  27
HETATM   27  O2  UNL     1      14.975   7.473  44.102  1.00  0.00    -0.392 OA
ATOM     28  H2  UNL     1      15.315   8.122  44.707  1.00  0.00     0.210 HD
ENDBRANCH  20  27
ENDBRANCH  19  20
ENDBRANCH  18  19
ENDBRANCH  13  18
ENDBRANCH  10  11
ENDBRANCH   7  10
ENDBRANCH   1   7
TORSDOF 10
ENDMDL
