MODEL 1
REMARK VINA RESULT: -6.132382976      0.000      0.000
REMARK  10 active torsions:
REMARK  status: ('A' for Active; 'I' for Inactive)
REMARK    1  A    between atoms: C3_3  and  C4_4 
REMARK    2  A    between atoms: C3_3  and  N1_9 
REMARK    3  A    between atoms: C4_4  and  S1_5 
REMARK    4  A    between atoms: S1_5  and  C5_6 
REMARK    5  A    between atoms: C5_6  and  C6_7 
REMARK    6  A    between atoms: N1_9  and  C8_11 
REMARK    7  A    between atoms: C8_11  and  C9_12 
REMARK    8  A    between atoms: C8_11  and  C10_17 
REMARK    9  A    between atoms: C9_12  and  O1_13 
REMARK   10  A    between atoms: C9_12  and  O2_15 
ROOT
HETATM    1  C1  UNL     1      14.420   9.542  34.590  1.00  0.00     0.014 C 
HETATM    2  C2  UNL     1      15.275   8.837  35.066  1.00  0.00    -0.091 C 
HETATM    3  C3  UNL     1      16.230   7.990  35.633  1.00  0.00     0.165 C 
ENDROOT
BRANCH   3   4
HETATM    4  C4  UNL     1      17.594   8.047  34.978  1.00  0.00     0.111 C 
BRANCH   4   5
HETATM    5  S1  UNL     1      17.840   7.154  33.482  1.00  0.00    -0.162 SA
BRANCH   5   6
HETATM    6  C5  UNL     1      17.831   5.371  33.560  1.00  0.00     0.100 C 
BRANCH   6   7
HETATM    7  C6  UNL     1      18.564   4.772  32.384  1.00  0.00    -0.027 C 
HETATM    8  C7  UNL     1      18.927   5.546  31.397  1.00  0.00     0.007 C 
ENDBRANCH   6   7
ENDBRANCH   5   6
ENDBRANCH   4   5
ENDBRANCH   3   4
BRANCH   3   9
HETATM    9  N1  UNL     1      16.473   7.953  37.030  1.00  0.00    -0.397 N 
ATOM     10  H1  UNL     1      16.004   7.228  37.573  1.00  0.00     0.155 HD
BRANCH   9  11
HETATM   11  C8  UNL     1      17.305   8.834  37.709  1.00  0.00     0.147 C 
BRANCH  11  12
HETATM   12  C9  UNL     1      18.618   8.234  38.087  1.00  0.00     0.277 C 
BRANCH  12  13
HETATM   13  O1  UNL     1      18.744   6.877  37.956  1.00  0.00    -0.369 OA
ATOM     14  H1  UNL     1      18.152   6.337  38.466  1.00  0.00     0.212 HD
ENDBRANCH  12  13
BRANCH  12  15
HETATM   15  O2  UNL     1      19.659   8.799  37.309  1.00  0.00    -0.369 OA
ATOM     16  H2  UNL     1      19.936   8.189  36.636  1.00  0.00     0.212 HD
ENDBRANCH  12  15
ENDBRANCH  11  12
BRANCH  11  17
HETATM   17  C10 UNL     1      16.598   9.430  38.902  1.00  0.00     0.086 C 
HETATM   18  C11 UNL     1      15.140   9.105  38.938  1.00  0.00     0.029 C 
HETATM   19  C12 UNL     1      14.519   9.938  40.057  1.00  0.00     0.087 C 
HETATM   20  S2  UNL     1      15.329   9.157  41.521  1.00  0.00    -0.097 SA
HETATM   21  S3  UNL     1      17.203   8.799  40.471  1.00  0.00    -0.090 SA
ENDBRANCH  11  17
ENDBRANCH   9  11
ENDBRANCH   3   9
TORSDOF 10
ENDMDL
MODEL 2
REMARK VINA RESULT: -5.996215604      1.059      1.082
REMARK  10 active torsions:
REMARK  status: ('A' for Active; 'I' for Inactive)
REMARK    1  A    between atoms: C3_3  and  C4_4 
REMARK    2  A    between atoms: C3_3  and  N1_9 
REMARK    3  A    between atoms: C4_4  and  S1_5 
REMARK    4  A    between atoms: S1_5  and  C5_6 
REMARK    5  A    between atoms: C5_6  and  C6_7 
REMARK    6  A    between atoms: N1_9  and  C8_11 
REMARK    7  A    between atoms: C8_11  and  C9_12 
REMARK    8  A    between atoms: C8_11  and  C10_17 
REMARK    9  A    between atoms: C9_12  and  O1_13 
REMARK   10  A    between atoms: C9_12  and  O2_15 
ROOT
HETATM    1  C1  UNL     1      14.578   9.248  34.314  1.00  0.00     0.014 C 
HETATM    2  C2  UNL     1      15.450   8.512  34.704  1.00  0.00    -0.091 C 
HETATM    3  C3  UNL     1      16.425   7.625  35.166  1.00  0.00     0.165 C 
ENDROOT
BRANCH   3   4
HETATM    4  C4  UNL     1      17.801   7.832  34.568  1.00  0.00     0.111 C 
BRANCH   4   5
HETATM    5  S1  UNL     1      18.177   7.037  33.045  1.00  0.00    -0.162 SA
BRANCH   5   6
HETATM    6  C5  UNL     1      18.232   5.253  33.022  1.00  0.00     0.100 C 
BRANCH   6   7
HETATM    7  C6  UNL     1      18.639   4.739  31.661  1.00  0.00    -0.027 C 
HETATM    8  C7  UNL     1      19.351   5.503  30.878  1.00  0.00     0.007 C 
ENDBRANCH   6   7
ENDBRANCH   5   6
ENDBRANCH   4   5
ENDBRANCH   3   4
BRANCH   3   9
HETATM    9  N1  UNL     1      16.635   7.386  36.548  1.00  0.00    -0.397 N 
ATOM     10  H1  UNL     1      16.531   6.429  36.885  1.00  0.00     0.155 HD
BRANCH   9  11
HETATM   11  C8  UNL     1      16.972   8.365  37.475  1.00  0.00     0.147 C 
BRANCH  11  12
HETATM   12  C9  UNL     1      18.324   8.169  38.075  1.00  0.00     0.277 C 
BRANCH  12  13
HETATM   13  O1  UNL     1      18.816   6.891  38.101  1.00  0.00    -0.369 OA
ATOM     14  H1  UNL     1      19.655   6.742  37.681  1.00  0.00     0.212 HD
ENDBRANCH  12  13
BRANCH  12  15
HETATM   15  O2  UNL     1      19.287   8.944  37.381  1.00  0.00    -0.369 OA
ATOM     16  H2  UNL     1      20.018   9.149  37.951  1.00  0.00     0.212 HD
ENDBRANCH  12  15
ENDBRANCH  11  12
BRANCH  11  17
HETATM   17  C10 UNL     1      15.903   8.494  38.533  1.00  0.00     0.086 C 
HETATM   18  C11 UNL     1      16.210   7.715  39.770  1.00  0.00     0.029 C 
HETATM   19  C12 UNL     1      14.965   7.761  40.653  1.00  0.00     0.087 C 
HETATM   20  S2  UNL     1      14.944   9.557  41.081  1.00  0.00    -0.097 SA
HETATM   21  S3  UNL     1      15.707  10.173  39.137  1.00  0.00    -0.090 SA
ENDBRANCH  11  17
ENDBRANCH   9  11
ENDBRANCH   3   9
TORSDOF 10
ENDMDL
MODEL 3
REMARK VINA RESULT: -5.773688072      2.636      6.833
REMARK  10 active torsions:
REMARK  status: ('A' for Active; 'I' for Inactive)
REMARK    1  A    between atoms: C3_3  and  C4_4 
REMARK    2  A    between atoms: C3_3  and  N1_9 
REMARK    3  A    between atoms: C4_4  and  S1_5 
REMARK    4  A    between atoms: S1_5  and  C5_6 
REMARK    5  A    between atoms: C5_6  and  C6_7 
REMARK    6  A    between atoms: N1_9  and  C8_11 
REMARK    7  A    between atoms: C8_11  and  C9_12 
REMARK    8  A    between atoms: C8_11  and  C10_17 
REMARK    9  A    between atoms: C9_12  and  O1_13 
REMARK   10  A    between atoms: C9_12  and  O2_15 
ROOT
HETATM    1  C1  UNL     1      19.275   9.098  37.264  1.00  0.00     0.014 C 
HETATM    2  C2  UNL     1      18.294   8.400  37.196  1.00  0.00    -0.091 C 
HETATM    3  C3  UNL     1      17.187   7.553  37.108  1.00  0.00     0.165 C 
ENDROOT
BRANCH   3   4
HETATM    4  C4  UNL     1      15.987   7.996  37.919  1.00  0.00     0.111 C 
BRANCH   4   5
HETATM    5  S1  UNL     1      16.151   9.414  38.947  1.00  0.00    -0.162 SA
BRANCH   5   6
HETATM    6  C5  UNL     1      16.250   9.162  40.711  1.00  0.00     0.100 C 
BRANCH   6   7
HETATM    7  C6  UNL     1      17.625   8.684  41.114  1.00  0.00    -0.027 C 
HETATM    8  C7  UNL     1      18.207   9.218  42.154  1.00  0.00     0.007 C 
ENDBRANCH   6   7
ENDBRANCH   5   6
ENDBRANCH   4   5
ENDBRANCH   3   4
BRANCH   3   9
HETATM    9  N1  UNL     1      16.671   7.111  35.864  1.00  0.00    -0.397 N 
ATOM     10  H1  UNL     1      16.347   6.146  35.801  1.00  0.00     0.155 HD
BRANCH   9  11
HETATM   11  C8  UNL     1      16.577   7.901  34.724  1.00  0.00     0.147 C 
BRANCH  11  12
HETATM   12  C9  UNL     1      15.202   8.426  34.482  1.00  0.00     0.277 C 
BRANCH  12  13
HETATM   13  O1  UNL     1      14.848   9.573  35.141  1.00  0.00    -0.369 OA
ATOM     14  H1  UNL     1      13.922   9.713  35.299  1.00  0.00     0.212 HD
ENDBRANCH  12  13
BRANCH  12  15
HETATM   15  O2  UNL     1      15.013   8.695  33.104  1.00  0.00    -0.369 OA
ATOM     16  H2  UNL     1      15.455   9.499  32.860  1.00  0.00     0.212 HD
ENDBRANCH  12  15
ENDBRANCH  11  12
BRANCH  11  17
HETATM   17  C10 UNL     1      17.118   7.171  33.518  1.00  0.00     0.086 C 
HETATM   18  C11 UNL     1      18.500   7.603  33.146  1.00  0.00     0.029 C 
HETATM   19  C12 UNL     1      18.831   6.953  31.806  1.00  0.00     0.087 C 
HETATM   20  S2  UNL     1      18.890   5.180  32.318  1.00  0.00    -0.097 SA
HETATM   21  S3  UNL     1      17.293   5.403  33.781  1.00  0.00    -0.090 SA
ENDBRANCH  11  17
ENDBRANCH   9  11
ENDBRANCH   3   9
TORSDOF 10
ENDMDL
MODEL 4
REMARK VINA RESULT: -5.704263248      2.440      7.034
REMARK  10 active torsions:
REMARK  status: ('A' for Active; 'I' for Inactive)
REMARK    1  A    between atoms: C3_3  and  C4_4 
REMARK    2  A    between atoms: C3_3  and  N1_9 
REMARK    3  A    between atoms: C4_4  and  S1_5 
REMARK    4  A    between atoms: S1_5  and  C5_6 
REMARK    5  A    between atoms: C5_6  and  C6_7 
REMARK    6  A    between atoms: N1_9  and  C8_11 
REMARK    7  A    between atoms: C8_11  and  C9_12 
REMARK    8  A    between atoms: C8_11  and  C10_17 
REMARK    9  A    between atoms: C9_12  and  O1_13 
REMARK   10  A    between atoms: C9_12  and  O2_15 
ROOT
HETATM    1  C1  UNL     1      19.301   9.026  37.262  1.00  0.00     0.014 C 
HETATM    2  C2  UNL     1      18.251   8.436  37.188  1.00  0.00    -0.091 C 
HETATM    3  C3  UNL     1      17.061   7.711  37.097  1.00  0.00     0.165 C 
ENDROOT
BRANCH   3   4
HETATM    4  C4  UNL     1      15.880   8.344  37.804  1.00  0.00     0.111 C 
BRANCH   4   5
HETATM    5  S1  UNL     1      15.990   8.607  39.540  1.00  0.00    -0.162 SA
BRANCH   5   6
HETATM    6  C5  UNL     1      15.205  10.061  40.217  1.00  0.00     0.100 C 
BRANCH   6   7
HETATM    7  C6  UNL     1      13.789   9.763  40.648  1.00  0.00    -0.027 C 
HETATM    8  C7  UNL     1      12.908  10.726  40.655  1.00  0.00     0.007 C 
ENDBRANCH   6   7
ENDBRANCH   5   6
ENDBRANCH   4   5
ENDBRANCH   3   4
BRANCH   3   9
HETATM    9  N1  UNL     1      16.561   7.233  35.860  1.00  0.00    -0.397 N 
ATOM     10  H1  UNL     1      16.236   6.267  35.821  1.00  0.00     0.155 HD
BRANCH   9  11
HETATM   11  C8  UNL     1      16.481   7.988  34.696  1.00  0.00     0.147 C 
BRANCH  11  12
HETATM   12  C9  UNL     1      15.104   8.485  34.407  1.00  0.00     0.277 C 
BRANCH  12  13
HETATM   13  O1  UNL     1      14.712   9.636  35.038  1.00  0.00    -0.369 OA
ATOM     14  H1  UNL     1      13.796   9.878  34.966  1.00  0.00     0.212 HD
ENDBRANCH  12  13
BRANCH  12  15
HETATM   15  O2  UNL     1      14.950   8.729  33.021  1.00  0.00    -0.369 OA
ATOM     16  H2  UNL     1      15.748   8.509  32.556  1.00  0.00     0.212 HD
ENDBRANCH  12  15
ENDBRANCH  11  12
BRANCH  11  17
HETATM   17  C10 UNL     1      17.062   7.234  33.525  1.00  0.00     0.086 C 
HETATM   18  C11 UNL     1      18.471   7.625  33.219  1.00  0.00     0.029 C 
HETATM   19  C12 UNL     1      18.851   6.954  31.902  1.00  0.00     0.087 C 
HETATM   20  S2  UNL     1      18.836   5.185  32.429  1.00  0.00    -0.097 SA
HETATM   21  S3  UNL     1      17.175   5.465  33.809  1.00  0.00    -0.090 SA
ENDBRANCH  11  17
ENDBRANCH   9  11
ENDBRANCH   3   9
TORSDOF 10
ENDMDL
MODEL 5
REMARK VINA RESULT: -5.561345572      2.129      3.218
REMARK  10 active torsions:
REMARK  status: ('A' for Active; 'I' for Inactive)
REMARK    1  A    between atoms: C3_3  and  C4_4 
REMARK    2  A    between atoms: C3_3  and  N1_9 
REMARK    3  A    between atoms: C4_4  and  S1_5 
REMARK    4  A    between atoms: S1_5  and  C5_6 
REMARK    5  A    between atoms: C5_6  and  C6_7 
REMARK    6  A    between atoms: N1_9  and  C8_11 
REMARK    7  A    between atoms: C8_11  and  C9_12 
REMARK    8  A    between atoms: C8_11  and  C10_17 
REMARK    9  A    between atoms: C9_12  and  O1_13 
REMARK   10  A    between atoms: C9_12  and  O2_15 
ROOT
HETATM    1  C1  UNL     1      18.971   8.461  38.079  1.00  0.00     0.014 C 
HETATM    2  C2  UNL     1      17.828   8.789  37.877  1.00  0.00    -0.091 C 
HETATM    3  C3  UNL     1      16.513   9.211  37.669  1.00  0.00     0.165 C 
ENDROOT
BRANCH   3   4
HETATM    4  C4  UNL     1      15.857   8.642  36.428  1.00  0.00     0.111 C 
BRANCH   4   5
HETATM    5  S1  UNL     1      16.889   8.108  35.108  1.00  0.00    -0.162 SA
BRANCH   5   6
HETATM    6  C5  UNL     1      16.945   6.361  34.743  1.00  0.00     0.100 C 
BRANCH   6   7
HETATM    7  C6  UNL     1      17.865   6.079  33.579  1.00  0.00    -0.027 C 
HETATM    8  C7  UNL     1      18.077   4.842  33.219  1.00  0.00     0.007 C 
ENDBRANCH   6   7
ENDBRANCH   5   6
ENDBRANCH   4   5
ENDBRANCH   3   4
BRANCH   3   9
HETATM    9  N1  UNL     1      15.530   9.151  38.689  1.00  0.00    -0.397 N 
ATOM     10  H1  UNL     1      14.561   9.005  38.405  1.00  0.00     0.155 HD
BRANCH   9  11
HETATM   11  C8  UNL     1      15.794   9.278  40.047  1.00  0.00     0.147 C 
BRANCH  11  12
HETATM   12  C9  UNL     1      15.724   7.985  40.786  1.00  0.00     0.277 C 
BRANCH  12  13
HETATM   13  O1  UNL     1      15.020   6.967  40.198  1.00  0.00    -0.369 OA
ATOM     14  H1  UNL     1      14.884   6.182  40.713  1.00  0.00     0.212 HD
ENDBRANCH  12  13
BRANCH  12  15
HETATM   15  O2  UNL     1      17.027   7.476  41.014  1.00  0.00    -0.369 OA
ATOM     16  H2  UNL     1      17.467   7.315  40.189  1.00  0.00     0.212 HD
ENDBRANCH  12  15
ENDBRANCH  11  12
BRANCH  11  17
HETATM   17  C10 UNL     1      14.908  10.329  40.671  1.00  0.00     0.086 C 
HETATM   18  C11 UNL     1      13.452  10.057  40.473  1.00  0.00     0.029 C 
HETATM   19  C12 UNL     1      12.692  11.289  40.957  1.00  0.00     0.087 C 
HETATM   20  S2  UNL     1      13.064  11.204  42.763  1.00  0.00    -0.097 SA
HETATM   21  S3  UNL     1      15.074  10.424  42.456  1.00  0.00    -0.090 SA
ENDBRANCH  11  17
ENDBRANCH   9  11
ENDBRANCH   3   9
TORSDOF 10
ENDMDL
