MODEL 1
REMARK VINA RESULT: -4.964975432      0.000      0.000
REMARK  4 active torsions:
REMARK  status: ('A' for Active; 'I' for Inactive)
REMARK    1  A    between atoms: N1_1  and  C1_5 
REMARK    2  A    between atoms: C1_5  and  C2_6 
REMARK    3  A    between atoms: C3_7  and  C4_8 
REMARK    4  A    between atoms: C4_8  and  C5_9 
ROOT
HETATM    1  C2  UNL     1      13.669  35.795  36.516  1.00  0.00    -0.004 C 
HETATM    2  C3  UNL     1      13.048  35.572  35.383  1.00  0.00    -0.028 C 
ENDROOT
BRANCH   2   3
HETATM    3  C4  UNL     1      11.838  34.711  35.385  1.00  0.00     0.044 C 
BRANCH   3   4
HETATM    4  C5  UNL     1      10.792  35.400  34.526  1.00  0.00     0.074 C 
HETATM    5  C6  UNL     1       9.994  34.343  33.830  1.00  0.00     0.183 C 
HETATM    6  O1  UNL     1       9.322  34.789  32.708  1.00  0.00    -0.389 OA
HETATM    7  C7  UNL     1      10.149  35.075  31.646  1.00  0.00     0.177 C 
HETATM    8  C8  UNL     1      10.617  36.522  31.832  1.00  0.00     0.100 C 
HETATM    9  S1  UNL     1      11.669  36.477  33.334  1.00  0.00    -0.160 SA
ENDBRANCH   3   4
ENDBRANCH   2   3
BRANCH   1  10
HETATM   10  C1  UNL     1      14.899  36.666  36.538  1.00  0.00     0.256 C 
BRANCH  10  11
HETATM   11  N1  UNL     1      14.606  37.807  35.693  1.00  0.00    -0.076 N 
ATOM     12  H13 UNL     1      15.396  38.444  35.585  1.00  0.00     0.274 HD
ATOM     13  H12 UNL     1      14.503  37.566  34.708  1.00  0.00     0.274 HD
ATOM     14  H11 UNL     1      13.778  38.252  36.088  1.00  0.00     0.274 HD
ENDBRANCH  10  11
ENDBRANCH   1  10
TORSDOF 4
ENDMDL
MODEL 2
REMARK VINA RESULT: -4.684166760      1.778      1.943
REMARK  4 active torsions:
REMARK  status: ('A' for Active; 'I' for Inactive)
REMARK    1  A    between atoms: N1_1  and  C1_5 
REMARK    2  A    between atoms: C1_5  and  C2_6 
REMARK    3  A    between atoms: C3_7  and  C4_8 
REMARK    4  A    between atoms: C4_8  and  C5_9 
ROOT
HETATM    1  C2  UNL     1      13.767  36.115  37.382  1.00  0.00    -0.004 C 
HETATM    2  C3  UNL     1      13.161  35.335  36.520  1.00  0.00    -0.028 C 
ENDROOT
BRANCH   2   3
HETATM    3  C4  UNL     1      13.172  35.708  35.083  1.00  0.00     0.044 C 
BRANCH   3   4
HETATM    4  C5  UNL     1      11.731  35.951  34.668  1.00  0.00     0.074 C 
HETATM    5  C6  UNL     1      11.032  34.630  34.627  1.00  0.00     0.183 C 
HETATM    6  O1  UNL     1       9.880  34.622  33.864  1.00  0.00    -0.389 OA
HETATM    7  C7  UNL     1      10.115  34.708  32.510  1.00  0.00     0.177 C 
HETATM    8  C8  UNL     1      10.220  36.200  32.177  1.00  0.00     0.100 C 
HETATM    9  S1  UNL     1      11.750  36.754  33.023  1.00  0.00    -0.160 SA
ENDBRANCH   3   4
ENDBRANCH   2   3
BRANCH   1  10
HETATM   10  C1  UNL     1      13.769  35.756  38.846  1.00  0.00     0.256 C 
BRANCH  10  11
HETATM   11  N1  UNL     1      12.413  35.358  39.170  1.00  0.00    -0.076 N 
ATOM     12  H13 UNL     1      11.876  35.053  38.358  1.00  0.00     0.274 HD
ATOM     13  H12 UNL     1      12.361  34.483  39.691  1.00  0.00     0.274 HD
ATOM     14  H11 UNL     1      11.992  36.147  39.661  1.00  0.00     0.274 HD
ENDBRANCH  10  11
ENDBRANCH   1  10
TORSDOF 4
ENDMDL
MODEL 3
REMARK VINA RESULT: -4.551705926      1.664      2.262
REMARK  4 active torsions:
REMARK  status: ('A' for Active; 'I' for Inactive)
REMARK    1  A    between atoms: N1_1  and  C1_5 
REMARK    2  A    between atoms: C1_5  and  C2_6 
REMARK    3  A    between atoms: C3_7  and  C4_8 
REMARK    4  A    between atoms: C4_8  and  C5_9 
ROOT
HETATM    1  C2  UNL     1      14.249  37.304  37.328  1.00  0.00    -0.004 C 
HETATM    2  C3  UNL     1      13.892  36.600  36.281  1.00  0.00    -0.028 C 
ENDROOT
BRANCH   2   3
HETATM    3  C4  UNL     1      13.001  35.428  36.474  1.00  0.00     0.044 C 
BRANCH   3   4
HETATM    4  C5  UNL     1      12.503  35.008  35.102  1.00  0.00     0.074 C 
HETATM    5  C6  UNL     1      12.494  36.218  34.223  1.00  0.00     0.183 C 
HETATM    6  O1  UNL     1      11.675  36.106  33.115  1.00  0.00    -0.389 OA
HETATM    7  C7  UNL     1      10.332  36.132  33.417  1.00  0.00     0.177 C 
HETATM    8  C8  UNL     1       9.930  34.690  33.749  1.00  0.00     0.100 C 
HETATM    9  S1  UNL     1      10.823  34.310  35.306  1.00  0.00    -0.160 SA
ENDBRANCH   3   4
ENDBRANCH   2   3
BRANCH   1  10
HETATM   10  C1  UNL     1      15.154  38.497  37.157  1.00  0.00     0.256 C 
BRANCH  10  11
HETATM   11  N1  UNL     1      14.797  39.100  35.887  1.00  0.00    -0.076 N 
ATOM     12  H13 UNL     1      15.603  39.430  35.356  1.00  0.00     0.274 HD
ATOM     13  H12 UNL     1      14.462  38.426  35.199  1.00  0.00     0.274 HD
ATOM     14  H11 UNL     1      14.121  39.834  36.097  1.00  0.00     0.274 HD
ENDBRANCH  10  11
ENDBRANCH   1  10
TORSDOF 4
ENDMDL
MODEL 4
REMARK VINA RESULT: -4.546821455      3.000      5.114
REMARK  4 active torsions:
REMARK  status: ('A' for Active; 'I' for Inactive)
REMARK    1  A    between atoms: N1_1  and  C1_5 
REMARK    2  A    between atoms: C1_5  and  C2_6 
REMARK    3  A    between atoms: C3_7  and  C4_8 
REMARK    4  A    between atoms: C4_8  and  C5_9 
ROOT
HETATM    1  C2  UNL     1      10.753  35.455  33.768  1.00  0.00    -0.004 C 
HETATM    2  C3  UNL     1      11.846  35.706  34.447  1.00  0.00    -0.028 C 
ENDROOT
BRANCH   2   3
HETATM    3  C4  UNL     1      12.089  34.972  35.715  1.00  0.00     0.044 C 
BRANCH   3   4
HETATM    4  C5  UNL     1      13.430  35.436  36.256  1.00  0.00     0.074 C 
HETATM    5  C6  UNL     1      13.300  35.601  37.737  1.00  0.00     0.183 C 
HETATM    6  O1  UNL     1      14.261  36.417  38.302  1.00  0.00    -0.389 OA
HETATM    7  C7  UNL     1      14.106  37.749  37.991  1.00  0.00     0.177 C 
HETATM    8  C8  UNL     1      14.826  37.974  36.658  1.00  0.00     0.100 C 
HETATM    9  S1  UNL     1      13.845  37.020  35.437  1.00  0.00    -0.160 SA
ENDBRANCH   3   4
ENDBRANCH   2   3
BRANCH   1  10
HETATM   10  C1  UNL     1      10.486  36.189  32.479  1.00  0.00     0.256 C 
BRANCH  10  11
HETATM   11  N1  UNL     1      11.384  37.327  32.464  1.00  0.00    -0.076 N 
ATOM     12  H13 UNL     1      11.270  37.943  33.268  1.00  0.00     0.274 HD
ATOM     13  H12 UNL     1      12.357  37.077  32.634  1.00  0.00     0.274 HD
ATOM     14  H11 UNL     1      11.237  37.796  31.570  1.00  0.00     0.274 HD
ENDBRANCH  10  11
ENDBRANCH   1  10
TORSDOF 4
ENDMDL
MODEL 5
REMARK VINA RESULT: -4.474535507      3.408      5.690
REMARK  4 active torsions:
REMARK  status: ('A' for Active; 'I' for Inactive)
REMARK    1  A    between atoms: N1_1  and  C1_5 
REMARK    2  A    between atoms: C1_5  and  C2_6 
REMARK    3  A    between atoms: C3_7  and  C4_8 
REMARK    4  A    between atoms: C4_8  and  C5_9 
ROOT
HETATM    1  C2  UNL     1      11.209  35.670  33.955  1.00  0.00    -0.004 C 
HETATM    2  C3  UNL     1      12.356  36.196  34.313  1.00  0.00    -0.028 C 
ENDROOT
BRANCH   2   3
HETATM    3  C4  UNL     1      13.074  35.626  35.481  1.00  0.00     0.044 C 
BRANCH   3   4
HETATM    4  C5  UNL     1      14.399  36.359  35.596  1.00  0.00     0.074 C 
HETATM    5  C6  UNL     1      15.483  35.337  35.735  1.00  0.00     0.183 C 
HETATM    6  O1  UNL     1      16.655  35.825  36.281  1.00  0.00    -0.389 OA
HETATM    7  C7  UNL     1      16.558  36.121  37.622  1.00  0.00     0.177 C 
HETATM    8  C8  UNL     1      16.021  37.553  37.717  1.00  0.00     0.100 C 
HETATM    9  S1  UNL     1      14.310  37.449  37.065  1.00  0.00    -0.160 SA
ENDBRANCH   3   4
ENDBRANCH   2   3
BRANCH   1  10
HETATM   10  C1  UNL     1      10.462  36.232  32.773  1.00  0.00     0.256 C 
BRANCH  10  11
HETATM   11  N1  UNL     1      11.234  37.366  32.304  1.00  0.00    -0.076 N 
ATOM     12  H13 UNL     1      10.702  37.998  31.706  1.00  0.00     0.274 HD
ATOM     13  H12 UNL     1      11.450  38.040  33.038  1.00  0.00     0.274 HD
ATOM     14  H11 UNL     1      12.064  36.982  31.851  1.00  0.00     0.274 HD
ENDBRANCH  10  11
ENDBRANCH   1  10
TORSDOF 4
ENDMDL
