MODEL 1
REMARK VINA RESULT: -3.827974574      0.000      0.000
REMARK  3 active torsions:
REMARK  status: ('A' for Active; 'I' for Inactive)
REMARK    1  A    between atoms: O1_2  and  C2_3 
REMARK    2  A    between atoms: C2_3  and  C3_4 
REMARK    3  A    between atoms: C3_4  and  C4_5 
ROOT
HETATM    1  C3  UNL     1      14.390  36.658  37.560  1.00  0.00     0.022 C 
HETATM    2  C5  UNL     1      13.823  35.776  38.608  1.00  0.00     0.019 C 
HETATM    3  C6  UNL     1      14.671  35.833  39.846  1.00  0.00     0.021 C 
HETATM    4  C7  UNL     1      16.065  35.345  39.513  1.00  0.00     0.121 C 
HETATM    5  N1  UNL     1      16.635  36.134  38.472  1.00  0.00    -0.397 N 
HETATM    6  C8  UNL     1      17.570  37.112  38.835  1.00  0.00     0.148 C 
HETATM    7  C9  UNL     1      15.844  36.343  37.333  1.00  0.00     0.070 C 
ENDROOT
BRANCH   1   8
HETATM    8  C2  UNL     1      13.752  36.368  36.182  1.00  0.00     0.182 C 
BRANCH   8   9
HETATM    9  O1  UNL     1      12.908  35.292  36.412  1.00  0.00    -0.395 OA
HETATM   10  C1  UNL     1      12.342  34.783  35.255  1.00  0.00     0.201 C 
ENDBRANCH   8   9
ENDBRANCH   1   8
BRANCH   1  11
HETATM   11  C4  UNL     1      14.176  38.100  37.900  1.00  0.00     0.103 C 
HETATM   12  S1  UNL     1      14.997  39.246  36.785  1.00  0.00    -0.096 SA
ENDBRANCH   1  11
TORSDOF 3
ENDMDL
MODEL 2
REMARK VINA RESULT: -3.800571550      2.001      2.704
REMARK  3 active torsions:
REMARK  status: ('A' for Active; 'I' for Inactive)
REMARK    1  A    between atoms: O1_2  and  C2_3 
REMARK    2  A    between atoms: C2_3  and  C3_4 
REMARK    3  A    between atoms: C3_4  and  C4_5 
ROOT
HETATM    1  C3  UNL     1      15.502  36.582  37.081  1.00  0.00     0.022 C 
HETATM    2  C5  UNL     1      16.203  35.666  36.151  1.00  0.00     0.019 C 
HETATM    3  C6  UNL     1      17.601  35.405  36.636  1.00  0.00     0.021 C 
HETATM    4  C7  UNL     1      18.361  36.713  36.683  1.00  0.00     0.121 C 
HETATM    5  N1  UNL     1      17.696  37.647  37.530  1.00  0.00    -0.397 N 
HETATM    6  C8  UNL     1      18.214  37.840  38.818  1.00  0.00     0.148 C 
HETATM    7  C9  UNL     1      16.320  37.823  37.320  1.00  0.00     0.070 C 
ENDROOT
BRANCH   1   8
HETATM    8  C2  UNL     1      14.206  37.136  36.448  1.00  0.00     0.182 C 
BRANCH   8   9
HETATM    9  O1  UNL     1      14.148  36.534  35.199  1.00  0.00    -0.395 OA
HETATM   10  C1  UNL     1      12.854  36.292  34.769  1.00  0.00     0.201 C 
ENDBRANCH   8   9
ENDBRANCH   1   8
BRANCH   1  11
HETATM   11  C4  UNL     1      15.157  35.884  38.360  1.00  0.00     0.103 C 
HETATM   12  S1  UNL     1      13.392  35.748  38.668  1.00  0.00    -0.096 SA
ENDBRANCH   1  11
TORSDOF 3
ENDMDL
MODEL 3
REMARK VINA RESULT: -3.799913335      3.309      4.988
REMARK  3 active torsions:
REMARK  status: ('A' for Active; 'I' for Inactive)
REMARK    1  A    between atoms: O1_2  and  C2_3 
REMARK    2  A    between atoms: C2_3  and  C3_4 
REMARK    3  A    between atoms: C3_4  and  C4_5 
ROOT
HETATM    1  C3  UNL     1      13.417  36.359  35.733  1.00  0.00     0.022 C 
HETATM    2  C5  UNL     1      12.706  35.194  36.311  1.00  0.00     0.019 C 
HETATM    3  C6  UNL     1      11.985  34.440  35.230  1.00  0.00     0.021 C 
HETATM    4  C7  UNL     1      10.963  35.354  34.587  1.00  0.00     0.121 C 
HETATM    5  N1  UNL     1      11.595  36.516  34.059  1.00  0.00    -0.397 N 
HETATM    6  C8  UNL     1      11.817  36.564  32.676  1.00  0.00     0.148 C 
HETATM    7  C9  UNL     1      12.477  37.198  34.910  1.00  0.00     0.070 C 
ENDROOT
BRANCH   1   8
HETATM    8  C2  UNL     1      13.878  37.335  36.839  1.00  0.00     0.182 C 
BRANCH   8   9
HETATM    9  O1  UNL     1      13.898  38.575  36.218  1.00  0.00    -0.395 OA
HETATM   10  C1  UNL     1      14.940  39.382  36.641  1.00  0.00     0.201 C 
ENDBRANCH   8   9
ENDBRANCH   1   8
BRANCH   1  11
HETATM   11  C4  UNL     1      14.612  35.919  34.945  1.00  0.00     0.103 C 
HETATM   12  S1  UNL     1      16.052  35.535  35.950  1.00  0.00    -0.096 SA
ENDBRANCH   1  11
TORSDOF 3
ENDMDL
MODEL 4
REMARK VINA RESULT: -3.749360225      2.051      2.921
REMARK  3 active torsions:
REMARK  status: ('A' for Active; 'I' for Inactive)
REMARK    1  A    between atoms: O1_2  and  C2_3 
REMARK    2  A    between atoms: C2_3  and  C3_4 
REMARK    3  A    between atoms: C3_4  and  C4_5 
ROOT
HETATM    1  C3  UNL     1      14.928  36.262  38.177  1.00  0.00     0.022 C 
HETATM    2  C5  UNL     1      13.583  35.669  37.986  1.00  0.00     0.019 C 
HETATM    3  C6  UNL     1      12.840  35.641  39.291  1.00  0.00     0.021 C 
HETATM    4  C7  UNL     1      13.605  34.784  40.277  1.00  0.00     0.121 C 
HETATM    5  N1  UNL     1      14.926  35.287  40.457  1.00  0.00    -0.397 N 
HETATM    6  C8  UNL     1      15.187  36.029  41.617  1.00  0.00     0.148 C 
HETATM    7  C9  UNL     1      15.659  35.566  39.295  1.00  0.00     0.070 C 
ENDROOT
BRANCH   1   8
HETATM    8  C2  UNL     1      15.833  35.997  36.953  1.00  0.00     0.182 C 
BRANCH   8   9
HETATM    9  O1  UNL     1      17.105  35.851  37.488  1.00  0.00    -0.395 OA
HETATM   10  C1  UNL     1      18.097  36.413  36.703  1.00  0.00     0.201 C 
ENDBRANCH   8   9
ENDBRANCH   1   8
BRANCH   1  11
HETATM   11  C4  UNL     1      14.835  37.739  38.403  1.00  0.00     0.103 C 
HETATM   12  S1  UNL     1      14.240  38.661  36.980  1.00  0.00    -0.096 SA
ENDBRANCH   1  11
TORSDOF 3
ENDMDL
MODEL 5
REMARK VINA RESULT: -3.708109294      2.042      3.060
REMARK  3 active torsions:
REMARK  status: ('A' for Active; 'I' for Inactive)
REMARK    1  A    between atoms: O1_2  and  C2_3 
REMARK    2  A    between atoms: C2_3  and  C3_4 
REMARK    3  A    between atoms: C3_4  and  C4_5 
ROOT
HETATM    1  C3  UNL     1      14.487  36.594  37.502  1.00  0.00     0.022 C 
HETATM    2  C5  UNL     1      14.388  38.041  37.808  1.00  0.00     0.019 C 
HETATM    3  C6  UNL     1      15.589  38.767  37.271  1.00  0.00     0.021 C 
HETATM    4  C7  UNL     1      16.835  38.220  37.936  1.00  0.00     0.121 C 
HETATM    5  N1  UNL     1      16.947  36.818  37.710  1.00  0.00    -0.397 N 
HETATM    6  C8  UNL     1      17.850  36.388  36.728  1.00  0.00     0.148 C 
HETATM    7  C9  UNL     1      15.807  36.043  37.969  1.00  0.00     0.070 C 
ENDROOT
BRANCH   1   8
HETATM    8  C2  UNL     1      13.461  35.780  38.321  1.00  0.00     0.182 C 
BRANCH   8   9
HETATM    9  O1  UNL     1      14.137  35.444  39.485  1.00  0.00    -0.395 OA
HETATM   10  C1  UNL     1      13.312  34.913  40.463  1.00  0.00     0.201 C 
ENDBRANCH   8   9
ENDBRANCH   1   8
BRANCH   1  11
HETATM   11  C4  UNL     1      14.257  36.339  36.044  1.00  0.00     0.103 C 
HETATM   12  S1  UNL     1      12.852  35.273  35.700  1.00  0.00    -0.096 SA
ENDBRANCH   1  11
TORSDOF 3
ENDMDL
