MODEL 1
REMARK VINA RESULT: -5.510904320      0.000      0.000
REMARK  3 active torsions:
REMARK  status: ('A' for Active; 'I' for Inactive)
REMARK    1  A    between atoms: O1_2  and  C2_3 
REMARK    2  A    between atoms: C5_9  and  C6_10 
REMARK    3  A    between atoms: C7_11  and  C8_12 
ROOT
HETATM    1  C2  UNL     1      14.744  36.542  37.477  1.00  0.00     0.194 C 
HETATM    2  C3  UNL     1      16.251  36.652  37.477  1.00  0.00     0.118 C 
HETATM    3  N1  UNL     1      17.034  37.330  38.452  1.00  0.00    -0.085 NA
HETATM    4  N2  UNL     1      16.746  36.043  36.467  1.00  0.00    -0.379 N 
ATOM      5  H2  UNL     1      17.745  35.988  36.268  1.00  0.00     0.160 HD
HETATM    6  C4  UNL     1      15.737  35.447  35.647  1.00  0.00     0.132 C 
HETATM    7  C5  UNL     1      14.445  36.121  36.092  1.00  0.00     0.061 C 
ENDROOT
BRANCH   7   8
HETATM    8  C6  UNL     1      13.295  35.240  35.884  1.00  0.00    -0.021 C 
HETATM    9  C7  UNL     1      12.387  35.361  34.958  1.00  0.00    -0.026 C 
BRANCH   9  10
HETATM   10  C8  UNL     1      11.232  34.439  34.782  1.00  0.00    -0.001 C 
HETATM   11  C9  UNL     1      10.481  34.221  36.077  1.00  0.00     0.013 C 
HETATM   12  C10 UNL     1      10.319  35.047  33.738  1.00  0.00     0.013 C 
ENDBRANCH   9  10
ENDBRANCH   7   8
BRANCH   1  13
HETATM   13  O1  UNL     1      14.195  37.805  37.723  1.00  0.00    -0.383 OA
HETATM   14  C1  UNL     1      14.191  38.651  36.647  1.00  0.00     0.202 C 
ENDBRANCH   1  13
TORSDOF 3
ENDMDL
MODEL 2
REMARK VINA RESULT: -5.484858099      3.488      5.623
REMARK  3 active torsions:
REMARK  status: ('A' for Active; 'I' for Inactive)
REMARK    1  A    between atoms: O1_2  and  C2_3 
REMARK    2  A    between atoms: C5_9  and  C6_10 
REMARK    3  A    between atoms: C7_11  and  C8_12 
ROOT
HETATM    1  C2  UNL     1      11.585  35.795  33.829  1.00  0.00     0.194 C 
HETATM    2  C3  UNL     1      10.386  34.888  33.982  1.00  0.00     0.118 C 
HETATM    3  N1  UNL     1       9.349  34.712  33.024  1.00  0.00    -0.085 NA
HETATM    4  N2  UNL     1      10.422  34.283  35.110  1.00  0.00    -0.379 N 
ATOM      5  H2  UNL     1       9.712  33.620  35.423  1.00  0.00     0.160 HD
HETATM    6  C4  UNL     1      11.572  34.642  35.879  1.00  0.00     0.132 C 
HETATM    7  C5  UNL     1      12.088  35.911  35.213  1.00  0.00     0.061 C 
ENDROOT
BRANCH   7   8
HETATM    8  C6  UNL     1      13.534  36.050  35.400  1.00  0.00    -0.021 C 
HETATM    9  C7  UNL     1      14.170  36.039  36.536  1.00  0.00    -0.026 C 
BRANCH   9  10
HETATM   10  C8  UNL     1      15.645  36.184  36.679  1.00  0.00    -0.001 C 
HETATM   11  C9  UNL     1      16.105  35.903  38.093  1.00  0.00     0.013 C 
HETATM   12  C10 UNL     1      16.294  35.216  35.711  1.00  0.00     0.013 C 
ENDBRANCH   9  10
ENDBRANCH   7   8
BRANCH   1  13
HETATM   13  O1  UNL     1      11.155  37.044  33.369  1.00  0.00    -0.383 OA
HETATM   14  C1  UNL     1      11.180  37.197  32.009  1.00  0.00     0.202 C 
ENDBRANCH   1  13
TORSDOF 3
ENDMDL
MODEL 3
REMARK VINA RESULT: -5.471635550      3.606      5.764
REMARK  3 active torsions:
REMARK  status: ('A' for Active; 'I' for Inactive)
REMARK    1  A    between atoms: O1_2  and  C2_3 
REMARK    2  A    between atoms: C5_9  and  C6_10 
REMARK    3  A    between atoms: C7_11  and  C8_12 
ROOT
HETATM    1  C2  UNL     1      11.312  35.580  33.826  1.00  0.00     0.194 C 
HETATM    2  C3  UNL     1      10.055  34.746  33.908  1.00  0.00     0.118 C 
HETATM    3  N1  UNL     1       9.062  34.636  32.895  1.00  0.00    -0.085 NA
HETATM    4  N2  UNL     1       9.995  34.134  35.031  1.00  0.00    -0.379 N 
ATOM      5  H2  UNL     1       9.232  33.513  35.300  1.00  0.00     0.160 HD
HETATM    6  C4  UNL     1      11.122  34.420  35.863  1.00  0.00     0.132 C 
HETATM    7  C5  UNL     1      11.747  35.659  35.235  1.00  0.00     0.061 C 
ENDROOT
BRANCH   7   8
HETATM    8  C6  UNL     1      13.186  35.711  35.500  1.00  0.00    -0.021 C 
HETATM    9  C7  UNL     1      13.754  35.809  36.668  1.00  0.00    -0.026 C 
BRANCH   9  10
HETATM   10  C8  UNL     1      15.225  35.858  36.890  1.00  0.00    -0.001 C 
HETATM   11  C9  UNL     1      15.994  35.346  35.693  1.00  0.00     0.013 C 
HETATM   12  C10 UNL     1      15.594  37.299  37.178  1.00  0.00     0.013 C 
ENDBRANCH   9  10
ENDBRANCH   7   8
BRANCH   1  13
HETATM   13  O1  UNL     1      10.982  36.855  33.354  1.00  0.00    -0.383 OA
HETATM   14  C1  UNL     1      11.203  37.049  32.017  1.00  0.00     0.202 C 
ENDBRANCH   1  13
TORSDOF 3
ENDMDL
MODEL 4
REMARK VINA RESULT: -5.451076518      2.912      4.975
REMARK  3 active torsions:
REMARK  status: ('A' for Active; 'I' for Inactive)
REMARK    1  A    between atoms: O1_2  and  C2_3 
REMARK    2  A    between atoms: C5_9  and  C6_10 
REMARK    3  A    between atoms: C7_11  and  C8_12 
ROOT
HETATM    1  C2  UNL     1      12.227  35.784  35.191  1.00  0.00     0.194 C 
HETATM    2  C3  UNL     1      12.649  36.547  33.957  1.00  0.00     0.118 C 
HETATM    3  N1  UNL     1      11.845  36.779  32.806  1.00  0.00    -0.085 NA
HETATM    4  N2  UNL     1      13.851  36.971  34.081  1.00  0.00    -0.379 N 
ATOM      5  H2  UNL     1      14.340  37.512  33.368  1.00  0.00     0.160 HD
HETATM    6  C4  UNL     1      14.428  36.599  35.335  1.00  0.00     0.132 C 
HETATM    7  C5  UNL     1      13.513  35.499  35.858  1.00  0.00     0.061 C 
ENDROOT
BRANCH   7   8
HETATM    8  C6  UNL     1      13.524  35.460  37.322  1.00  0.00    -0.021 C 
HETATM    9  C7  UNL     1      14.445  35.953  38.101  1.00  0.00    -0.026 C 
BRANCH   9  10
HETATM   10  C8  UNL     1      14.415  35.890  39.587  1.00  0.00    -0.001 C 
HETATM   11  C9  UNL     1      13.283  35.023  40.094  1.00  0.00     0.013 C 
HETATM   12  C10 UNL     1      15.749  35.340  40.047  1.00  0.00     0.013 C 
ENDBRANCH   9  10
ENDBRANCH   7   8
BRANCH   1  13
HETATM   13  O1  UNL     1      11.615  34.588  34.799  1.00  0.00    -0.383 OA
HETATM   14  C1  UNL     1      10.519  34.234  35.538  1.00  0.00     0.202 C 
ENDBRANCH   1  13
TORSDOF 3
ENDMDL
MODEL 5
REMARK VINA RESULT: -5.269760876      3.155      5.256
REMARK  3 active torsions:
REMARK  status: ('A' for Active; 'I' for Inactive)
REMARK    1  A    between atoms: O1_2  and  C2_3 
REMARK    2  A    between atoms: C5_9  and  C6_10 
REMARK    3  A    between atoms: C7_11  and  C8_12 
ROOT
HETATM    1  C2  UNL     1      11.589  35.619  34.921  1.00  0.00     0.194 C 
HETATM    2  C3  UNL     1      11.656  36.325  33.587  1.00  0.00     0.118 C 
HETATM    3  N1  UNL     1      10.585  36.456  32.660  1.00  0.00    -0.085 NA
HETATM    4  N2  UNL     1      12.827  36.806  33.393  1.00  0.00    -0.379 N 
ATOM      5  H2  UNL     1      13.097  37.325  32.557  1.00  0.00     0.160 HD
HETATM    6  C4  UNL     1      13.711  36.533  34.483  1.00  0.00     0.132 C 
HETATM    7  C5  UNL     1      13.013  35.428  35.264  1.00  0.00     0.061 C 
ENDROOT
BRANCH   7   8
HETATM    8  C6  UNL     1      13.381  35.474  36.681  1.00  0.00    -0.021 C 
HETATM    9  C7  UNL     1      14.483  35.960  37.176  1.00  0.00    -0.026 C 
BRANCH   9  10
HETATM   10  C8  UNL     1      14.817  35.987  38.626  1.00  0.00    -0.001 C 
HETATM   11  C9  UNL     1      15.254  37.363  39.080  1.00  0.00     0.013 C 
HETATM   12  C10 UNL     1      13.582  35.549  39.386  1.00  0.00     0.013 C 
ENDBRANCH   9  10
ENDBRANCH   7   8
BRANCH   1  13
HETATM   13  O1  UNL     1      10.967  34.377  34.747  1.00  0.00    -0.383 OA
HETATM   14  C1  UNL     1      10.249  33.937  35.826  1.00  0.00     0.202 C 
ENDBRANCH   1  13
TORSDOF 3
ENDMDL
