MODEL 1
REMARK VINA RESULT: -4.692693545      0.000      0.000
REMARK  3 active torsions:
REMARK  status: ('A' for Active; 'I' for Inactive)
REMARK    1  A    between atoms: C1_2  and  C2_3 
REMARK    2  A    between atoms: C2_3  and  N1_4 
REMARK    3  A    between atoms: N1_4  and  C3_7 
ROOT
HETATM    1  C3  UNL     1      11.297  35.252  33.732  1.00  0.00     0.279 C 
HETATM    2  C4  UNL     1       9.915  34.962  33.250  1.00  0.00     0.054 C 
HETATM    3  C5  UNL     1      10.050  34.780  31.740  1.00  0.00     0.005 C 
HETATM    4  C6  UNL     1      10.554  36.072  31.171  1.00  0.00     0.019 C 
HETATM    5  C7  UNL     1      10.936  37.099  32.188  1.00  0.00     0.115 C 
HETATM    6  N2  UNL     1      11.627  36.615  33.323  1.00  0.00    -0.396 N 
ATOM      7  H2  UNL     1      12.311  37.182  33.824  1.00  0.00     0.155 HD
ENDROOT
BRANCH   1   8
HETATM    8  N1  UNL     1      11.477  35.201  35.162  1.00  0.00    -0.054 N 
ATOM      9  H12 UNL     1      10.835  34.562  35.628  1.00  0.00     0.279 HD
ATOM     10  H11 UNL     1      11.176  36.052  35.638  1.00  0.00     0.279 HD
BRANCH   8  11
HETATM   11  C2  UNL     1      12.874  34.879  35.388  1.00  0.00     0.245 C 
BRANCH  11  12
HETATM   12  C1  UNL     1      13.396  35.580  36.620  1.00  0.00     0.113 C 
HETATM   13  S1  UNL     1      14.125  37.150  36.128  1.00  0.00    -0.096 SA
ENDBRANCH  11  12
ENDBRANCH   8  11
ENDBRANCH   1   8
TORSDOF 3
ENDMDL
MODEL 2
REMARK VINA RESULT: -4.684915449      1.350      1.498
REMARK  3 active torsions:
REMARK  status: ('A' for Active; 'I' for Inactive)
REMARK    1  A    between atoms: C1_2  and  C2_3 
REMARK    2  A    between atoms: C2_3  and  N1_4 
REMARK    3  A    between atoms: N1_4  and  C3_7 
ROOT
HETATM    1  C3  UNL     1      12.079  36.277  33.710  1.00  0.00     0.279 C 
HETATM    2  C4  UNL     1      10.787  35.651  34.120  1.00  0.00     0.054 C 
HETATM    3  C5  UNL     1      10.496  34.601  33.050  1.00  0.00     0.005 C 
HETATM    4  C6  UNL     1      10.352  35.315  31.741  1.00  0.00     0.019 C 
HETATM    5  C7  UNL     1      10.678  36.774  31.782  1.00  0.00     0.115 C 
HETATM    6  N2  UNL     1      11.805  37.131  32.557  1.00  0.00    -0.396 N 
ATOM      7  H2  UNL     1      12.390  37.935  32.326  1.00  0.00     0.155 HD
ENDROOT
BRANCH   1   8
HETATM    8  N1  UNL     1      12.701  37.118  34.702  1.00  0.00    -0.054 N 
ATOM      9  H12 UNL     1      12.080  37.364  35.472  1.00  0.00     0.279 HD
ATOM     10  H11 UNL     1      12.878  38.067  34.375  1.00  0.00     0.279 HD
BRANCH   8  11
HETATM   11  C2  UNL     1      13.902  36.425  35.132  1.00  0.00     0.245 C 
BRANCH  11  12
HETATM   12  C1  UNL     1      14.412  36.990  36.436  1.00  0.00     0.113 C 
HETATM   13  S1  UNL     1      14.138  38.769  36.443  1.00  0.00    -0.096 SA
ENDBRANCH  11  12
ENDBRANCH   8  11
ENDBRANCH   1   8
TORSDOF 3
ENDMDL
MODEL 3
REMARK VINA RESULT: -4.681027703      2.028      3.090
REMARK  3 active torsions:
REMARK  status: ('A' for Active; 'I' for Inactive)
REMARK    1  A    between atoms: C1_2  and  C2_3 
REMARK    2  A    between atoms: C2_3  and  N1_4 
REMARK    3  A    between atoms: N1_4  and  C3_7 
ROOT
HETATM    1  C3  UNL     1      13.324  36.421  34.656  1.00  0.00     0.279 C 
HETATM    2  C4  UNL     1      12.771  35.560  35.743  1.00  0.00     0.054 C 
HETATM    3  C5  UNL     1      12.333  34.273  35.048  1.00  0.00     0.005 C 
HETATM    4  C6  UNL     1      11.267  34.633  34.058  1.00  0.00     0.019 C 
HETATM    5  C7  UNL     1      11.035  36.100  33.891  1.00  0.00     0.115 C 
HETATM    6  N2  UNL     1      12.195  36.909  33.868  1.00  0.00    -0.396 N 
ATOM      7  H2  UNL     1      12.241  37.777  33.334  1.00  0.00     0.155 HD
ENDROOT
BRANCH   1   8
HETATM    8  N1  UNL     1      14.047  37.587  35.098  1.00  0.00    -0.054 N 
ATOM      9  H12 UNL     1      13.595  38.465  34.843  1.00  0.00     0.279 HD
ATOM     10  H11 UNL     1      14.917  37.741  34.587  1.00  0.00     0.279 HD
BRANCH   8  11
HETATM   11  C2  UNL     1      14.239  37.433  36.528  1.00  0.00     0.245 C 
BRANCH  11  12
HETATM   12  C1  UNL     1      14.116  38.763  37.234  1.00  0.00     0.113 C 
HETATM   13  S1  UNL     1      15.642  39.689  36.994  1.00  0.00    -0.096 SA
ENDBRANCH  11  12
ENDBRANCH   8  11
ENDBRANCH   1   8
TORSDOF 3
ENDMDL
MODEL 4
REMARK VINA RESULT: -4.580181723      2.542      4.683
REMARK  3 active torsions:
REMARK  status: ('A' for Active; 'I' for Inactive)
REMARK    1  A    between atoms: C1_2  and  C2_3 
REMARK    2  A    between atoms: C2_3  and  N1_4 
REMARK    3  A    between atoms: N1_4  and  C3_7 
ROOT
HETATM    1  C3  UNL     1      12.606  36.612  34.497  1.00  0.00     0.279 C 
HETATM    2  C4  UNL     1      12.420  35.181  34.879  1.00  0.00     0.054 C 
HETATM    3  C5  UNL     1      12.551  35.155  36.401  1.00  0.00     0.005 C 
HETATM    4  C6  UNL     1      13.931  35.625  36.745  1.00  0.00     0.019 C 
HETATM    5  C7  UNL     1      14.729  36.133  35.588  1.00  0.00     0.115 C 
HETATM    6  N2  UNL     1      14.024  36.927  34.654  1.00  0.00    -0.396 N 
ATOM      7  H2  UNL     1      14.476  37.672  34.125  1.00  0.00     0.155 HD
ENDROOT
BRANCH   1   8
HETATM    8  N1  UNL     1      12.265  36.938  33.135  1.00  0.00    -0.054 N 
ATOM      9  H12 UNL     1      12.887  36.513  32.448  1.00  0.00     0.279 HD
ATOM     10  H11 UNL     1      12.456  37.910  32.892  1.00  0.00     0.279 HD
BRANCH   8  11
HETATM   11  C2  UNL     1      10.873  36.564  32.960  1.00  0.00     0.245 C 
BRANCH  11  12
HETATM   12  C1  UNL     1      10.572  36.274  31.509  1.00  0.00     0.113 C 
HETATM   13  S1  UNL     1      10.105  34.542  31.351  1.00  0.00    -0.096 SA
ENDBRANCH  11  12
ENDBRANCH   8  11
ENDBRANCH   1   8
TORSDOF 3
ENDMDL
MODEL 5
REMARK VINA RESULT: -4.547550950      1.933      3.009
REMARK  3 active torsions:
REMARK  status: ('A' for Active; 'I' for Inactive)
REMARK    1  A    between atoms: C1_2  and  C2_3 
REMARK    2  A    between atoms: C2_3  and  N1_4 
REMARK    3  A    between atoms: N1_4  and  C3_7 
ROOT
HETATM    1  C3  UNL     1      13.345  36.385  34.683  1.00  0.00     0.279 C 
HETATM    2  C4  UNL     1      12.759  35.508  35.740  1.00  0.00     0.054 C 
HETATM    3  C5  UNL     1      12.304  34.250  35.004  1.00  0.00     0.005 C 
HETATM    4  C6  UNL     1      11.260  34.658  34.010  1.00  0.00     0.019 C 
HETATM    5  C7  UNL     1      11.062  36.134  33.878  1.00  0.00     0.115 C 
HETATM    6  N2  UNL     1      12.239  36.918  33.892  1.00  0.00    -0.396 N 
ATOM      7  H2  UNL     1      12.311  37.798  33.382  1.00  0.00     0.155 HD
ENDROOT
BRANCH   1   8
HETATM    8  N1  UNL     1      14.087  37.524  35.165  1.00  0.00    -0.054 N 
ATOM      9  H12 UNL     1      13.704  38.417  34.856  1.00  0.00     0.279 HD
ATOM     10  H11 UNL     1      15.004  37.623  34.731  1.00  0.00     0.279 HD
BRANCH   8  11
HETATM   11  C2  UNL     1      14.145  37.393  36.610  1.00  0.00     0.245 C 
BRANCH  11  12
HETATM   12  C1  UNL     1      15.538  37.677  37.120  1.00  0.00     0.113 C 
HETATM   13  S1  UNL     1      16.488  36.148  37.093  1.00  0.00    -0.096 SA
ENDBRANCH  11  12
ENDBRANCH   8  11
ENDBRANCH   1   8
TORSDOF 3
ENDMDL
