MODEL 1
REMARK VINA RESULT: -4.836054467      0.000      0.000
REMARK  4 active torsions:
REMARK  status: ('A' for Active; 'I' for Inactive)
REMARK    1  A    between atoms: C2_2  and  C4_4 
REMARK    2  A    between atoms: C4_4  and  C5_5 
REMARK    3  A    between atoms: C5_5  and  N1_6 
REMARK    4  A    between atoms: C9_15  and  N3_16 
ROOT
HETATM    1  C5  UNL     1      14.574  36.267  36.525  1.00  0.00     0.158 C 
HETATM    2  C6  UNL     1      13.800  36.679  37.737  1.00  0.00     0.061 C 
HETATM    3  C7  UNL     1      14.459  37.989  38.215  1.00  0.00     0.121 C 
HETATM    4  N2  UNL     1      15.865  37.931  38.227  1.00  0.00    -0.400 N 
ATOM      5  H2  UNL     1      16.420  38.775  38.364  1.00  0.00     0.158 HD
HETATM    6  C8  UNL     1      16.485  36.685  38.047  1.00  0.00     0.090 C 
HETATM    7  C9  UNL     1      15.935  35.807  36.986  1.00  0.00     0.257 C 
ENDROOT
BRANCH   1   8
HETATM    8  C4  UNL     1      13.912  35.348  35.587  1.00  0.00     0.045 C 
BRANCH   8   9
HETATM    9  C2  UNL     1      12.458  35.463  35.369  1.00  0.00    -0.020 C 
HETATM   10  C1  UNL     1      11.979  34.058  34.942  1.00  0.00     0.009 C 
HETATM   11  C3  UNL     1      12.080  36.368  34.240  1.00  0.00     0.009 C 
ENDBRANCH   8   9
ENDBRANCH   1   8
BRANCH   1  12
HETATM   12  N1  UNL     1      14.801  37.529  35.783  1.00  0.00    -0.068 N 
ATOM     13  H13 UNL     1      15.417  38.180  36.270  1.00  0.00     0.275 HD
ATOM     14  H12 UNL     1      15.378  37.410  34.950  1.00  0.00     0.275 HD
ATOM     15  H11 UNL     1      13.878  37.916  35.585  1.00  0.00     0.275 HD
ENDBRANCH   1  12
BRANCH   7  16
HETATM   16  N3  UNL     1      16.800  35.661  35.831  1.00  0.00    -0.068 N 
ATOM     17  H33 UNL     1      16.715  36.442  35.181  1.00  0.00     0.275 HD
ATOM     18  H32 UNL     1      17.785  35.778  36.066  1.00  0.00     0.275 HD
ATOM     19  H31 UNL     1      16.611  34.764  35.385  1.00  0.00     0.275 HD
ENDBRANCH   7  16
TORSDOF 4
ENDMDL
MODEL 2
REMARK VINA RESULT: -4.693432830      2.118      3.061
REMARK  4 active torsions:
REMARK  status: ('A' for Active; 'I' for Inactive)
REMARK    1  A    between atoms: C2_2  and  C4_4 
REMARK    2  A    between atoms: C4_4  and  C5_5 
REMARK    3  A    between atoms: C5_5  and  N1_6 
REMARK    4  A    between atoms: C9_15  and  N3_16 
ROOT
HETATM    1  C5  UNL     1      16.230  38.233  37.623  1.00  0.00     0.158 C 
HETATM    2  C6  UNL     1      15.750  39.068  38.768  1.00  0.00     0.061 C 
HETATM    3  C7  UNL     1      15.916  40.529  38.303  1.00  0.00     0.121 C 
HETATM    4  N2  UNL     1      17.155  40.777  37.682  1.00  0.00    -0.400 N 
ATOM      5  H2  UNL     1      17.324  41.652  37.187  1.00  0.00     0.158 HD
HETATM    6  C8  UNL     1      18.151  39.792  37.759  1.00  0.00     0.090 C 
HETATM    7  C9  UNL     1      17.728  38.387  37.540  1.00  0.00     0.257 C 
ENDROOT
BRANCH   1   8
HETATM    8  C4  UNL     1      15.764  36.838  37.568  1.00  0.00     0.045 C 
BRANCH   8   9
HETATM    9  C2  UNL     1      14.431  36.544  37.009  1.00  0.00    -0.020 C 
HETATM   10  C1  UNL     1      13.621  35.901  38.155  1.00  0.00     0.009 C 
HETATM   11  C3  UNL     1      14.441  35.527  35.914  1.00  0.00     0.009 C 
ENDBRANCH   8   9
ENDBRANCH   1   8
BRANCH   1  12
HETATM   12  N1  UNL     1      15.684  38.903  36.420  1.00  0.00    -0.068 N 
ATOM     13  H13 UNL     1      15.311  38.252  35.728  1.00  0.00     0.275 HD
ATOM     14  H12 UNL     1      14.816  39.409  36.597  1.00  0.00     0.275 HD
ATOM     15  H11 UNL     1      16.431  39.495  36.056  1.00  0.00     0.275 HD
ENDBRANCH   1  12
BRANCH   7  16
HETATM   16  N3  UNL     1      18.193  37.819  36.289  1.00  0.00    -0.068 N 
ATOM     17  H33 UNL     1      17.685  36.972  36.034  1.00  0.00     0.275 HD
ATOM     18  H32 UNL     1      17.933  38.388  35.483  1.00  0.00     0.275 HD
ATOM     19  H31 UNL     1      19.199  37.665  36.347  1.00  0.00     0.275 HD
ENDBRANCH   7  16
TORSDOF 4
ENDMDL
MODEL 3
REMARK VINA RESULT: -4.665063448      1.399      2.505
REMARK  4 active torsions:
REMARK  status: ('A' for Active; 'I' for Inactive)
REMARK    1  A    between atoms: C2_2  and  C4_4 
REMARK    2  A    between atoms: C4_4  and  C5_5 
REMARK    3  A    between atoms: C5_5  and  N1_6 
REMARK    4  A    between atoms: C9_15  and  N3_16 
ROOT
HETATM    1  C5  UNL     1      14.876  36.233  36.981  1.00  0.00     0.158 C 
HETATM    2  C6  UNL     1      16.011  35.636  36.213  1.00  0.00     0.061 C 
HETATM    3  C7  UNL     1      17.256  35.842  37.100  1.00  0.00     0.121 C 
HETATM    4  N2  UNL     1      17.339  37.136  37.647  1.00  0.00    -0.400 N 
ATOM      5  H2  UNL     1      18.019  37.351  38.376  1.00  0.00     0.158 HD
HETATM    6  C8  UNL     1      16.467  38.124  37.166  1.00  0.00     0.090 C 
HETATM    7  C9  UNL     1      15.050  37.731  36.966  1.00  0.00     0.257 C 
ENDROOT
BRANCH   1   8
HETATM    8  C4  UNL     1      13.519  35.781  36.633  1.00  0.00     0.045 C 
BRANCH   8   9
HETATM    9  C2  UNL     1      13.243  35.320  35.260  1.00  0.00    -0.020 C 
HETATM   10  C1  UNL     1      12.751  36.561  34.485  1.00  0.00     0.009 C 
HETATM   11  C3  UNL     1      12.129  34.327  35.163  1.00  0.00     0.009 C 
ENDBRANCH   8   9
ENDBRANCH   1   8
BRANCH   1  12
HETATM   12  N1  UNL     1      15.110  35.809  38.381  1.00  0.00    -0.068 N 
ATOM     13  H13 UNL     1      14.394  35.177  38.738  1.00  0.00     0.275 HD
ATOM     14  H12 UNL     1      15.902  35.175  38.485  1.00  0.00     0.275 HD
ATOM     15  H11 UNL     1      15.203  36.665  38.929  1.00  0.00     0.275 HD
ENDBRANCH   1  12
BRANCH   7  16
HETATM   16  N3  UNL     1      14.133  38.323  37.921  1.00  0.00    -0.068 N 
ATOM     17  H33 UNL     1      14.555  38.446  38.841  1.00  0.00     0.275 HD
ATOM     18  H32 UNL     1      13.942  39.305  37.720  1.00  0.00     0.275 HD
ATOM     19  H31 UNL     1      13.282  37.762  37.956  1.00  0.00     0.275 HD
ENDBRANCH   7  16
TORSDOF 4
ENDMDL
MODEL 4
REMARK VINA RESULT: -4.615508885      1.919      4.483
REMARK  4 active torsions:
REMARK  status: ('A' for Active; 'I' for Inactive)
REMARK    1  A    between atoms: C2_2  and  C4_4 
REMARK    2  A    between atoms: C4_4  and  C5_5 
REMARK    3  A    between atoms: C5_5  and  N1_6 
REMARK    4  A    between atoms: C9_15  and  N3_16 
ROOT
HETATM    1  C5  UNL     1      13.255  35.573  35.901  1.00  0.00     0.158 C 
HETATM    2  C6  UNL     1      11.962  35.036  36.428  1.00  0.00     0.061 C 
HETATM    3  C7  UNL     1      11.314  34.296  35.240  1.00  0.00     0.121 C 
HETATM    4  N2  UNL     1      11.371  35.023  34.036  1.00  0.00    -0.400 N 
ATOM      5  H2  UNL     1      11.129  34.582  33.149  1.00  0.00     0.158 HD
HETATM    6  C8  UNL     1      11.770  36.368  34.084  1.00  0.00     0.090 C 
HETATM    7  C9  UNL     1      12.930  36.695  34.948  1.00  0.00     0.257 C 
ENDROOT
BRANCH   1   8
HETATM    8  C4  UNL     1      14.296  35.902  36.887  1.00  0.00     0.045 C 
BRANCH   8   9
HETATM    9  C2  UNL     1      13.908  36.529  38.164  1.00  0.00    -0.020 C 
HETATM   10  C1  UNL     1      14.684  37.862  38.238  1.00  0.00     0.009 C 
HETATM   11  C3  UNL     1      14.330  35.760  39.375  1.00  0.00     0.009 C 
ENDBRANCH   8   9
ENDBRANCH   1   8
BRANCH   1  12
HETATM   12  N1  UNL     1      13.801  34.476  35.068  1.00  0.00    -0.068 N 
ATOM     13  H13 UNL     1      13.767  33.565  35.526  1.00  0.00     0.275 HD
ATOM     14  H12 UNL     1      13.209  34.239  34.272  1.00  0.00     0.275 HD
ATOM     15  H11 UNL     1      14.744  34.760  34.801  1.00  0.00     0.275 HD
ENDBRANCH   1  12
BRANCH   7  16
HETATM   16  N3  UNL     1      14.130  37.055  34.215  1.00  0.00    -0.068 N 
ATOM     17  H33 UNL     1      14.335  38.052  34.270  1.00  0.00     0.275 HD
ATOM     18  H32 UNL     1      14.977  36.710  34.666  1.00  0.00     0.275 HD
ATOM     19  H31 UNL     1      14.041  36.729  33.253  1.00  0.00     0.275 HD
ENDBRANCH   7  16
TORSDOF 4
ENDMDL
MODEL 5
REMARK VINA RESULT: -4.534543712      1.737      4.096
REMARK  4 active torsions:
REMARK  status: ('A' for Active; 'I' for Inactive)
REMARK    1  A    between atoms: C2_2  and  C4_4 
REMARK    2  A    between atoms: C4_4  and  C5_5 
REMARK    3  A    between atoms: C5_5  and  N1_6 
REMARK    4  A    between atoms: C9_15  and  N3_16 
ROOT
HETATM    1  C5  UNL     1      14.982  36.357  37.103  1.00  0.00     0.158 C 
HETATM    2  C6  UNL     1      13.667  35.740  36.746  1.00  0.00     0.061 C 
HETATM    3  C7  UNL     1      13.511  35.966  35.228  1.00  0.00     0.121 C 
HETATM    4  N2  UNL     1      13.843  37.273  34.824  1.00  0.00    -0.400 N 
ATOM      5  H2  UNL     1      13.940  37.504  33.836  1.00  0.00     0.158 HD
HETATM    6  C8  UNL     1      14.038  38.250  35.812  1.00  0.00     0.090 C 
HETATM    7  C9  UNL     1      14.828  37.854  37.004  1.00  0.00     0.257 C 
ENDROOT
BRANCH   1   8
HETATM    8  C4  UNL     1      15.622  35.898  38.346  1.00  0.00     0.045 C 
BRANCH   8   9
HETATM    9  C2  UNL     1      14.983  36.200  39.640  1.00  0.00    -0.020 C 
HETATM   10  C1  UNL     1      16.104  36.747  40.551  1.00  0.00     0.009 C 
HETATM   11  C3  UNL     1      14.448  34.998  40.351  1.00  0.00     0.009 C 
ENDBRANCH   8   9
ENDBRANCH   1   8
BRANCH   1  12
HETATM   12  N1  UNL     1      15.888  35.966  35.998  1.00  0.00    -0.068 N 
ATOM     13  H13 UNL     1      15.905  36.639  35.231  1.00  0.00     0.275 HD
ATOM     14  H12 UNL     1      16.877  36.031  36.243  1.00  0.00     0.275 HD
ATOM     15  H11 UNL     1      15.603  35.030  35.709  1.00  0.00     0.275 HD
ENDBRANCH   1  12
BRANCH   7  16
HETATM   16  N3  UNL     1      16.140  38.469  37.074  1.00  0.00    -0.068 N 
ATOM     17  H33 UNL     1      16.818  37.884  37.560  1.00  0.00     0.275 HD
ATOM     18  H32 UNL     1      16.604  38.500  36.166  1.00  0.00     0.275 HD
ATOM     19  H31 UNL     1      16.051  39.393  37.497  1.00  0.00     0.275 HD
ENDBRANCH   7  16
TORSDOF 4
ENDMDL
