MODEL 1
REMARK VINA RESULT: -4.818659146      0.000      0.000
REMARK  4 active torsions:
REMARK  status: ('A' for Active; 'I' for Inactive)
REMARK    1  A    between atoms: C5_5  and  C6_6 
REMARK    2  A    between atoms: C6_6  and  C7_7 
REMARK    3  A    between atoms: C7_7  and  N1_8 
REMARK    4  A    between atoms: C8_12  and  N2_13 
ROOT
HETATM    1  C1  UNL     1      15.024  35.533  35.777  1.00  0.00     0.021 C 
HETATM    2  C2  UNL     1      13.534  35.501  35.820  1.00  0.00     0.045 C 
HETATM    3  C3  UNL     1      12.930  34.307  35.124  1.00  0.00     0.015 C 
HETATM    4  C4  UNL     1      11.418  34.545  35.096  1.00  0.00     0.008 C 
HETATM    5  C5  UNL     1      11.064  35.322  33.856  1.00  0.00     0.027 C 
HETATM    6  C8  UNL     1      11.617  36.722  33.870  1.00  0.00     0.249 C 
HETATM    7  S1  UNL     1      12.814  37.013  35.165  1.00  0.00    -0.132 SA
ENDROOT
BRANCH   5   8
HETATM    8  C6  UNL     1       9.585  35.400  33.660  1.00  0.00     0.034 C 
BRANCH   8   9
HETATM    9  C7  UNL     1       9.049  34.461  32.626  1.00  0.00     0.230 C 
BRANCH   9  10
HETATM   10  N1  UNL     1       9.933  34.562  31.460  1.00  0.00    -0.079 N 
ATOM     11  H13 UNL     1       9.935  35.489  31.036  1.00  0.00     0.274 HD
ATOM     12  H12 UNL     1      10.923  34.529  31.703  1.00  0.00     0.274 HD
ATOM     13  H11 UNL     1       9.655  33.824  30.812  1.00  0.00     0.274 HD
ENDBRANCH   9  10
ENDBRANCH   8   9
ENDBRANCH   5   8
BRANCH   6  14
HETATM   14  N2  UNL     1      12.177  36.998  32.553  1.00  0.00    -0.066 N 
ATOM     15  H23 UNL     1      12.558  36.165  32.103  1.00  0.00     0.275 HD
ATOM     16  H22 UNL     1      11.461  37.213  31.857  1.00  0.00     0.275 HD
ATOM     17  H21 UNL     1      12.865  37.745  32.652  1.00  0.00     0.275 HD
ENDBRANCH   6  14
TORSDOF 4
ENDMDL
MODEL 2
REMARK VINA RESULT: -4.786958102      2.414      3.455
REMARK  4 active torsions:
REMARK  status: ('A' for Active; 'I' for Inactive)
REMARK    1  A    between atoms: C5_5  and  C6_6 
REMARK    2  A    between atoms: C6_6  and  C7_7 
REMARK    3  A    between atoms: C7_7  and  N1_8 
REMARK    4  A    between atoms: C8_12  and  N2_13 
ROOT
HETATM    1  C1  UNL     1      17.622  36.505  37.592  1.00  0.00     0.021 C 
HETATM    2  C2  UNL     1      16.241  36.042  37.272  1.00  0.00     0.045 C 
HETATM    3  C3  UNL     1      16.090  35.501  35.873  1.00  0.00     0.015 C 
HETATM    4  C4  UNL     1      14.591  35.267  35.662  1.00  0.00     0.008 C 
HETATM    5  C5  UNL     1      13.964  36.531  35.136  1.00  0.00     0.027 C 
HETATM    6  C8  UNL     1      13.985  37.652  36.140  1.00  0.00     0.249 C 
HETATM    7  S1  UNL     1      15.021  37.330  37.561  1.00  0.00    -0.132 SA
ENDROOT
BRANCH   5   8
HETATM    8  C6  UNL     1      12.552  36.305  34.707  1.00  0.00     0.034 C 
BRANCH   8   9
HETATM    9  C7  UNL     1      11.987  34.980  35.112  1.00  0.00     0.230 C 
BRANCH   9  10
HETATM   10  N1  UNL     1      10.570  34.987  34.731  1.00  0.00    -0.079 N 
ATOM     11  H13 UNL     1      10.414  35.290  33.770  1.00  0.00     0.274 HD
ATOM     12  H12 UNL     1      10.176  34.051  34.638  1.00  0.00     0.274 HD
ATOM     13  H11 UNL     1      10.081  35.562  35.418  1.00  0.00     0.274 HD
ENDBRANCH   9  10
ENDBRANCH   8   9
ENDBRANCH   5   8
BRANCH   6  14
HETATM   14  N2  UNL     1      14.388  38.870  35.448  1.00  0.00    -0.066 N 
ATOM     15  H23 UNL     1      15.265  38.761  34.938  1.00  0.00     0.275 HD
ATOM     16  H22 UNL     1      13.791  39.086  34.650  1.00  0.00     0.275 HD
ATOM     17  H21 UNL     1      14.420  39.626  36.132  1.00  0.00     0.275 HD
ENDBRANCH   6  14
TORSDOF 4
ENDMDL
MODEL 3
REMARK VINA RESULT: -4.769341180      2.197      4.681
REMARK  4 active torsions:
REMARK  status: ('A' for Active; 'I' for Inactive)
REMARK    1  A    between atoms: C5_5  and  C6_6 
REMARK    2  A    between atoms: C6_6  and  C7_7 
REMARK    3  A    between atoms: C7_7  and  N1_8 
REMARK    4  A    between atoms: C8_12  and  N2_13 
ROOT
HETATM    1  C1  UNL     1       9.177  35.486  33.699  1.00  0.00     0.021 C 
HETATM    2  C2  UNL     1      10.598  35.039  33.766  1.00  0.00     0.045 C 
HETATM    3  C3  UNL     1      11.000  34.491  35.113  1.00  0.00     0.015 C 
HETATM    4  C4  UNL     1      12.515  34.276  35.054  1.00  0.00     0.008 C 
HETATM    5  C5  UNL     1      13.211  35.544  35.470  1.00  0.00     0.027 C 
HETATM    6  C8  UNL     1      13.000  36.671  34.494  1.00  0.00     0.249 C 
HETATM    7  S1  UNL     1      11.733  36.344  33.277  1.00  0.00    -0.132 SA
ENDROOT
BRANCH   5   8
HETATM    8  C6  UNL     1      14.679  35.334  35.641  1.00  0.00     0.034 C 
BRANCH   8   9
HETATM    9  C7  UNL     1      15.276  36.058  36.807  1.00  0.00     0.230 C 
BRANCH   9  10
HETATM   10  N1  UNL     1      16.608  36.511  36.390  1.00  0.00    -0.079 N 
ATOM     11  H13 UNL     1      16.579  37.266  35.705  1.00  0.00     0.274 HD
ATOM     12  H12 UNL     1      17.105  37.019  37.121  1.00  0.00     0.274 HD
ATOM     13  H11 UNL     1      17.111  35.687  36.060  1.00  0.00     0.274 HD
ENDBRANCH   9  10
ENDBRANCH   8   9
ENDBRANCH   5   8
BRANCH   6  14
HETATM   14  N2  UNL     1      12.712  37.879  35.256  1.00  0.00    -0.066 N 
ATOM     15  H23 UNL     1      12.146  37.697  36.086  1.00  0.00     0.275 HD
ATOM     16  H22 UNL     1      13.535  38.252  35.730  1.00  0.00     0.275 HD
ATOM     17  H21 UNL     1      12.281  38.555  34.625  1.00  0.00     0.275 HD
ENDBRANCH   6  14
TORSDOF 4
ENDMDL
MODEL 4
REMARK VINA RESULT: -4.496210562      2.177      3.069
REMARK  4 active torsions:
REMARK  status: ('A' for Active; 'I' for Inactive)
REMARK    1  A    between atoms: C5_5  and  C6_6 
REMARK    2  A    between atoms: C6_6  and  C7_7 
REMARK    3  A    between atoms: C7_7  and  N1_8 
REMARK    4  A    between atoms: C8_12  and  N2_13 
ROOT
HETATM    1  C1  UNL     1      16.050  38.469  37.878  1.00  0.00     0.021 C 
HETATM    2  C2  UNL     1      14.792  37.682  37.727  1.00  0.00     0.045 C 
HETATM    3  C3  UNL     1      15.016  36.195  37.611  1.00  0.00     0.015 C 
HETATM    4  C4  UNL     1      13.655  35.582  37.266  1.00  0.00     0.008 C 
HETATM    5  C5  UNL     1      13.482  35.574  35.771  1.00  0.00     0.027 C 
HETATM    6  C8  UNL     1      13.376  36.958  35.190  1.00  0.00     0.249 C 
HETATM    7  S1  UNL     1      13.806  38.258  36.340  1.00  0.00    -0.132 SA
ENDROOT
BRANCH   5   8
HETATM    8  C6  UNL     1      12.275  34.795  35.362  1.00  0.00     0.034 C 
BRANCH   8   9
HETATM    9  C7  UNL     1      11.315  35.551  34.499  1.00  0.00     0.230 C 
BRANCH   9  10
HETATM   10  N1  UNL     1      10.031  34.845  34.570  1.00  0.00    -0.079 N 
ATOM     11  H13 UNL     1       9.681  34.555  33.658  1.00  0.00     0.274 HD
ATOM     12  H12 UNL     1      10.108  33.915  34.981  1.00  0.00     0.274 HD
ATOM     13  H11 UNL     1       9.385  35.454  35.074  1.00  0.00     0.274 HD
ENDBRANCH   9  10
ENDBRANCH   8   9
ENDBRANCH   5   8
BRANCH   6  14
HETATM   14  N2  UNL     1      14.203  37.009  33.991  1.00  0.00    -0.066 N 
ATOM     15  H23 UNL     1      15.101  36.540  34.111  1.00  0.00     0.275 HD
ATOM     16  H22 UNL     1      13.842  36.423  33.238  1.00  0.00     0.275 HD
ATOM     17  H21 UNL     1      14.301  37.987  33.717  1.00  0.00     0.275 HD
ENDBRANCH   6  14
TORSDOF 4
ENDMDL
MODEL 5
REMARK VINA RESULT: -4.346584206      3.645      5.959
REMARK  4 active torsions:
REMARK  status: ('A' for Active; 'I' for Inactive)
REMARK    1  A    between atoms: C5_5  and  C6_6 
REMARK    2  A    between atoms: C6_6  and  C7_7 
REMARK    3  A    between atoms: C7_7  and  N1_8 
REMARK    4  A    between atoms: C8_12  and  N2_13 
ROOT
HETATM    1  C1  UNL     1      12.453  34.725  35.518  1.00  0.00     0.021 C 
HETATM    2  C2  UNL     1      13.604  35.439  36.141  1.00  0.00     0.045 C 
HETATM    3  C3  UNL     1      13.391  35.785  37.593  1.00  0.00     0.015 C 
HETATM    4  C4  UNL     1      14.570  36.674  37.999  1.00  0.00     0.008 C 
HETATM    5  C5  UNL     1      14.228  38.111  37.708  1.00  0.00     0.027 C 
HETATM    6  C8  UNL     1      14.097  38.391  36.235  1.00  0.00     0.249 C 
HETATM    7  S1  UNL     1      14.049  36.918  35.222  1.00  0.00    -0.132 SA
ENDROOT
BRANCH   5   8
HETATM    8  C6  UNL     1      15.244  39.044  38.279  1.00  0.00     0.034 C 
BRANCH   8   9
HETATM    9  C7  UNL     1      16.223  39.577  37.281  1.00  0.00     0.230 C 
BRANCH   9  10
HETATM   10  N1  UNL     1      16.341  41.019  37.528  1.00  0.00    -0.079 N 
ATOM     11  H13 UNL     1      15.571  41.558  37.133  1.00  0.00     0.274 HD
ATOM     12  H12 UNL     1      16.189  41.272  38.503  1.00  0.00     0.274 HD
ATOM     13  H11 UNL     1      17.254  41.306  37.176  1.00  0.00     0.274 HD
ENDBRANCH   9  10
ENDBRANCH   8   9
ENDBRANCH   5   8
BRANCH   6  14
HETATM   14  N2  UNL     1      12.913  39.216  36.036  1.00  0.00    -0.066 N 
ATOM     15  H23 UNL     1      12.057  38.666  35.957  1.00  0.00     0.275 HD
ATOM     16  H22 UNL     1      12.658  39.747  36.869  1.00  0.00     0.275 HD
ATOM     17  H21 UNL     1      13.076  39.812  35.224  1.00  0.00     0.275 HD
ENDBRANCH   6  14
TORSDOF 4
ENDMDL
