MODEL 1
REMARK VINA RESULT: -5.813439213      0.000      0.000
REMARK  2 active torsions:
REMARK  status: ('A' for Active; 'I' for Inactive)
REMARK    1  A    between atoms: C4_4  and  N1_5 
REMARK    2  A    between atoms: N1_5  and  C5_7 
ROOT
HETATM    1  C5  UNL     1      13.687  36.746  35.664  1.00  0.00     0.094 C 
HETATM    2  C6  UNL     1      14.822  35.736  35.742  1.00  0.00     0.028 C 
HETATM    3  C7  UNL     1      15.655  35.906  36.971  1.00  0.00     0.021 C 
HETATM    4  C8  UNL     1      16.166  37.306  37.119  1.00  0.00     0.114 C 
HETATM    5  N2  UNL     1      15.406  38.313  36.483  1.00  0.00    -0.419 N 
ATOM      6  H2  UNL     1      15.834  39.189  36.183  1.00  0.00     0.153 HD
HETATM    7  C9  UNL     1      14.016  38.056  36.277  1.00  0.00     0.138 C 
ENDROOT
BRANCH   1   8
HETATM    8  N1  UNL     1      13.213  36.725  34.347  1.00  0.00    -0.411 N 
ATOM      9  H1  UNL     1      13.883  36.797  33.581  1.00  0.00     0.154 HD
BRANCH   8  10
HETATM   10  C4  UNL     1      11.850  36.607  34.046  1.00  0.00     0.077 C 
HETATM   11  C3  UNL     1      11.458  36.704  32.606  1.00  0.00     0.024 C 
HETATM   12  C2  UNL     1      10.115  35.974  32.624  1.00  0.00     0.002 C 
HETATM   13  C1  UNL     1      10.469  34.725  33.378  1.00  0.00     0.002 C 
HETATM   14  C10 UNL     1      11.468  35.171  34.389  1.00  0.00     0.024 C 
ENDBRANCH   8  10
ENDBRANCH   1   8
TORSDOF 2
ENDMDL
MODEL 2
REMARK VINA RESULT: -5.647900078      1.232      5.398
REMARK  2 active torsions:
REMARK  status: ('A' for Active; 'I' for Inactive)
REMARK    1  A    between atoms: C4_4  and  N1_5 
REMARK    2  A    between atoms: N1_5  and  C5_7 
ROOT
HETATM    1  C5  UNL     1      11.652  36.654  33.810  1.00  0.00     0.094 C 
HETATM    2  C6  UNL     1      11.646  36.886  32.306  1.00  0.00     0.028 C 
HETATM    3  C7  UNL     1      10.416  36.351  31.650  1.00  0.00     0.021 C 
HETATM    4  C8  UNL     1      10.182  34.908  31.975  1.00  0.00     0.114 C 
HETATM    5  N2  UNL     1      10.746  34.447  33.185  1.00  0.00    -0.419 N 
ATOM      6  H2  UNL     1      10.993  33.465  33.313  1.00  0.00     0.153 HD
HETATM    7  C9  UNL     1      10.958  35.408  34.220  1.00  0.00     0.138 C 
ENDROOT
BRANCH   1   8
HETATM    8  N1  UNL     1      12.963  36.864  34.249  1.00  0.00    -0.411 N 
ATOM      9  H1  UNL     1      13.644  37.259  33.600  1.00  0.00     0.154 HD
BRANCH   8  10
HETATM   10  C4  UNL     1      13.374  36.551  35.552  1.00  0.00     0.077 C 
HETATM   11  C3  UNL     1      14.447  35.520  35.701  1.00  0.00     0.024 C 
HETATM   12  C2  UNL     1      15.000  35.878  37.081  1.00  0.00     0.002 C 
HETATM   13  C1  UNL     1      15.189  37.361  36.946  1.00  0.00     0.002 C 
HETATM   14  C10 UNL     1      14.052  37.805  36.090  1.00  0.00     0.024 C 
ENDBRANCH   8  10
ENDBRANCH   1   8
TORSDOF 2
ENDMDL
MODEL 3
REMARK VINA RESULT: -5.536862371      1.277      1.670
REMARK  2 active torsions:
REMARK  status: ('A' for Active; 'I' for Inactive)
REMARK    1  A    between atoms: C4_4  and  N1_5 
REMARK    2  A    between atoms: N1_5  and  C5_7 
ROOT
HETATM    1  C5  UNL     1      15.146  36.353  36.262  1.00  0.00     0.094 C 
HETATM    2  C6  UNL     1      16.349  35.534  35.819  1.00  0.00     0.028 C 
HETATM    3  C7  UNL     1      17.475  35.595  36.799  1.00  0.00     0.021 C 
HETATM    4  C8  UNL     1      17.869  37.003  37.121  1.00  0.00     0.114 C 
HETATM    5  N2  UNL     1      16.867  37.983  36.944  1.00  0.00    -0.419 N 
ATOM      6  H2  UNL     1      17.106  38.955  36.748  1.00  0.00     0.153 HD
HETATM    7  C9  UNL     1      15.507  37.559  37.048  1.00  0.00     0.138 C 
ENDROOT
BRANCH   1   8
HETATM    8  N1  UNL     1      14.324  36.509  35.140  1.00  0.00    -0.411 N 
ATOM      9  H1  UNL     1      14.742  36.814  34.261  1.00  0.00     0.154 HD
BRANCH   8  10
HETATM   10  C4  UNL     1      12.946  36.259  35.185  1.00  0.00     0.077 C 
HETATM   11  C3  UNL     1      12.180  36.428  33.912  1.00  0.00     0.024 C 
HETATM   12  C2  UNL     1      10.961  35.548  34.191  1.00  0.00     0.002 C 
HETATM   13  C1  UNL     1      11.612  34.291  34.689  1.00  0.00     0.002 C 
HETATM   14  C10 UNL     1      12.799  34.766  35.456  1.00  0.00     0.024 C 
ENDBRANCH   8  10
ENDBRANCH   1   8
TORSDOF 2
ENDMDL
MODEL 4
REMARK VINA RESULT: -5.521413038      1.676      5.433
REMARK  2 active torsions:
REMARK  status: ('A' for Active; 'I' for Inactive)
REMARK    1  A    between atoms: C4_4  and  N1_5 
REMARK    2  A    between atoms: N1_5  and  C5_7 
ROOT
HETATM    1  C5  UNL     1      11.479  35.720  34.390  1.00  0.00     0.094 C 
HETATM    2  C6  UNL     1      12.025  36.619  33.290  1.00  0.00     0.028 C 
HETATM    3  C7  UNL     1      10.998  36.942  32.254  1.00  0.00     0.021 C 
HETATM    4  C8  UNL     1      10.364  35.712  31.682  1.00  0.00     0.114 C 
HETATM    5  N2  UNL     1      10.380  34.566  32.508  1.00  0.00    -0.419 N 
ATOM      6  H2  UNL     1      10.352  33.627  32.111  1.00  0.00     0.153 HD
HETATM    7  C9  UNL     1      10.437  34.774  33.920  1.00  0.00     0.138 C 
ENDROOT
BRANCH   1   8
HETATM    8  N1  UNL     1      12.582  35.209  35.082  1.00  0.00    -0.411 N 
ATOM      9  H1  UNL     1      12.812  34.220  34.982  1.00  0.00     0.154 HD
BRANCH   8  10
HETATM   10  C4  UNL     1      13.382  36.011  35.909  1.00  0.00     0.077 C 
HETATM   11  C3  UNL     1      13.406  35.678  37.366  1.00  0.00     0.024 C 
HETATM   12  C2  UNL     1      14.735  36.308  37.783  1.00  0.00     0.002 C 
HETATM   13  C1  UNL     1      15.657  35.778  36.724  1.00  0.00     0.002 C 
HETATM   14  C10 UNL     1      14.822  35.737  35.490  1.00  0.00     0.024 C 
ENDBRANCH   8  10
ENDBRANCH   1   8
TORSDOF 2
ENDMDL
MODEL 5
REMARK VINA RESULT: -5.472121791      0.381      1.198
REMARK  2 active torsions:
REMARK  status: ('A' for Active; 'I' for Inactive)
REMARK    1  A    between atoms: C4_4  and  N1_5 
REMARK    2  A    between atoms: N1_5  and  C5_7 
ROOT
HETATM    1  C5  UNL     1      13.649  36.859  35.857  1.00  0.00     0.094 C 
HETATM    2  C6  UNL     1      14.749  35.827  35.658  1.00  0.00     0.028 C 
HETATM    3  C7  UNL     1      15.731  35.814  36.784  1.00  0.00     0.021 C 
HETATM    4  C8  UNL     1      16.304  37.171  37.052  1.00  0.00     0.114 C 
HETATM    5  N2  UNL     1      15.508  38.269  36.656  1.00  0.00    -0.419 N 
ATOM      6  H2  UNL     1      15.927  39.170  36.423  1.00  0.00     0.153 HD
HETATM    7  C9  UNL     1      14.095  38.067  36.593  1.00  0.00     0.138 C 
ENDROOT
BRANCH   1   8
HETATM    8  N1  UNL     1      13.018  37.025  34.619  1.00  0.00    -0.411 N 
ATOM      9  H1  UNL     1      13.098  37.924  34.142  1.00  0.00     0.154 HD
BRANCH   8  10
HETATM   10  C4  UNL     1      12.281  35.999  34.012  1.00  0.00     0.077 C 
HETATM   11  C3  UNL     1      11.265  35.298  34.855  1.00  0.00     0.024 C 
HETATM   12  C2  UNL     1      10.334  34.740  33.779  1.00  0.00     0.002 C 
HETATM   13  C1  UNL     1      10.112  35.953  32.924  1.00  0.00     0.002 C 
HETATM   14  C10 UNL     1      11.416  36.675  32.955  1.00  0.00     0.024 C 
ENDBRANCH   8  10
ENDBRANCH   1   8
TORSDOF 2
ENDMDL
