MODEL 1
REMARK VINA RESULT: -5.106356538      0.000      0.000
REMARK  3 active torsions:
REMARK  status: ('A' for Active; 'I' for Inactive)
REMARK    1  A    between atoms: C2_2  and  C4_4 
REMARK    2  A    between atoms: C4_4  and  N1_5 
REMARK    3  A    between atoms: C4_4  and  C5_9 
ROOT
HETATM    1  C5  UNL     1      12.228  35.614  34.137  1.00  0.00     0.104 C 
HETATM    2  C6  UNL     1      11.639  36.451  33.062  1.00  0.00     0.139 C 
HETATM    3  N2  UNL     1      10.209  36.349  32.991  1.00  0.00    -0.370 N 
ATOM      4  H2  UNL     1       9.617  37.114  32.669  1.00  0.00     0.161 HD
HETATM    5  C7  UNL     1       9.704  35.136  33.392  1.00  0.00     0.134 C 
HETATM    6  N3  UNL     1       8.827  34.366  33.003  1.00  0.00    -0.380 N 
ATOM      7  H31 UNL     1       8.452  33.466  33.301  1.00  0.00     0.158 HD
ATOM      8  H32 UNL     1       8.224  34.586  32.211  1.00  0.00     0.158 HD
HETATM    9  S1  UNL     1      10.787  34.741  34.818  1.00  0.00    -0.086 SA
ENDROOT
BRANCH   1  10
HETATM   10  C4  UNL     1      12.909  36.403  35.220  1.00  0.00     0.202 C 
BRANCH  10  11
HETATM   11  C2  UNL     1      13.667  35.396  36.095  1.00  0.00     0.009 C 
HETATM   12  C1  UNL     1      15.111  35.490  35.672  1.00  0.00     0.011 C 
HETATM   13  C3  UNL     1      13.512  35.830  37.545  1.00  0.00     0.011 C 
ENDBRANCH  10  11
BRANCH  10  14
HETATM   14  N1  UNL     1      13.899  37.281  34.682  1.00  0.00    -0.073 N 
ATOM     15  H13 UNL     1      14.123  38.066  35.295  1.00  0.00     0.274 HD
ATOM     16  H12 UNL     1      14.833  36.874  34.657  1.00  0.00     0.274 HD
ATOM     17  H11 UNL     1      13.554  37.565  33.765  1.00  0.00     0.274 HD
ENDBRANCH  10  14
ENDBRANCH   1  10
TORSDOF 3
ENDMDL
MODEL 2
REMARK VINA RESULT: -4.790687243      4.412      5.747
REMARK  3 active torsions:
REMARK  status: ('A' for Active; 'I' for Inactive)
REMARK    1  A    between atoms: C2_2  and  C4_4 
REMARK    2  A    between atoms: C4_4  and  N1_5 
REMARK    3  A    between atoms: C4_4  and  C5_9 
ROOT
HETATM    1  C5  UNL     1      14.226  37.988  37.592  1.00  0.00     0.104 C 
HETATM    2  C6  UNL     1      14.101  38.658  36.274  1.00  0.00     0.139 C 
HETATM    3  N2  UNL     1      15.236  39.474  35.949  1.00  0.00    -0.370 N 
ATOM      4  H2  UNL     1      15.542  39.637  34.990  1.00  0.00     0.161 HD
HETATM    5  C7  UNL     1      15.877  40.017  37.036  1.00  0.00     0.134 C 
HETATM    6  N3  UNL     1      16.375  41.105  37.322  1.00  0.00    -0.380 N 
ATOM      7  H31 UNL     1      16.851  41.508  38.129  1.00  0.00     0.158 HD
ATOM      8  H32 UNL     1      16.421  41.873  36.653  1.00  0.00     0.158 HD
HETATM    9  S1  UNL     1      15.796  38.635  38.238  1.00  0.00    -0.086 SA
ENDROOT
BRANCH   1  10
HETATM   10  C4  UNL     1      14.283  36.488  37.510  1.00  0.00     0.202 C 
BRANCH  10  11
HETATM   11  C2  UNL     1      14.379  36.128  36.021  1.00  0.00     0.009 C 
HETATM   12  C1  UNL     1      15.735  35.493  35.839  1.00  0.00     0.011 C 
HETATM   13  C3  UNL     1      13.280  35.122  35.714  1.00  0.00     0.011 C 
ENDBRANCH  10  11
BRANCH  10  14
HETATM   14  N1  UNL     1      15.470  35.976  38.116  1.00  0.00    -0.073 N 
ATOM     15  H13 UNL     1      16.166  35.657  37.442  1.00  0.00     0.274 HD
ATOM     16  H12 UNL     1      16.044  36.695  38.556  1.00  0.00     0.274 HD
ATOM     17  H11 UNL     1      15.164  35.248  38.762  1.00  0.00     0.274 HD
ENDBRANCH  10  14
ENDBRANCH   1  10
TORSDOF 3
ENDMDL
MODEL 3
REMARK VINA RESULT: -4.701638247      2.988      5.374
REMARK  3 active torsions:
REMARK  status: ('A' for Active; 'I' for Inactive)
REMARK    1  A    between atoms: C2_2  and  C4_4 
REMARK    2  A    between atoms: C4_4  and  N1_5 
REMARK    3  A    between atoms: C4_4  and  C5_9 
ROOT
HETATM    1  C5  UNL     1      14.038  36.935  36.390  1.00  0.00     0.104 C 
HETATM    2  C6  UNL     1      14.147  38.410  36.268  1.00  0.00     0.139 C 
HETATM    3  N2  UNL     1      15.448  38.907  36.615  1.00  0.00    -0.370 N 
ATOM      4  H2  UNL     1      15.846  39.749  36.198  1.00  0.00     0.161 HD
HETATM    5  C7  UNL     1      16.112  38.156  37.554  1.00  0.00     0.134 C 
HETATM    6  N3  UNL     1      16.807  38.384  38.544  1.00  0.00    -0.380 N 
ATOM      7  H31 UNL     1      17.300  37.826  39.241  1.00  0.00     0.158 HD
ATOM      8  H32 UNL     1      17.058  39.331  38.824  1.00  0.00     0.158 HD
HETATM    9  S1  UNL     1      15.661  36.453  37.049  1.00  0.00    -0.086 SA
ENDROOT
BRANCH   1  10
HETATM   10  C4  UNL     1      13.785  36.233  35.084  1.00  0.00     0.202 C 
BRANCH  10  11
HETATM   11  C2  UNL     1      12.299  35.845  35.069  1.00  0.00     0.009 C 
HETATM   12  C1  UNL     1      11.740  36.415  33.790  1.00  0.00     0.011 C 
HETATM   13  C3  UNL     1      12.216  34.326  35.051  1.00  0.00     0.011 C 
ENDBRANCH  10  11
BRANCH  10  14
HETATM   14  N1  UNL     1      13.974  37.110  33.974  1.00  0.00    -0.073 N 
ATOM     15  H13 UNL     1      14.882  37.003  33.521  1.00  0.00     0.274 HD
ATOM     16  H12 UNL     1      13.403  36.871  33.164  1.00  0.00     0.274 HD
ATOM     17  H11 UNL     1      13.804  38.052  34.327  1.00  0.00     0.274 HD
ENDBRANCH  10  14
ENDBRANCH   1  10
TORSDOF 3
ENDMDL
MODEL 4
REMARK VINA RESULT: -4.637987908      4.356      6.180
REMARK  3 active torsions:
REMARK  status: ('A' for Active; 'I' for Inactive)
REMARK    1  A    between atoms: C2_2  and  C4_4 
REMARK    2  A    between atoms: C4_4  and  N1_5 
REMARK    3  A    between atoms: C4_4  and  C5_9 
ROOT
HETATM    1  C5  UNL     1      15.568  37.548  37.616  1.00  0.00     0.104 C 
HETATM    2  C6  UNL     1      14.970  38.681  36.867  1.00  0.00     0.139 C 
HETATM    3  N2  UNL     1      15.952  39.573  36.320  1.00  0.00    -0.370 N 
ATOM      4  H2  UNL     1      15.799  40.104  35.463  1.00  0.00     0.161 HD
HETATM    5  C7  UNL     1      17.115  39.653  37.046  1.00  0.00     0.134 C 
HETATM    6  N3  UNL     1      17.883  40.547  37.398  1.00  0.00    -0.380 N 
ATOM      7  H31 UNL     1      18.747  40.607  37.937  1.00  0.00     0.158 HD
ATOM      8  H32 UNL     1      17.755  41.517  37.111  1.00  0.00     0.158 HD
HETATM    9  S1  UNL     1      17.348  37.909  37.562  1.00  0.00    -0.086 SA
ENDROOT
BRANCH   1  10
HETATM   10  C4  UNL     1      15.297  36.202  37.004  1.00  0.00     0.202 C 
BRANCH  10  11
HETATM   11  C2  UNL     1      13.778  36.096  36.816  1.00  0.00     0.009 C 
HETATM   12  C1  UNL     1      13.570  35.104  35.700  1.00  0.00     0.011 C 
HETATM   13  C3  UNL     1      13.185  35.564  38.113  1.00  0.00     0.011 C 
ENDBRANCH  10  11
BRANCH  10  14
HETATM   14  N1  UNL     1      15.863  36.100  35.697  1.00  0.00    -0.073 N 
ATOM     15  H13 UNL     1      15.194  35.805  34.985  1.00  0.00     0.274 HD
ATOM     16  H12 UNL     1      16.095  37.002  35.282  1.00  0.00     0.274 HD
ATOM     17  H11 UNL     1      16.665  35.475  35.786  1.00  0.00     0.274 HD
ENDBRANCH  10  14
ENDBRANCH   1  10
TORSDOF 3
ENDMDL
MODEL 5
REMARK VINA RESULT: -4.561973554      1.870      4.927
REMARK  3 active torsions:
REMARK  status: ('A' for Active; 'I' for Inactive)
REMARK    1  A    between atoms: C2_2  and  C4_4 
REMARK    2  A    between atoms: C4_4  and  N1_5 
REMARK    3  A    between atoms: C4_4  and  C5_9 
ROOT
HETATM    1  C5  UNL     1      12.267  35.351  34.378  1.00  0.00     0.104 C 
HETATM    2  C6  UNL     1      12.486  34.674  35.680  1.00  0.00     0.139 C 
HETATM    3  N2  UNL     1      13.254  35.463  36.601  1.00  0.00    -0.370 N 
ATOM      4  H2  UNL     1      13.139  35.398  37.612  1.00  0.00     0.161 HD
HETATM    5  C7  UNL     1      14.156  36.313  36.008  1.00  0.00     0.134 C 
HETATM    6  N3  UNL     1      15.317  36.663  36.218  1.00  0.00    -0.380 N 
ATOM      7  H31 UNL     1      15.986  37.294  35.778  1.00  0.00     0.158 HD
ATOM      8  H32 UNL     1      15.843  36.339  37.029  1.00  0.00     0.158 HD
HETATM    9  S1  UNL     1      13.209  36.895  34.550  1.00  0.00    -0.086 SA
ENDROOT
BRANCH   1  10
HETATM   10  C4  UNL     1      10.824  35.659  34.087  1.00  0.00     0.202 C 
BRANCH  10  11
HETATM   11  C2  UNL     1      10.548  35.186  32.654  1.00  0.00     0.009 C 
HETATM   12  C1  UNL     1       9.159  34.601  32.675  1.00  0.00     0.011 C 
HETATM   13  C3  UNL     1      10.595  36.404  31.744  1.00  0.00     0.011 C 
ENDBRANCH  10  11
BRANCH  10  14
HETATM   14  N1  UNL     1       9.950  34.905  34.926  1.00  0.00    -0.073 N 
ATOM     15  H13 UNL     1       9.347  34.262  34.413  1.00  0.00     0.274 HD
ATOM     16  H12 UNL     1      10.430  34.202  35.488  1.00  0.00     0.274 HD
ATOM     17  H11 UNL     1       9.435  35.588  35.483  1.00  0.00     0.274 HD
ENDBRANCH  10  14
ENDBRANCH   1  10
TORSDOF 3
ENDMDL
