MODEL 1
REMARK VINA RESULT: -4.324398999      0.000      0.000
REMARK  1 active torsions:
REMARK  status: ('A' for Active; 'I' for Inactive)
REMARK    1  A    between atoms: N1_2  and  C2_4 
ROOT
HETATM    1  C2  UNL     1      14.787  38.327  36.911  1.00  0.00     0.111 C 
HETATM    2  C3  UNL     1      13.897  39.252  37.660  1.00  0.00     0.057 C 
HETATM    3  C4  UNL     1      14.874  40.041  38.516  1.00  0.00     0.275 C 
HETATM    4  N2  UNL     1      16.078  39.208  38.597  1.00  0.00     0.095 N 
HETATM    5  C5  UNL     1      15.796  38.130  39.519  1.00  0.00     0.273 C 
HETATM    6  C6  UNL     1      16.819  37.055  39.489  1.00  0.00     0.030 C 
HETATM    7  C7  UNL     1      17.633  36.963  38.261  1.00  0.00     0.004 C 
HETATM    8  C8  UNL     1      17.098  37.588  37.041  1.00  0.00     0.038 C 
HETATM    9  C9  UNL     1      16.196  38.757  37.237  1.00  0.00     0.245 C 
ENDROOT
BRANCH   1  10
HETATM   10  N1  UNL     1      14.537  38.185  35.540  1.00  0.00    -0.419 N 
HETATM   11  C1  UNL     1      13.601  37.259  35.088  1.00  0.00     0.140 C 
ATOM     12  H1  UNL     1      15.043  38.764  34.870  1.00  0.00     0.153 HD
ENDBRANCH   1  10
TORSDOF 1
ENDMDL
MODEL 2
REMARK VINA RESULT: -4.307920191      1.711      1.848
REMARK  1 active torsions:
REMARK  status: ('A' for Active; 'I' for Inactive)
REMARK    1  A    between atoms: N1_2  and  C2_4 
ROOT
HETATM    1  C2  UNL     1      15.273  39.296  37.056  1.00  0.00     0.111 C 
HETATM    2  C3  UNL     1      14.313  39.636  38.139  1.00  0.00     0.057 C 
HETATM    3  C4  UNL     1      14.946  40.860  38.779  1.00  0.00     0.275 C 
HETATM    4  N2  UNL     1      16.364  40.800  38.409  1.00  0.00     0.095 N 
HETATM    5  C5  UNL     1      16.981  39.778  39.225  1.00  0.00     0.273 C 
HETATM    6  C6  UNL     1      18.345  39.414  38.769  1.00  0.00     0.030 C 
HETATM    7  C7  UNL     1      18.666  39.717  37.360  1.00  0.00     0.004 C 
HETATM    8  C8  UNL     1      17.539  39.908  36.432  1.00  0.00     0.038 C 
HETATM    9  C9  UNL     1      16.274  40.424  37.024  1.00  0.00     0.245 C 
ENDROOT
BRANCH   1  10
HETATM   10  N1  UNL     1      14.725  38.984  35.805  1.00  0.00    -0.419 N 
HETATM   11  C1  UNL     1      13.836  37.921  35.672  1.00  0.00     0.140 C 
ATOM     12  H1  UNL     1      14.978  39.539  34.988  1.00  0.00     0.153 HD
ENDBRANCH   1  10
TORSDOF 1
ENDMDL
MODEL 3
REMARK VINA RESULT: -4.272235882      1.976      3.524
REMARK  1 active torsions:
REMARK  status: ('A' for Active; 'I' for Inactive)
REMARK    1  A    between atoms: N1_2  and  C2_4 
ROOT
HETATM    1  C2  UNL     1      17.877  39.406  37.192  1.00  0.00     0.111 C 
HETATM    2  C3  UNL     1      18.759  40.019  38.220  1.00  0.00     0.057 C 
HETATM    3  C4  UNL     1      18.177  39.494  39.521  1.00  0.00     0.275 C 
HETATM    4  N2  UNL     1      16.800  39.106  39.200  1.00  0.00     0.095 N 
HETATM    5  C5  UNL     1      16.025  40.322  39.086  1.00  0.00     0.273 C 
HETATM    6  C6  UNL     1      14.682  40.103  38.494  1.00  0.00     0.030 C 
HETATM    7  C7  UNL     1      14.519  38.884  37.677  1.00  0.00     0.004 C 
HETATM    8  C8  UNL     1      15.738  38.255  37.143  1.00  0.00     0.038 C 
HETATM    9  C9  UNL     1      16.983  38.445  37.937  1.00  0.00     0.245 C 
ENDROOT
BRANCH   1  10
HETATM   10  N1  UNL     1      18.508  38.846  36.074  1.00  0.00    -0.419 N 
HETATM   11  C1  UNL     1      19.347  37.745  36.218  1.00  0.00     0.140 C 
ATOM     12  H1  UNL     1      18.352  39.247  35.149  1.00  0.00     0.153 HD
ENDBRANCH   1  10
TORSDOF 1
ENDMDL
MODEL 4
REMARK VINA RESULT: -4.185338835      1.768      3.936
REMARK  1 active torsions:
REMARK  status: ('A' for Active; 'I' for Inactive)
REMARK    1  A    between atoms: N1_2  and  C2_4 
ROOT
HETATM    1  C2  UNL     1      16.408  40.317  38.926  1.00  0.00     0.111 C 
HETATM    2  C3  UNL     1      17.013  39.429  39.954  1.00  0.00     0.057 C 
HETATM    3  C4  UNL     1      17.248  38.138  39.189  1.00  0.00     0.275 C 
HETATM    4  N2  UNL     1      16.335  38.196  38.043  1.00  0.00     0.095 N 
HETATM    5  C5  UNL     1      15.004  37.922  38.536  1.00  0.00     0.273 C 
HETATM    6  C6  UNL     1      13.942  38.220  37.543  1.00  0.00     0.030 C 
HETATM    7  C7  UNL     1      14.298  39.173  36.473  1.00  0.00     0.004 C 
HETATM    8  C8  UNL     1      15.439  40.070  36.712  1.00  0.00     0.038 C 
HETATM    9  C9  UNL     1      16.501  39.561  37.624  1.00  0.00     0.245 C 
ENDROOT
BRANCH   1  10
HETATM   10  N1  UNL     1      16.896  41.628  38.861  1.00  0.00    -0.419 N 
HETATM   11  C1  UNL     1      16.785  42.475  39.961  1.00  0.00     0.140 C 
ATOM     12  H1  UNL     1      17.335  41.964  38.005  1.00  0.00     0.153 HD
ENDBRANCH   1  10
TORSDOF 1
ENDMDL
MODEL 5
REMARK VINA RESULT: -4.173099056      1.938      3.540
REMARK  1 active torsions:
REMARK  status: ('A' for Active; 'I' for Inactive)
REMARK    1  A    between atoms: N1_2  and  C2_4 
ROOT
HETATM    1  C2  UNL     1      15.408  40.061  37.650  1.00  0.00     0.111 C 
HETATM    2  C3  UNL     1      16.626  39.263  37.348  1.00  0.00     0.057 C 
HETATM    3  C4  UNL     1      17.146  38.905  38.729  1.00  0.00     0.275 C 
HETATM    4  N2  UNL     1      16.557  39.897  39.634  1.00  0.00     0.095 N 
HETATM    5  C5  UNL     1      17.276  41.138  39.442  1.00  0.00     0.273 C 
HETATM    6  C6  UNL     1      16.614  42.300  40.083  1.00  0.00     0.030 C 
HETATM    7  C7  UNL     1      15.169  42.161  40.354  1.00  0.00     0.004 C 
HETATM    8  C8  UNL     1      14.429  41.143  39.592  1.00  0.00     0.038 C 
HETATM    9  C9  UNL     1      15.208  39.957  39.142  1.00  0.00     0.245 C 
ENDROOT
BRANCH   1  10
HETATM   10  N1  UNL     1      14.262  39.769  36.900  1.00  0.00    -0.419 N 
HETATM   11  C1  UNL     1      13.747  38.475  36.878  1.00  0.00     0.140 C 
ATOM     12  H1  UNL     1      13.803  40.507  36.367  1.00  0.00     0.153 HD
ENDBRANCH   1  10
TORSDOF 1
ENDMDL
