MODEL 1
REMARK VINA RESULT: -5.457007428      0.000      0.000
REMARK  2 active torsions:
REMARK  status: ('A' for Active; 'I' for Inactive)
REMARK    1  A    between atoms: C1_1  and  C6_11 
REMARK    2  A    between atoms: N1_2  and  C2_4 
ROOT
HETATM    1  C2  UNL     1      12.084  36.448  33.651  1.00  0.00     0.107 C 
HETATM    2  C3  UNL     1      11.209  35.402  34.356  1.00  0.00     0.054 C 
HETATM    3  C4  UNL     1      10.560  34.749  33.133  1.00  0.00     0.234 C 
HETATM    4  N2  UNL     1      10.147  35.928  32.376  1.00  0.00    -0.073 N 
ATOM      5  H21 UNL     1       9.212  36.255  32.619  1.00  0.00     0.277 HD
ATOM      6  H22 UNL     1       9.962  35.730  31.393  1.00  0.00     0.277 HD
HETATM    7  C5  UNL     1      11.167  36.925  32.573  1.00  0.00     0.257 C 
ENDROOT
BRANCH   1   8
HETATM    8  N1  UNL     1      12.460  37.425  34.593  1.00  0.00    -0.396 N 
HETATM    9  C1  UNL     1      13.417  37.354  35.417  1.00  0.00     0.060 C 
ATOM     10  H1  UNL     1      11.904  38.279  34.613  1.00  0.00     0.159 HD
BRANCH   9  11
HETATM   11  C6  UNL     1      13.611  38.543  36.324  1.00  0.00     0.024 A 
HETATM   12  C7  UNL     1      14.053  38.169  37.706  1.00  0.00     0.010 A 
HETATM   13  C8  UNL     1      14.958  38.921  36.762  1.00  0.00     0.010 A 
ENDBRANCH   9  11
ENDBRANCH   1   8
TORSDOF 2
ENDMDL
MODEL 2
REMARK VINA RESULT: -5.398791663      2.038      5.501
REMARK  2 active torsions:
REMARK  status: ('A' for Active; 'I' for Inactive)
REMARK    1  A    between atoms: C1_1  and  C6_11 
REMARK    2  A    between atoms: N1_2  and  C2_4 
ROOT
HETATM    1  C2  UNL     1      14.786  38.834  36.251  1.00  0.00     0.107 C 
HETATM    2  C3  UNL     1      13.735  39.071  37.344  1.00  0.00     0.054 C 
HETATM    3  C4  UNL     1      14.626  39.694  38.422  1.00  0.00     0.234 C 
HETATM    4  N2  UNL     1      15.752  38.762  38.421  1.00  0.00    -0.073 N 
ATOM      5  H21 UNL     1      15.628  37.980  39.063  1.00  0.00     0.277 HD
ATOM      6  H22 UNL     1      16.593  39.148  38.850  1.00  0.00     0.277 HD
HETATM    7  C5  UNL     1      15.948  38.350  37.055  1.00  0.00     0.257 C 
ENDROOT
BRANCH   1   8
HETATM    8  N1  UNL     1      14.269  37.906  35.327  1.00  0.00    -0.396 N 
HETATM    9  C1  UNL     1      13.163  37.297  35.402  1.00  0.00     0.060 C 
ATOM     10  H1  UNL     1      14.846  37.704  34.511  1.00  0.00     0.159 HD
BRANCH   9  11
HETATM   11  C6  UNL     1      12.841  36.349  34.275  1.00  0.00     0.024 A 
HETATM   12  C7  UNL     1      11.596  35.549  34.510  1.00  0.00     0.010 A 
HETATM   13  C8  UNL     1      11.672  36.591  33.423  1.00  0.00     0.010 A 
ENDBRANCH   9  11
ENDBRANCH   1   8
TORSDOF 2
ENDMDL
MODEL 3
REMARK VINA RESULT: -5.097878587      2.187      5.592
REMARK  2 active torsions:
REMARK  status: ('A' for Active; 'I' for Inactive)
REMARK    1  A    between atoms: C1_1  and  C6_11 
REMARK    2  A    between atoms: N1_2  and  C2_4 
ROOT
HETATM    1  C2  UNL     1      15.029  38.435  36.773  1.00  0.00     0.107 C 
HETATM    2  C3  UNL     1      15.635  39.728  36.209  1.00  0.00     0.054 C 
HETATM    3  C4  UNL     1      15.706  40.557  37.495  1.00  0.00     0.234 C 
HETATM    4  N2  UNL     1      14.370  40.335  38.041  1.00  0.00    -0.073 N 
ATOM      5  H21 UNL     1      13.683  41.014  37.714  1.00  0.00     0.277 HD
ATOM      6  H22 UNL     1      14.300  40.550  39.035  1.00  0.00     0.277 HD
HETATM    7  C5  UNL     1      14.015  38.975  37.728  1.00  0.00     0.257 C 
ENDROOT
BRANCH   1   8
HETATM    8  N1  UNL     1      14.505  37.683  35.704  1.00  0.00    -0.396 N 
HETATM    9  C1  UNL     1      13.299  37.347  35.533  1.00  0.00     0.060 C 
ATOM     10  H1  UNL     1      15.170  37.378  34.993  1.00  0.00     0.159 HD
BRANCH   9  11
HETATM   11  C6  UNL     1      12.997  36.536  34.298  1.00  0.00     0.024 A 
HETATM   12  C7  UNL     1      11.826  35.615  34.464  1.00  0.00     0.010 A 
HETATM   13  C8  UNL     1      11.777  36.797  33.528  1.00  0.00     0.010 A 
ENDBRANCH   9  11
ENDBRANCH   1   8
TORSDOF 2
ENDMDL
MODEL 4
REMARK VINA RESULT: -4.946289567      2.327      5.856
REMARK  2 active torsions:
REMARK  status: ('A' for Active; 'I' for Inactive)
REMARK    1  A    between atoms: C1_1  and  C6_11 
REMARK    2  A    between atoms: N1_2  and  C2_4 
ROOT
HETATM    1  C2  UNL     1      15.053  38.823  36.844  1.00  0.00     0.107 C 
HETATM    2  C3  UNL     1      16.268  38.184  37.532  1.00  0.00     0.054 C 
HETATM    3  C4  UNL     1      16.853  39.424  38.215  1.00  0.00     0.234 C 
HETATM    4  N2  UNL     1      16.824  40.385  37.114  1.00  0.00    -0.073 N 
ATOM      5  H21 UNL     1      17.672  40.373  36.547  1.00  0.00     0.277 HD
ATOM      6  H22 UNL     1      16.890  41.354  37.425  1.00  0.00     0.277 HD
HETATM    7  C5  UNL     1      15.630  40.111  36.357  1.00  0.00     0.257 C 
ENDROOT
BRANCH   1   8
HETATM    8  N1  UNL     1      14.600  37.950  35.837  1.00  0.00    -0.396 N 
HETATM    9  C1  UNL     1      13.401  37.635  35.588  1.00  0.00     0.060 C 
ATOM     10  H1  UNL     1      15.315  37.526  35.244  1.00  0.00     0.159 HD
BRANCH   9  11
HETATM   11  C6  UNL     1      13.181  36.673  34.449  1.00  0.00     0.024 A 
HETATM   12  C7  UNL     1      11.996  35.778  34.648  1.00  0.00     0.010 A 
HETATM   13  C8  UNL     1      12.019  36.831  33.568  1.00  0.00     0.010 A 
ENDBRANCH   9  11
ENDBRANCH   1   8
TORSDOF 2
ENDMDL
MODEL 5
REMARK VINA RESULT: -4.807023519      0.875      1.479
REMARK  2 active torsions:
REMARK  status: ('A' for Active; 'I' for Inactive)
REMARK    1  A    between atoms: C1_1  and  C6_11 
REMARK    2  A    between atoms: N1_2  and  C2_4 
ROOT
HETATM    1  C2  UNL     1      11.456  36.642  33.914  1.00  0.00     0.107 C 
HETATM    2  C3  UNL     1      11.491  36.810  32.388  1.00  0.00     0.054 C 
HETATM    3  C4  UNL     1      10.355  35.859  32.003  1.00  0.00     0.234 C 
HETATM    4  N2  UNL     1      10.694  34.685  32.802  1.00  0.00    -0.073 N 
ATOM      5  H21 UNL     1      11.317  34.036  32.321  1.00  0.00     0.277 HD
ATOM      6  H22 UNL     1       9.911  34.043  32.926  1.00  0.00     0.277 HD
HETATM    7  C5  UNL     1      11.232  35.171  34.046  1.00  0.00     0.257 C 
ENDROOT
BRANCH   1   8
HETATM    8  N1  UNL     1      12.673  37.113  34.444  1.00  0.00    -0.396 N 
HETATM    9  C1  UNL     1      12.894  37.465  35.637  1.00  0.00     0.060 C 
ATOM     10  H1  UNL     1      13.458  37.177  33.796  1.00  0.00     0.159 HD
BRANCH   9  11
HETATM   11  C6  UNL     1      14.292  37.936  35.950  1.00  0.00     0.024 A 
HETATM   12  C7  UNL     1      14.352  39.366  36.392  1.00  0.00     0.010 A 
HETATM   13  C8  UNL     1      14.674  38.234  37.334  1.00  0.00     0.010 A 
ENDBRANCH   9  11
ENDBRANCH   1   8
TORSDOF 2
ENDMDL
