MODEL 1
REMARK VINA RESULT: -4.893053177      0.000      0.000
REMARK  2 active torsions:
REMARK  status: ('A' for Active; 'I' for Inactive)
REMARK    1  A    between atoms: N1_2  and  C2_4 
REMARK    2  A    between atoms: C5_7  and  O1_8 
ROOT
HETATM    1  C2  UNL     1      12.801  36.416  33.771  1.00  0.00     0.076 C 
HETATM    2  C3  UNL     1      11.943  35.848  34.884  1.00  0.00     0.027 C 
HETATM    3  C4  UNL     1      11.061  34.777  34.215  1.00  0.00     0.034 C 
HETATM    4  C5  UNL     1      10.017  35.616  33.456  1.00  0.00     0.120 C 
HETATM    5  C7  UNL     1      10.738  36.263  32.317  1.00  0.00     0.034 C 
HETATM    6  C8  UNL     1      11.982  36.994  32.656  1.00  0.00     0.027 C 
ENDROOT
BRANCH   1   7
HETATM    7  N1  UNL     1      13.721  37.335  34.345  1.00  0.00    -0.421 N 
HETATM    8  C1  UNL     1      13.515  37.652  35.716  1.00  0.00     0.140 C 
ATOM      9  H1  UNL     1      14.485  37.743  33.805  1.00  0.00     0.153 HD
ENDBRANCH   1   7
BRANCH   4  10
HETATM   10  O1  UNL     1       9.013  34.821  32.954  1.00  0.00    -0.391 OA
HETATM   11  C6  UNL     1       9.338  34.224  31.731  1.00  0.00     0.202 C 
ENDBRANCH   4  10
TORSDOF 2
ENDMDL
MODEL 2
REMARK VINA RESULT: -4.645827111      2.478      4.223
REMARK  2 active torsions:
REMARK  status: ('A' for Active; 'I' for Inactive)
REMARK    1  A    between atoms: N1_2  and  C2_4 
REMARK    2  A    between atoms: C5_7  and  O1_8 
ROOT
HETATM    1  C2  UNL     1       9.867  35.468  33.428  1.00  0.00     0.076 C 
HETATM    2  C3  UNL     1      10.901  34.749  34.272  1.00  0.00     0.027 C 
HETATM    3  C4  UNL     1      11.770  35.861  34.889  1.00  0.00     0.034 C 
HETATM    4  C5  UNL     1      12.642  36.314  33.705  1.00  0.00     0.120 C 
HETATM    5  C7  UNL     1      11.734  37.038  32.762  1.00  0.00     0.034 C 
HETATM    6  C8  UNL     1      10.491  36.330  32.372  1.00  0.00     0.027 C 
ENDROOT
BRANCH   1   7
HETATM    7  N1  UNL     1       8.960  34.499  32.918  1.00  0.00    -0.421 N 
HETATM    8  C1  UNL     1       9.214  34.040  31.596  1.00  0.00     0.140 C 
ATOM      9  H1  UNL     1       8.173  34.154  33.469  1.00  0.00     0.153 HD
ENDBRANCH   1   7
BRANCH   4  10
HETATM   10  O1  UNL     1      13.631  37.175  34.118  1.00  0.00    -0.391 OA
HETATM   11  C6  UNL     1      13.537  37.520  35.470  1.00  0.00     0.202 C 
ENDBRANCH   4  10
TORSDOF 2
ENDMDL
MODEL 3
REMARK VINA RESULT: -4.256057149      2.560      4.474
REMARK  2 active torsions:
REMARK  status: ('A' for Active; 'I' for Inactive)
REMARK    1  A    between atoms: N1_2  and  C2_4 
REMARK    2  A    between atoms: C5_7  and  O1_8 
ROOT
HETATM    1  C2  UNL     1      10.784  35.289  32.595  1.00  0.00     0.076 C 
HETATM    2  C3  UNL     1      11.036  36.756  32.308  1.00  0.00     0.027 C 
HETATM    3  C4  UNL     1      12.485  37.019  32.762  1.00  0.00     0.034 C 
HETATM    4  C5  UNL     1      12.365  37.050  34.295  1.00  0.00     0.120 C 
HETATM    5  C7  UNL     1      12.093  35.645  34.729  1.00  0.00     0.034 C 
HETATM    6  C8  UNL     1      10.979  34.948  34.042  1.00  0.00     0.027 C 
ENDROOT
BRANCH   1   7
HETATM    7  N1  UNL     1       9.497  34.954  32.094  1.00  0.00    -0.421 N 
HETATM    8  C1  UNL     1       8.595  34.369  33.026  1.00  0.00     0.140 C 
ATOM      9  H1  UNL     1       9.235  35.123  31.122  1.00  0.00     0.153 HD
ENDBRANCH   1   7
BRANCH   4  10
HETATM   10  O1  UNL     1      13.537  37.476  34.876  1.00  0.00    -0.391 OA
HETATM   11  C6  UNL     1      13.339  38.230  36.037  1.00  0.00     0.202 C 
ENDBRANCH   4  10
TORSDOF 2
ENDMDL
MODEL 4
REMARK VINA RESULT: -4.062799117      5.419      8.095
REMARK  2 active torsions:
REMARK  status: ('A' for Active; 'I' for Inactive)
REMARK    1  A    between atoms: N1_2  and  C2_4 
REMARK    2  A    between atoms: C5_7  and  O1_8 
ROOT
HETATM    1  C2  UNL     1      14.784  38.958  37.611  1.00  0.00     0.076 C 
HETATM    2  C3  UNL     1      15.945  38.131  38.127  1.00  0.00     0.027 C 
HETATM    3  C4  UNL     1      17.026  39.150  38.534  1.00  0.00     0.034 C 
HETATM    4  C5  UNL     1      17.591  39.612  37.179  1.00  0.00     0.120 C 
HETATM    5  C7  UNL     1      16.526  40.442  36.535  1.00  0.00     0.034 C 
HETATM    6  C8  UNL     1      15.175  39.835  36.461  1.00  0.00     0.027 C 
ENDROOT
BRANCH   1   7
HETATM    7  N1  UNL     1      13.705  38.078  37.323  1.00  0.00    -0.421 N 
HETATM    8  C1  UNL     1      13.451  37.830  35.945  1.00  0.00     0.140 C 
ATOM      9  H1  UNL     1      13.147  37.649  38.061  1.00  0.00     0.153 HD
ENDBRANCH   1   7
BRANCH   4  10
HETATM   10  O1  UNL     1      18.715  40.384  37.348  1.00  0.00    -0.391 OA
HETATM   11  C6  UNL     1      19.353  40.174  38.575  1.00  0.00     0.202 C 
ENDBRANCH   4  10
TORSDOF 2
ENDMDL
MODEL 5
REMARK VINA RESULT: -4.043030688      5.393      8.164
REMARK  2 active torsions:
REMARK  status: ('A' for Active; 'I' for Inactive)
REMARK    1  A    between atoms: N1_2  and  C2_4 
REMARK    2  A    between atoms: C5_7  and  O1_8 
ROOT
HETATM    1  C2  UNL     1      15.082  39.016  36.721  1.00  0.00     0.076 C 
HETATM    2  C3  UNL     1      16.137  40.054  36.397  1.00  0.00     0.027 C 
HETATM    3  C4  UNL     1      16.865  40.328  37.726  1.00  0.00     0.034 C 
HETATM    4  C5  UNL     1      15.853  41.189  38.502  1.00  0.00     0.120 C 
HETATM    5  C7  UNL     1      14.725  40.282  38.880  1.00  0.00     0.034 C 
HETATM    6  C8  UNL     1      14.133  39.478  37.784  1.00  0.00     0.027 C 
ENDROOT
BRANCH   1   7
HETATM    7  N1  UNL     1      14.446  38.635  35.508  1.00  0.00    -0.421 N 
HETATM    8  C1  UNL     1      13.451  37.624  35.614  1.00  0.00     0.140 C 
ATOM      9  H1  UNL     1      14.689  39.062  34.614  1.00  0.00     0.153 HD
ENDBRANCH   1   7
BRANCH   4  10
HETATM   10  O1  UNL     1      16.414  41.702  39.648  1.00  0.00    -0.391 OA
HETATM   11  C6  UNL     1      15.470  42.073  40.610  1.00  0.00     0.202 C 
ENDBRANCH   4  10
TORSDOF 2
ENDMDL
