MODEL 1
REMARK VINA RESULT: -5.389342642      0.000      0.000
REMARK  1 active torsions:
REMARK  status: ('A' for Active; 'I' for Inactive)
REMARK    1  A    between atoms: N1_3  and  C3_5 
ROOT
HETATM    1  C3  UNL     1      14.646  39.322  36.324  1.00  0.00     0.288 C 
HETATM    2  N2  UNL     1      16.029  39.760  36.117  1.00  0.00    -0.050 N 
ATOM      3  H21 UNL     1      16.115  40.650  35.625  1.00  0.00     0.280 HD
ATOM      4  H22 UNL     1      16.545  39.204  35.435  1.00  0.00     0.280 HD
HETATM    5  C4  UNL     1      16.614  39.759  37.450  1.00  0.00     0.189 C 
HETATM    6  C5  UNL     1      15.903  40.738  38.341  1.00  0.00     0.033 C 
HETATM    7  C6  UNL     1      14.517  40.126  38.599  1.00  0.00     0.010 C 
HETATM    8  C7  UNL     1      14.559  38.873  37.758  1.00  0.00     0.038 C 
HETATM    9  C8  UNL     1      16.018  38.443  37.986  1.00  0.00     0.041 C 
ENDROOT
BRANCH   1  10
HETATM   10  N1  UNL     1      14.227  38.360  35.387  1.00  0.00    -0.376 N 
HETATM   11  C2  UNL     1      13.270  37.564  35.632  1.00  0.00     0.053 C 
HETATM   12  C1  UNL     1      12.781  36.530  34.690  1.00  0.00     0.054 C 
ATOM     13  H1  UNL     1      14.705  38.301  34.488  1.00  0.00     0.160 HD
ENDBRANCH   1  10
TORSDOF 1
ENDMDL
MODEL 2
REMARK VINA RESULT: -5.228499790      0.914      1.145
REMARK  1 active torsions:
REMARK  status: ('A' for Active; 'I' for Inactive)
REMARK    1  A    between atoms: N1_3  and  C3_5 
ROOT
HETATM    1  C3  UNL     1      14.273  38.824  36.268  1.00  0.00     0.288 C 
HETATM    2  N2  UNL     1      15.518  38.050  36.253  1.00  0.00    -0.050 N 
ATOM      3  H21 UNL     1      16.167  38.320  35.514  1.00  0.00     0.280 HD
ATOM      4  H22 UNL     1      15.403  37.082  35.955  1.00  0.00     0.280 HD
HETATM    5  C4  UNL     1      16.053  38.198  37.599  1.00  0.00     0.189 C 
HETATM    6  C5  UNL     1      16.360  39.639  37.891  1.00  0.00     0.033 C 
HETATM    7  C6  UNL     1      14.994  40.333  38.013  1.00  0.00     0.010 C 
HETATM    8  C7  UNL     1      14.035  39.208  37.705  1.00  0.00     0.038 C 
HETATM    9  C8  UNL     1      14.751  38.043  38.408  1.00  0.00     0.041 C 
ENDROOT
BRANCH   1  10
HETATM   10  N1  UNL     1      13.198  38.150  35.661  1.00  0.00    -0.376 N 
HETATM   11  C2  UNL     1      13.357  37.039  35.069  1.00  0.00     0.053 C 
HETATM   12  C1  UNL     1      12.268  36.279  34.411  1.00  0.00     0.054 C 
ATOM     13  H1  UNL     1      12.268  38.566  35.697  1.00  0.00     0.160 HD
ENDBRANCH   1  10
TORSDOF 1
ENDMDL
MODEL 3
REMARK VINA RESULT: -4.782184382      0.923      1.237
REMARK  1 active torsions:
REMARK  status: ('A' for Active; 'I' for Inactive)
REMARK    1  A    between atoms: N1_3  and  C3_5 
ROOT
HETATM    1  C3  UNL     1      14.379  38.594  36.864  1.00  0.00     0.288 C 
HETATM    2  N2  UNL     1      14.426  40.058  36.824  1.00  0.00    -0.050 N 
ATOM      3  H21 UNL     1      13.564  40.511  37.127  1.00  0.00     0.280 HD
ATOM      4  H22 UNL     1      14.435  40.449  35.883  1.00  0.00     0.280 HD
HETATM    5  C4  UNL     1      15.593  40.405  37.623  1.00  0.00     0.189 C 
HETATM    6  C5  UNL     1      15.419  39.945  39.043  1.00  0.00     0.033 C 
HETATM    7  C6  UNL     1      15.511  38.411  38.991  1.00  0.00     0.010 C 
HETATM    8  C7  UNL     1      15.663  38.150  37.512  1.00  0.00     0.038 C 
HETATM    9  C8  UNL     1      16.573  39.327  37.122  1.00  0.00     0.041 C 
ENDROOT
BRANCH   1  10
HETATM   10  N1  UNL     1      14.133  38.016  35.605  1.00  0.00    -0.376 N 
HETATM   11  C2  UNL     1      13.185  37.192  35.423  1.00  0.00     0.053 C 
HETATM   12  C1  UNL     1      12.874  36.550  34.124  1.00  0.00     0.054 C 
ATOM     13  H1  UNL     1      14.732  38.266  34.819  1.00  0.00     0.160 HD
ENDBRANCH   1  10
TORSDOF 1
ENDMDL
MODEL 4
REMARK VINA RESULT: -4.614033401      2.971      6.771
REMARK  1 active torsions:
REMARK  status: ('A' for Active; 'I' for Inactive)
REMARK    1  A    between atoms: N1_3  and  C3_5 
ROOT
HETATM    1  C3  UNL     1      11.812  36.405  33.499  1.00  0.00     0.288 C 
HETATM    2  N2  UNL     1      10.798  36.916  32.572  1.00  0.00    -0.050 N 
ATOM      3  H21 UNL     1      11.165  37.181  31.658  1.00  0.00     0.280 HD
ATOM      4  H22 UNL     1      10.433  37.835  32.819  1.00  0.00     0.280 HD
HETATM    5  C4  UNL     1       9.788  35.868  32.526  1.00  0.00     0.189 C 
HETATM    6  C5  UNL     1      10.371  34.594  31.983  1.00  0.00     0.033 C 
HETATM    7  C6  UNL     1      11.318  34.077  33.078  1.00  0.00     0.010 C 
HETATM    8  C7  UNL     1      11.225  35.166  34.121  1.00  0.00     0.038 C 
HETATM    9  C8  UNL     1       9.729  35.507  34.024  1.00  0.00     0.041 C 
ENDROOT
BRANCH   1  10
HETATM   10  N1  UNL     1      12.247  37.370  34.425  1.00  0.00    -0.376 N 
HETATM   11  C2  UNL     1      13.182  37.130  35.249  1.00  0.00     0.053 C 
HETATM   12  C1  UNL     1      13.686  38.101  36.248  1.00  0.00     0.054 C 
ATOM     13  H1  UNL     1      11.799  38.286  34.435  1.00  0.00     0.160 HD
ENDBRANCH   1  10
TORSDOF 1
ENDMDL
MODEL 5
REMARK VINA RESULT: -4.304836837      1.912      4.109
REMARK  1 active torsions:
REMARK  status: ('A' for Active; 'I' for Inactive)
REMARK    1  A    between atoms: N1_3  and  C3_5 
ROOT
HETATM    1  C3  UNL     1      15.155  40.142  38.397  1.00  0.00     0.288 C 
HETATM    2  N2  UNL     1      15.007  40.110  36.939  1.00  0.00    -0.050 N 
ATOM      3  H21 UNL     1      15.713  40.649  36.437  1.00  0.00     0.280 HD
ATOM      4  H22 UNL     1      14.201  40.628  36.591  1.00  0.00     0.280 HD
HETATM    5  C4  UNL     1      14.993  38.693  36.607  1.00  0.00     0.189 C 
HETATM    6  C5  UNL     1      16.291  38.044  36.996  1.00  0.00     0.033 C 
HETATM    7  C6  UNL     1      16.289  38.012  38.533  1.00  0.00     0.010 C 
HETATM    8  C7  UNL     1      14.997  38.720  38.866  1.00  0.00     0.038 C 
HETATM    9  C8  UNL     1      14.094  38.175  37.747  1.00  0.00     0.041 C 
ENDROOT
BRANCH   1  10
HETATM   10  N1  UNL     1      14.287  41.058  39.018  1.00  0.00    -0.376 N 
HETATM   11  C2  UNL     1      14.681  41.820  39.954  1.00  0.00     0.053 C 
HETATM   12  C1  UNL     1      13.818  42.805  40.649  1.00  0.00     0.054 C 
ATOM     13  H1  UNL     1      13.317  41.112  38.709  1.00  0.00     0.160 HD
ENDBRANCH   1  10
TORSDOF 1
ENDMDL
