MODEL 1
REMARK VINA RESULT: -6.173372573      0.000      0.000
REMARK  2 active torsions:
REMARK  status: ('A' for Active; 'I' for Inactive)
REMARK    1  A    between atoms: N1_3  and  N2_5 
REMARK    2  A    between atoms: N2_5  and  C3_7 
ROOT
HETATM    1  C3  UNL     1      11.715  36.617  33.911  1.00  0.00     0.099 C 
HETATM    2  C4  UNL     1      11.219  37.127  32.624  1.00  0.00     0.026 C 
HETATM    3  C5  UNL     1      10.690  36.157  31.650  1.00  0.00     0.002 C 
HETATM    4  C6  UNL     1      10.349  34.807  32.181  1.00  0.00     0.000 C 
HETATM    5  C7  UNL     1       9.907  34.965  33.632  1.00  0.00     0.002 C 
HETATM    6  C8  UNL     1      11.183  35.315  34.378  1.00  0.00     0.026 C 
ENDROOT
BRANCH   1   7
HETATM    7  N2  UNL     1      13.184  36.540  33.950  1.00  0.00    -0.332 N 
ATOM      8  H2  UNL     1      13.688  35.802  33.459  1.00  0.00     0.180 HD
BRANCH   7   9
HETATM    9  N1  UNL     1      13.860  37.516  34.685  1.00  0.00    -0.320 N 
HETATM   10  C2  UNL     1      13.476  37.846  35.866  1.00  0.00     0.075 C 
HETATM   11  C1  UNL     1      14.157  38.874  36.689  1.00  0.00     0.056 C 
ATOM     12  H1  UNL     1      14.674  37.975  34.277  1.00  0.00     0.185 HD
ENDBRANCH   7   9
ENDBRANCH   1   7
TORSDOF 2
ENDMDL
MODEL 2
REMARK VINA RESULT: -6.052130388      0.782      1.778
REMARK  2 active torsions:
REMARK  status: ('A' for Active; 'I' for Inactive)
REMARK    1  A    between atoms: N1_3  and  N2_5 
REMARK    2  A    between atoms: N2_5  and  C3_7 
ROOT
HETATM    1  C3  UNL     1      12.007  36.317  33.635  1.00  0.00     0.099 C 
HETATM    2  C4  UNL     1      11.485  35.181  34.411  1.00  0.00     0.026 C 
HETATM    3  C5  UNL     1      10.048  34.875  34.312  1.00  0.00     0.002 C 
HETATM    4  C6  UNL     1       9.321  35.484  33.163  1.00  0.00     0.000 C 
HETATM    5  C7  UNL     1      10.298  35.622  32.001  1.00  0.00     0.002 C 
HETATM    6  C8  UNL     1      11.243  36.729  32.434  1.00  0.00     0.026 C 
ENDROOT
BRANCH   1   7
HETATM    7  N2  UNL     1      12.210  37.513  34.468  1.00  0.00    -0.332 N 
ATOM      8  H2  UNL     1      11.506  38.250  34.517  1.00  0.00     0.180 HD
BRANCH   7   9
HETATM    9  N1  UNL     1      13.403  37.601  35.189  1.00  0.00    -0.320 N 
HETATM   10  C2  UNL     1      13.477  38.288  36.272  1.00  0.00     0.075 C 
HETATM   11  C1  UNL     1      14.717  38.416  37.075  1.00  0.00     0.056 C 
ATOM     12  H1  UNL     1      14.230  37.111  34.849  1.00  0.00     0.185 HD
ENDBRANCH   7   9
ENDBRANCH   1   7
TORSDOF 2
ENDMDL
MODEL 3
REMARK VINA RESULT: -5.411686206      1.896      6.168
REMARK  2 active torsions:
REMARK  status: ('A' for Active; 'I' for Inactive)
REMARK    1  A    between atoms: N1_3  and  N2_5 
REMARK    2  A    between atoms: N2_5  and  C3_7 
ROOT
HETATM    1  C3  UNL     1      14.355  39.242  36.595  1.00  0.00     0.099 C 
HETATM    2  C4  UNL     1      14.055  38.436  37.789  1.00  0.00     0.026 C 
HETATM    3  C5  UNL     1      15.184  37.910  38.574  1.00  0.00     0.002 C 
HETATM    4  C6  UNL     1      16.511  38.540  38.325  1.00  0.00     0.000 C 
HETATM    5  C7  UNL     1      16.280  39.996  37.936  1.00  0.00     0.002 C 
HETATM    6  C8  UNL     1      15.670  39.923  36.548  1.00  0.00     0.026 C 
ENDROOT
BRANCH   1   7
HETATM    7  N2  UNL     1      14.205  38.470  35.351  1.00  0.00    -0.332 N 
ATOM      8  H2  UNL     1      14.928  38.481  34.631  1.00  0.00     0.180 HD
BRANCH   7   9
HETATM    9  N1  UNL     1      13.037  37.722  35.194  1.00  0.00    -0.320 N 
HETATM   10  C2  UNL     1      13.044  36.599  34.569  1.00  0.00     0.075 C 
HETATM   11  C1  UNL     1      11.834  35.765  34.373  1.00  0.00     0.056 C 
ATOM     12  H1  UNL     1      12.161  38.073  35.583  1.00  0.00     0.185 HD
ENDBRANCH   7   9
ENDBRANCH   1   7
TORSDOF 2
ENDMDL
MODEL 4
REMARK VINA RESULT: -5.249785819      1.948      6.291
REMARK  2 active torsions:
REMARK  status: ('A' for Active; 'I' for Inactive)
REMARK    1  A    between atoms: N1_3  and  N2_5 
REMARK    2  A    between atoms: N2_5  and  C3_7 
ROOT
HETATM    1  C3  UNL     1      14.842  38.333  36.871  1.00  0.00     0.099 C 
HETATM    2  C4  UNL     1      16.285  38.238  37.140  1.00  0.00     0.026 C 
HETATM    3  C5  UNL     1      16.982  39.440  37.627  1.00  0.00     0.002 C 
HETATM    4  C6  UNL     1      16.120  40.530  38.164  1.00  0.00     0.000 C 
HETATM    5  C7  UNL     1      14.877  39.894  38.777  1.00  0.00     0.002 C 
HETATM    6  C8  UNL     1      14.085  39.389  37.584  1.00  0.00     0.026 C 
ENDROOT
BRANCH   1   7
HETATM    7  N2  UNL     1      14.552  38.467  35.435  1.00  0.00    -0.332 N 
ATOM      8  H2  UNL     1      14.762  39.329  34.930  1.00  0.00     0.180 HD
BRANCH   7   9
HETATM    9  N1  UNL     1      13.978  37.370  34.788  1.00  0.00    -0.320 N 
HETATM   10  C2  UNL     1      12.785  36.982  35.067  1.00  0.00     0.075 C 
HETATM   11  C1  UNL     1      12.129  35.825  34.413  1.00  0.00     0.056 C 
ATOM     12  H1  UNL     1      14.516  36.868  34.082  1.00  0.00     0.185 HD
ENDBRANCH   7   9
ENDBRANCH   1   7
TORSDOF 2
ENDMDL
MODEL 5
REMARK VINA RESULT: -5.228616756      2.092      6.321
REMARK  2 active torsions:
REMARK  status: ('A' for Active; 'I' for Inactive)
REMARK    1  A    between atoms: N1_3  and  N2_5 
REMARK    2  A    between atoms: N2_5  and  C3_7 
ROOT
HETATM    1  C3  UNL     1      15.381  38.792  36.685  1.00  0.00     0.099 C 
HETATM    2  C4  UNL     1      16.139  40.050  36.766  1.00  0.00     0.026 C 
HETATM    3  C5  UNL     1      15.767  41.020  37.810  1.00  0.00     0.002 C 
HETATM    4  C6  UNL     1      14.925  40.500  38.924  1.00  0.00     0.000 C 
HETATM    5  C7  UNL     1      15.272  39.030  39.136  1.00  0.00     0.002 C 
HETATM    6  C8  UNL     1      14.699  38.329  37.917  1.00  0.00     0.026 C 
ENDROOT
BRANCH   1   7
HETATM    7  N2  UNL     1      14.384  38.813  35.603  1.00  0.00    -0.332 N 
ATOM      8  H2  UNL     1      13.987  39.690  35.266  1.00  0.00     0.180 HD
BRANCH   7   9
HETATM    9  N1  UNL     1      14.004  37.586  35.055  1.00  0.00    -0.320 N 
HETATM   10  C2  UNL     1      12.775  37.211  35.051  1.00  0.00     0.075 C 
HETATM   11  C1  UNL     1      12.316  35.920  34.484  1.00  0.00     0.056 C 
ATOM     12  H1  UNL     1      14.714  36.977  34.649  1.00  0.00     0.185 HD
ENDBRANCH   7   9
ENDBRANCH   1   7
TORSDOF 2
ENDMDL
