MODEL 1
REMARK VINA RESULT: -8.986864229      0.000      0.000
REMARK  11 active torsions:
REMARK  status: ('A' for Active; 'I' for Inactive)
REMARK    1  A    between atoms: C2_2  and  C3_4 
REMARK    2  A    between atoms: C3_4  and  O2_5 
REMARK    3  A    between atoms: C7_10  and  C8_11 
REMARK    4  A    between atoms: C8_11  and  C9_12 
REMARK    5  A    between atoms: C15_19  and  C16_20 
REMARK    6  A    between atoms: C16_20  and  C17_21 
REMARK    7  A    between atoms: C16_20  and  C25_34 
REMARK       I    between atoms: C17_21  and  N1_23 
REMARK    8  A    between atoms: C18_25  and  C19_26 
REMARK    9  A    between atoms: C19_26  and  C20_27 
REMARK   10  A    between atoms: C20_27  and  N2_28 
REMARK       I    between atoms: C25_34  and  N3_36 
REMARK   11  A    between atoms: N3_36  and  C26_38 
ROOT
HETATM    1  C3  UNL     1      10.595  24.250   4.476  1.00  0.00     0.126 C 
HETATM    2  C4  UNL     1       9.259  24.451   5.073  1.00  0.00     0.047 C 
HETATM    3  C5  UNL     1       8.923  23.664   6.274  1.00  0.00     0.004 C 
HETATM    4  C6  UNL     1      10.021  23.113   7.097  1.00  0.00     0.018 C 
HETATM    5  C7  UNL     1      11.405  23.641   6.807  1.00  0.00     0.032 C 
HETATM    6  C14 UNL     1      12.380  22.683   7.367  1.00  0.00     0.141 C 
HETATM    7  O3  UNL     1      11.991  21.852   8.172  1.00  0.00    -0.297 OA
HETATM    8  C15 UNL     1      13.796  22.678   7.002  1.00  0.00     0.078 C 
HETATM    9  C29 UNL     1      14.078  23.268   5.647  1.00  0.00     0.014 C 
HETATM   10  C30 UNL     1      12.943  23.728   4.840  1.00  0.00     0.014 C 
HETATM   11  C31 UNL     1      11.563  23.426   5.282  1.00  0.00     0.009 C 
HETATM   12  C32 UNL     1      11.253  21.973   5.039  1.00  0.00     0.020 C 
ENDROOT
BRANCH   8  13
HETATM   13  C16 UNL     1      14.447  21.288   7.097  1.00  0.00     0.181 C 
BRANCH  13  14
HETATM   14  C17 UNL     1      15.518  21.215   8.108  1.00  0.00     0.235 C 
HETATM   15  O4  UNL     1      15.963  22.232   8.678  1.00  0.00    -0.272 OA
HETATM   16  N1  UNL     1      16.079  19.947   8.464  1.00  0.00    -0.340 N 
HETATM   17  C18 UNL     1      15.732  19.380   9.580  1.00  0.00     0.065 C 
ATOM     18  H1  UNL     1      16.749  19.491   7.844  1.00  0.00     0.167 HD
BRANCH  17  19
HETATM   19  C19 UNL     1      16.215  18.089  10.083  1.00  0.00     0.074 C 
BRANCH  19  20
HETATM   20  C20 UNL     1      17.520  17.638   9.533  1.00  0.00     0.277 C 
BRANCH  20  21
HETATM   21  N2  UNL     1      17.559  16.263   9.160  1.00  0.00     0.092 N 
HETATM   22  C21 UNL     1      18.327  15.510  10.152  1.00  0.00     0.298 C 
HETATM   23  C22 UNL     1      19.780  15.957  10.151  1.00  0.00     0.198 C 
HETATM   24  O5  UNL     1      20.198  16.324   8.877  1.00  0.00    -0.388 OA
HETATM   25  C23 UNL     1      19.549  15.517   7.945  1.00  0.00     0.198 C 
HETATM   26  C24 UNL     1      18.091  15.973   7.866  1.00  0.00     0.298 C 
ENDBRANCH  20  21
ENDBRANCH  19  20
ENDBRANCH  17  19
ENDBRANCH  13  14
BRANCH  13  27
HETATM   27  C25 UNL     1      15.018  20.891   5.758  1.00  0.00     0.232 C 
HETATM   28  O6  UNL     1      16.072  21.420   5.365  1.00  0.00    -0.273 OA
HETATM   29  N3  UNL     1      14.389  19.935   4.947  1.00  0.00    -0.356 N 
ATOM     30  H3  UNL     1      13.524  19.508   5.279  1.00  0.00     0.162 HD
BRANCH  29  31
HETATM   31  C26 UNL     1      14.909  19.527   3.663  1.00  0.00     0.076 C 
HETATM   32  C27 UNL     1      14.247  20.393   2.612  1.00  0.00     0.032 C 
HETATM   33  C28 UNL     1      14.640  18.060   3.398  1.00  0.00     0.032 C 
ENDBRANCH  29  31
ENDBRANCH  13  27
ENDBRANCH   8  13
BRANCH   5  34
HETATM   34  C8  UNL     1      11.656  25.010   7.218  1.00  0.00     0.022 C 
BRANCH  34  35
HETATM   35  C9  UNL     1      10.844  25.721   8.207  1.00  0.00    -0.013 C 
HETATM   36  C10 UNL     1      11.507  26.684   9.132  1.00  0.00     0.005 C 
HETATM   37  C11 UNL     1      10.403  27.650   9.582  1.00  0.00     0.000 C 
HETATM   38  C12 UNL     1       9.308  27.545   8.562  1.00  0.00     0.000 C 
HETATM   39  C13 UNL     1       9.873  26.682   7.476  1.00  0.00     0.005 C 
ENDBRANCH  34  35
ENDBRANCH   5  34
BRANCH   1  40
HETATM   40  C2  UNL     1      10.509  23.737   3.087  1.00  0.00     0.158 C 
HETATM   41  C1  UNL     1       9.567  22.752   2.551  1.00  0.00     0.094 C 
HETATM   42  O1  UNL     1      11.332  24.198   2.269  1.00  0.00    -0.295 OA
ENDBRANCH   1  40
BRANCH   1  43
HETATM   43  O2  UNL     1      11.174  25.558   4.291  1.00  0.00    -0.381 OA
ATOM     44  H2  UNL     1      10.419  26.130   4.363  1.00  0.00     0.211 HD
ENDBRANCH   1  43
TORSDOF 11
ENDMDL
MODEL 2
REMARK VINA RESULT: -8.899305039      0.806      1.008
REMARK  11 active torsions:
REMARK  status: ('A' for Active; 'I' for Inactive)
REMARK    1  A    between atoms: C2_2  and  C3_4 
REMARK    2  A    between atoms: C3_4  and  O2_5 
REMARK    3  A    between atoms: C7_10  and  C8_11 
REMARK    4  A    between atoms: C8_11  and  C9_12 
REMARK    5  A    between atoms: C15_19  and  C16_20 
REMARK    6  A    between atoms: C16_20  and  C17_21 
REMARK    7  A    between atoms: C16_20  and  C25_34 
REMARK       I    between atoms: C17_21  and  N1_23 
REMARK    8  A    between atoms: C18_25  and  C19_26 
REMARK    9  A    between atoms: C19_26  and  C20_27 
REMARK   10  A    between atoms: C20_27  and  N2_28 
REMARK       I    between atoms: C25_34  and  N3_36 
REMARK   11  A    between atoms: N3_36  and  C26_38 
ROOT
HETATM    1  C3  UNL     1      10.578  24.377   4.414  1.00  0.00     0.126 C 
HETATM    2  C4  UNL     1       9.233  24.566   4.994  1.00  0.00     0.047 C 
HETATM    3  C5  UNL     1       8.878  23.754   6.173  1.00  0.00     0.004 C 
HETATM    4  C6  UNL     1       9.962  23.184   7.001  1.00  0.00     0.018 C 
HETATM    5  C7  UNL     1      11.351  23.717   6.745  1.00  0.00     0.032 C 
HETATM    6  C14 UNL     1      12.316  22.745   7.299  1.00  0.00     0.141 C 
HETATM    7  O3  UNL     1      11.913  21.898   8.079  1.00  0.00    -0.297 OA
HETATM    8  C15 UNL     1      13.737  22.746   6.956  1.00  0.00     0.078 C 
HETATM    9  C29 UNL     1      14.041  23.366   5.619  1.00  0.00     0.014 C 
HETATM   10  C30 UNL     1      12.920  23.844   4.804  1.00  0.00     0.014 C 
HETATM   11  C31 UNL     1      11.532  23.534   5.217  1.00  0.00     0.009 C 
HETATM   12  C32 UNL     1      11.225  22.088   4.938  1.00  0.00     0.020 C 
ENDROOT
BRANCH   8  13
HETATM   13  C16 UNL     1      14.385  21.354   7.031  1.00  0.00     0.181 C 
BRANCH  13  14
HETATM   14  C17 UNL     1      15.460  21.267   8.036  1.00  0.00     0.235 C 
HETATM   15  O4  UNL     1      15.968  22.281   8.556  1.00  0.00    -0.272 OA
HETATM   16  N1  UNL     1      15.953  19.986   8.447  1.00  0.00    -0.340 N 
HETATM   17  C18 UNL     1      15.585  19.491   9.590  1.00  0.00     0.065 C 
ATOM     18  H1  UNL     1      16.589  19.464   7.843  1.00  0.00     0.167 HD
BRANCH  17  19
HETATM   19  C19 UNL     1      15.999  18.199  10.148  1.00  0.00     0.074 C 
BRANCH  19  20
HETATM   20  C20 UNL     1      17.350  17.731   9.741  1.00  0.00     0.277 C 
BRANCH  20  21
HETATM   21  N2  UNL     1      17.920  16.749  10.603  1.00  0.00     0.092 N 
HETATM   22  C21 UNL     1      18.204  17.350  11.906  1.00  0.00     0.298 C 
HETATM   23  C22 UNL     1      19.274  18.422  11.774  1.00  0.00     0.198 C 
HETATM   24  O5  UNL     1      20.196  18.102  10.784  1.00  0.00    -0.388 OA
HETATM   25  C23 UNL     1      20.362  16.718  10.761  1.00  0.00     0.198 C 
HETATM   26  C24 UNL     1      19.107  16.108  10.135  1.00  0.00     0.298 C 
ENDBRANCH  20  21
ENDBRANCH  19  20
ENDBRANCH  17  19
ENDBRANCH  13  14
BRANCH  13  27
HETATM   27  C25 UNL     1      14.949  20.972   5.685  1.00  0.00     0.232 C 
HETATM   28  O6  UNL     1      15.935  21.586   5.241  1.00  0.00    -0.273 OA
HETATM   29  N3  UNL     1      14.389  19.936   4.922  1.00  0.00    -0.356 N 
ATOM     30  H3  UNL     1      13.580  19.440   5.295  1.00  0.00     0.162 HD
BRANCH  29  31
HETATM   31  C26 UNL     1      14.906  19.541   3.633  1.00  0.00     0.076 C 
HETATM   32  C27 UNL     1      14.165  20.344   2.585  1.00  0.00     0.032 C 
HETATM   33  C28 UNL     1      14.726  18.054   3.398  1.00  0.00     0.032 C 
ENDBRANCH  29  31
ENDBRANCH  13  27
ENDBRANCH   8  13
BRANCH   5  34
HETATM   34  C8  UNL     1      11.596  25.076   7.188  1.00  0.00     0.022 C 
BRANCH  34  35
HETATM   35  C9  UNL     1      10.781  25.760   8.193  1.00  0.00    -0.013 C 
HETATM   36  C10 UNL     1      11.444  26.676   9.165  1.00  0.00     0.005 C 
HETATM   37  C11 UNL     1      10.349  27.640   9.637  1.00  0.00     0.000 C 
HETATM   38  C12 UNL     1       9.266  27.592   8.599  1.00  0.00     0.000 C 
HETATM   39  C13 UNL     1       9.834  26.764   7.488  1.00  0.00     0.005 C 
ENDBRANCH  34  35
ENDBRANCH   5  34
BRANCH   1  40
HETATM   40  C2  UNL     1      10.514  23.894   3.013  1.00  0.00     0.158 C 
HETATM   41  C1  UNL     1       9.610  22.888   2.451  1.00  0.00     0.094 C 
HETATM   42  O1  UNL     1      11.320  24.405   2.209  1.00  0.00    -0.295 OA
ENDBRANCH   1  40
BRANCH   1  43
HETATM   43  O2  UNL     1      11.161  25.688   4.267  1.00  0.00    -0.381 OA
ATOM     44  H2  UNL     1      10.488  26.255   4.624  1.00  0.00     0.211 HD
ENDBRANCH   1  43
TORSDOF 11
ENDMDL
MODEL 3
REMARK VINA RESULT: -8.240629828      1.136      1.531
REMARK  11 active torsions:
REMARK  status: ('A' for Active; 'I' for Inactive)
REMARK    1  A    between atoms: C2_2  and  C3_4 
REMARK    2  A    between atoms: C3_4  and  O2_5 
REMARK    3  A    between atoms: C7_10  and  C8_11 
REMARK    4  A    between atoms: C8_11  and  C9_12 
REMARK    5  A    between atoms: C15_19  and  C16_20 
REMARK    6  A    between atoms: C16_20  and  C17_21 
REMARK    7  A    between atoms: C16_20  and  C25_34 
REMARK       I    between atoms: C17_21  and  N1_23 
REMARK    8  A    between atoms: C18_25  and  C19_26 
REMARK    9  A    between atoms: C19_26  and  C20_27 
REMARK   10  A    between atoms: C20_27  and  N2_28 
REMARK       I    between atoms: C25_34  and  N3_36 
REMARK   11  A    between atoms: N3_36  and  C26_38 
ROOT
HETATM    1  C3  UNL     1      10.647  24.107   4.579  1.00  0.00     0.126 C 
HETATM    2  C4  UNL     1       9.338  24.249   5.250  1.00  0.00     0.047 C 
HETATM    3  C5  UNL     1       9.108  23.457   6.472  1.00  0.00     0.004 C 
HETATM    4  C6  UNL     1      10.275  22.964   7.234  1.00  0.00     0.018 C 
HETATM    5  C7  UNL     1      11.614  23.555   6.864  1.00  0.00     0.032 C 
HETATM    6  C14 UNL     1      12.663  22.648   7.373  1.00  0.00     0.141 C 
HETATM    7  O3  UNL     1      12.360  21.806   8.202  1.00  0.00    -0.297 OA
HETATM    8  C15 UNL     1      14.055  22.707   6.928  1.00  0.00     0.078 C 
HETATM    9  C29 UNL     1      14.232  23.300   5.557  1.00  0.00     0.014 C 
HETATM   10  C30 UNL     1      13.034  23.699   4.813  1.00  0.00     0.014 C 
HETATM   11  C31 UNL     1      11.696  23.336   5.333  1.00  0.00     0.009 C 
HETATM   12  C32 UNL     1      11.443  21.869   5.116  1.00  0.00     0.020 C 
ENDROOT
BRANCH   8  13
HETATM   13  C16 UNL     1      14.776  21.351   6.994  1.00  0.00     0.181 C 
BRANCH  13  14
HETATM   14  C17 UNL     1      15.975  21.370   7.851  1.00  0.00     0.235 C 
HETATM   15  O4  UNL     1      16.267  22.352   8.563  1.00  0.00    -0.272 OA
HETATM   16  N1  UNL     1      16.847  20.234   7.885  1.00  0.00    -0.340 N 
HETATM   17  C18 UNL     1      16.803  19.419   8.895  1.00  0.00     0.065 C 
ATOM     18  H1  UNL     1      17.500  20.067   7.119  1.00  0.00     0.167 HD
BRANCH  17  19
HETATM   19  C19 UNL     1      17.627  18.218   9.075  1.00  0.00     0.074 C 
BRANCH  19  20
HETATM   20  C20 UNL     1      17.603  17.252   7.946  1.00  0.00     0.277 C 
BRANCH  20  21
HETATM   21  N2  UNL     1      18.797  17.225   7.168  1.00  0.00     0.092 N 
HETATM   22  C21 UNL     1      18.502  17.666   5.805  1.00  0.00     0.298 C 
HETATM   23  C22 UNL     1      17.565  16.684   5.119  1.00  0.00     0.198 C 
HETATM   24  O5  UNL     1      17.799  15.381   5.541  1.00  0.00    -0.388 OA
HETATM   25  C23 UNL     1      19.161  15.231   5.795  1.00  0.00     0.198 C 
HETATM   26  C24 UNL     1      19.477  15.971   7.096  1.00  0.00     0.298 C 
ENDBRANCH  20  21
ENDBRANCH  19  20
ENDBRANCH  17  19
ENDBRANCH  13  14
BRANCH  13  27
HETATM   27  C25 UNL     1      15.178  20.911   5.608  1.00  0.00     0.232 C 
HETATM   28  O6  UNL     1      16.116  21.491   5.034  1.00  0.00    -0.273 OA
HETATM   29  N3  UNL     1      14.521  19.859   4.952  1.00  0.00    -0.356 N 
ATOM     30  H3  UNL     1      13.753  19.391   5.431  1.00  0.00     0.162 HD
BRANCH  29  31
HETATM   31  C26 UNL     1      14.883  19.409   3.628  1.00  0.00     0.076 C 
HETATM   32  C27 UNL     1      14.146  20.284   2.637  1.00  0.00     0.032 C 
HETATM   33  C28 UNL     1      14.529  17.950   3.424  1.00  0.00     0.032 C 
ENDBRANCH  29  31
ENDBRANCH  13  27
ENDBRANCH   8  13
BRANCH   5  34
HETATM   34  C8  UNL     1      11.822  24.937   7.253  1.00  0.00     0.022 C 
BRANCH  34  35
HETATM   35  C9  UNL     1      10.977  25.643   8.217  1.00  0.00    -0.013 C 
HETATM   36  C10 UNL     1      11.605  26.620   9.154  1.00  0.00     0.005 C 
HETATM   37  C11 UNL     1      10.479  27.575   9.570  1.00  0.00     0.000 C 
HETATM   38  C12 UNL     1       9.410  27.451   8.524  1.00  0.00     0.000 C 
HETATM   39  C13 UNL     1      10.013  26.589   7.458  1.00  0.00     0.005 C 
ENDBRANCH  34  35
ENDBRANCH   5  34
BRANCH   1  40
HETATM   40  C2  UNL     1      10.507  23.580   3.200  1.00  0.00     0.158 C 
HETATM   41  C1  UNL     1       9.524  22.615   2.703  1.00  0.00     0.094 C 
HETATM   42  O1  UNL     1      11.319  24.008   2.353  1.00  0.00    -0.295 OA
ENDBRANCH   1  40
BRANCH   1  43
HETATM   43  O2  UNL     1      11.151  25.440   4.356  1.00  0.00    -0.381 OA
ATOM     44  H2  UNL     1      12.059  25.365   4.625  1.00  0.00     0.211 HD
ENDBRANCH   1  43
TORSDOF 11
ENDMDL
MODEL 4
REMARK VINA RESULT: -7.976586261      6.042     10.247
REMARK  11 active torsions:
REMARK  status: ('A' for Active; 'I' for Inactive)
REMARK    1  A    between atoms: C2_2  and  C3_4 
REMARK    2  A    between atoms: C3_4  and  O2_5 
REMARK    3  A    between atoms: C7_10  and  C8_11 
REMARK    4  A    between atoms: C8_11  and  C9_12 
REMARK    5  A    between atoms: C15_19  and  C16_20 
REMARK    6  A    between atoms: C16_20  and  C17_21 
REMARK    7  A    between atoms: C16_20  and  C25_34 
REMARK       I    between atoms: C17_21  and  N1_23 
REMARK    8  A    between atoms: C18_25  and  C19_26 
REMARK    9  A    between atoms: C19_26  and  C20_27 
REMARK   10  A    between atoms: C20_27  and  N2_28 
REMARK       I    between atoms: C25_34  and  N3_36 
REMARK   11  A    between atoms: N3_36  and  C26_38 
ROOT
HETATM    1  C3  UNL     1       1.368  26.851   6.119  1.00  0.00     0.126 C 
HETATM    2  C4  UNL     1       0.343  26.627   5.079  1.00  0.00     0.047 C 
HETATM    3  C5  UNL     1       0.779  26.669   3.671  1.00  0.00     0.004 C 
HETATM    4  C6  UNL     1       2.206  26.442   3.358  1.00  0.00     0.018 C 
HETATM    5  C7  UNL     1       3.059  25.897   4.478  1.00  0.00     0.032 C 
HETATM    6  C14 UNL     1       4.471  26.169   4.143  1.00  0.00     0.141 C 
HETATM    7  O3  UNL     1       4.754  26.476   2.997  1.00  0.00    -0.297 OA
HETATM    8  C15 UNL     1       5.554  26.091   5.123  1.00  0.00     0.078 C 
HETATM    9  C29 UNL     1       5.107  26.303   6.543  1.00  0.00     0.014 C 
HETATM   10  C30 UNL     1       3.693  26.603   6.789  1.00  0.00     0.014 C 
HETATM   11  C31 UNL     1       2.796  26.881   5.645  1.00  0.00     0.009 C 
HETATM   12  C32 UNL     1       3.076  28.253   5.095  1.00  0.00     0.020 C 
ENDROOT
BRANCH   8  13
HETATM   13  C16 UNL     1       6.729  27.034   4.812  1.00  0.00     0.181 C 
BRANCH  13  14
HETATM   14  C17 UNL     1       7.348  26.779   3.499  1.00  0.00     0.235 C 
HETATM   15  O4  UNL     1       7.590  27.697   2.689  1.00  0.00    -0.272 OA
HETATM   16  N1  UNL     1       7.694  25.442   3.120  1.00  0.00    -0.340 N 
HETATM   17  C18 UNL     1       8.934  25.058   3.172  1.00  0.00     0.065 C 
ATOM     18  H1  UNL     1       6.969  24.794   2.810  1.00  0.00     0.167 HD
BRANCH  17  19
HETATM   19  C19 UNL     1       9.445  23.729   2.819  1.00  0.00     0.074 C 
BRANCH  19  20
HETATM   20  C20 UNL     1      10.827  23.434   3.279  1.00  0.00     0.277 C 
BRANCH  20  21
HETATM   21  N2  UNL     1      10.994  23.450   4.694  1.00  0.00     0.092 N 
HETATM   22  C21 UNL     1      12.151  24.275   5.040  1.00  0.00     0.298 C 
HETATM   23  C22 UNL     1      13.429  23.652   4.502  1.00  0.00     0.198 C 
HETATM   24  O5  UNL     1      13.362  22.264   4.516  1.00  0.00    -0.388 OA
HETATM   25  C23 UNL     1      12.613  21.865   5.621  1.00  0.00     0.198 C 
HETATM   26  C24 UNL     1      11.145  22.179   5.328  1.00  0.00     0.298 C 
ENDBRANCH  20  21
ENDBRANCH  19  20
ENDBRANCH  17  19
ENDBRANCH  13  14
BRANCH  13  27
HETATM   27  C25 UNL     1       7.788  26.910   5.879  1.00  0.00     0.232 C 
HETATM   28  O6  UNL     1       8.504  27.891   6.143  1.00  0.00    -0.273 OA
HETATM   29  N3  UNL     1       7.982  25.713   6.584  1.00  0.00    -0.356 N 
ATOM     30  H3  UNL     1       7.390  24.914   6.359  1.00  0.00     0.162 HD
BRANCH  29  31
HETATM   31  C26 UNL     1       8.982  25.560   7.615  1.00  0.00     0.076 C 
HETATM   32  C27 UNL     1       9.282  24.081   7.737  1.00  0.00     0.032 C 
HETATM   33  C28 UNL     1       8.503  26.123   8.938  1.00  0.00     0.032 C 
ENDBRANCH  29  31
ENDBRANCH  13  27
ENDBRANCH   8  13
BRANCH   5  34
HETATM   34  C8  UNL     1       2.818  24.512   4.836  1.00  0.00     0.022 C 
BRANCH  34  35
HETATM   35  C9  UNL     1       2.978  23.394   3.905  1.00  0.00    -0.013 C 
HETATM   36  C10 UNL     1       3.623  22.137   4.383  1.00  0.00     0.005 C 
HETATM   37  C11 UNL     1       3.119  21.032   3.446  1.00  0.00     0.000 C 
HETATM   38  C12 UNL     1       1.865  21.556   2.811  1.00  0.00     0.000 C 
HETATM   39  C13 UNL     1       1.581  22.843   3.521  1.00  0.00     0.005 C 
ENDBRANCH  34  35
ENDBRANCH   5  34
BRANCH   1  40
HETATM   40  C2  UNL     1       1.070  28.050   6.940  1.00  0.00     0.158 C 
HETATM   41  C1  UNL     1       1.313  28.240   8.372  1.00  0.00     0.094 C 
HETATM   42  O1  UNL     1       0.554  29.019   6.346  1.00  0.00    -0.295 OA
ENDBRANCH   1  40
BRANCH   1  43
HETATM   43  O2  UNL     1       1.240  25.777   7.074  1.00  0.00    -0.381 OA
ATOM     44  H2  UNL     1       1.799  25.105   6.704  1.00  0.00     0.211 HD
ENDBRANCH   1  43
TORSDOF 11
ENDMDL
MODEL 5
REMARK VINA RESULT: -7.899541832      2.745      5.566
REMARK  11 active torsions:
REMARK  status: ('A' for Active; 'I' for Inactive)
REMARK    1  A    between atoms: C2_2  and  C3_4 
REMARK    2  A    between atoms: C3_4  and  O2_5 
REMARK    3  A    between atoms: C7_10  and  C8_11 
REMARK    4  A    between atoms: C8_11  and  C9_12 
REMARK    5  A    between atoms: C15_19  and  C16_20 
REMARK    6  A    between atoms: C16_20  and  C17_21 
REMARK    7  A    between atoms: C16_20  and  C25_34 
REMARK       I    between atoms: C17_21  and  N1_23 
REMARK    8  A    between atoms: C18_25  and  C19_26 
REMARK    9  A    between atoms: C19_26  and  C20_27 
REMARK   10  A    between atoms: C20_27  and  N2_28 
REMARK       I    between atoms: C25_34  and  N3_36 
REMARK   11  A    between atoms: N3_36  and  C26_38 
ROOT
HETATM    1  C3  UNL     1       8.777  25.640   7.557  1.00  0.00     0.126 C 
HETATM    2  C4  UNL     1       8.211  26.756   6.772  1.00  0.00     0.047 C 
HETATM    3  C5  UNL     1       9.021  27.288   5.660  1.00  0.00     0.004 C 
HETATM    4  C6  UNL     1      10.073  26.433   5.070  1.00  0.00     0.018 C 
HETATM    5  C7  UNL     1      10.045  24.974   5.456  1.00  0.00     0.032 C 
HETATM    6  C14 UNL     1      11.376  24.405   5.165  1.00  0.00     0.141 C 
HETATM    7  O3  UNL     1      12.136  25.028   4.443  1.00  0.00    -0.297 OA
HETATM    8  C15 UNL     1      11.833  23.125   5.706  1.00  0.00     0.078 C 
HETATM    9  C29 UNL     1      11.156  22.728   6.988  1.00  0.00     0.014 C 
HETATM   10  C30 UNL     1      10.177  23.651   7.572  1.00  0.00     0.014 C 
HETATM   11  C31 UNL     1      10.027  25.010   7.005  1.00  0.00     0.009 C 
HETATM   12  C32 UNL     1      11.198  25.866   7.407  1.00  0.00     0.020 C 
ENDROOT
BRANCH   8  13
HETATM   13  C16 UNL     1      13.358  23.049   5.890  1.00  0.00     0.181 C 
BRANCH  13  14
HETATM   14  C17 UNL     1      14.095  22.957   4.617  1.00  0.00     0.235 C 
HETATM   15  O4  UNL     1      15.027  23.735   4.331  1.00  0.00    -0.272 OA
HETATM   16  N1  UNL     1      13.747  21.947   3.661  1.00  0.00    -0.340 N 
HETATM   17  C18 UNL     1      14.492  20.890   3.543  1.00  0.00     0.065 C 
ATOM     18  H1  UNL     1      12.918  22.059   3.077  1.00  0.00     0.167 HD
BRANCH  17  19
HETATM   19  C19 UNL     1      14.270  19.774   2.617  1.00  0.00     0.074 C 
BRANCH  19  20
HETATM   20  C20 UNL     1      15.498  19.191   2.014  1.00  0.00     0.277 C 
BRANCH  20  21
HETATM   21  N2  UNL     1      15.760  17.843   2.397  1.00  0.00     0.092 N 
HETATM   22  C21 UNL     1      15.850  17.759   3.854  1.00  0.00     0.298 C 
HETATM   23  C22 UNL     1      17.047  18.548   4.359  1.00  0.00     0.198 C 
HETATM   24  O5  UNL     1      18.102  18.507   3.455  1.00  0.00    -0.388 OA
HETATM   25  C23 UNL     1      18.099  17.264   2.824  1.00  0.00     0.198 C 
HETATM   26  C24 UNL     1      16.930  17.243   1.839  1.00  0.00     0.298 C 
ENDBRANCH  20  21
ENDBRANCH  19  20
ENDBRANCH  17  19
ENDBRANCH  13  14
BRANCH  13  27
HETATM   27  C25 UNL     1      13.717  21.858   6.744  1.00  0.00     0.232 C 
HETATM   28  O6  UNL     1      13.306  20.731   6.420  1.00  0.00    -0.273 OA
HETATM   29  N3  UNL     1      14.508  21.992   7.895  1.00  0.00    -0.356 N 
ATOM     30  H3  UNL     1      14.839  22.922   8.152  1.00  0.00     0.162 HD
BRANCH  29  31
HETATM   31  C26 UNL     1      14.875  20.874   8.732  1.00  0.00     0.076 C 
HETATM   32  C27 UNL     1      14.393  21.182  10.133  1.00  0.00     0.032 C 
HETATM   33  C28 UNL     1      16.373  20.641   8.718  1.00  0.00     0.032 C 
ENDBRANCH  29  31
ENDBRANCH  13  27
ENDBRANCH   8  13
BRANCH   5  34
HETATM   34  C8  UNL     1       8.959  24.194   4.893  1.00  0.00     0.022 C 
BRANCH  34  35
HETATM   35  C9  UNL     1       8.229  24.576   3.683  1.00  0.00    -0.013 C 
HETATM   36  C10 UNL     1       8.003  23.556   2.619  1.00  0.00     0.005 C 
HETATM   37  C11 UNL     1       6.776  24.040   1.837  1.00  0.00     0.000 C 
HETATM   38  C12 UNL     1       6.052  24.998   2.737  1.00  0.00     0.000 C 
HETATM   39  C13 UNL     1       6.760  24.901   4.053  1.00  0.00     0.005 C 
ENDBRANCH  34  35
ENDBRANCH   5  34
BRANCH   1  40
HETATM   40  C2  UNL     1       8.967  26.006   8.982  1.00  0.00     0.158 C 
HETATM   41  C1  UNL     1       9.343  27.310   9.531  1.00  0.00     0.094 C 
HETATM   42  O1  UNL     1       8.781  25.100   9.820  1.00  0.00    -0.295 OA
ENDBRANCH   1  40
BRANCH   1  43
HETATM   43  O2  UNL     1       7.760  24.619   7.628  1.00  0.00    -0.381 OA
ATOM     44  H2  UNL     1       6.958  25.126   7.641  1.00  0.00     0.211 HD
ENDBRANCH   1  43
TORSDOF 11
ENDMDL
