MODEL 1
REMARK VINA RESULT: -8.841780695      0.000      0.000
REMARK  12 active torsions:
REMARK  status: ('A' for Active; 'I' for Inactive)
REMARK    1  A    between atoms: C2_2  and  C3_3 
REMARK    2  A    between atoms: C3_3  and  N1_4 
REMARK    3  A    between atoms: C3_3  and  C25_37 
REMARK    4  A    between atoms: N1_4  and  C4_7 
REMARK    5  A    between atoms: C4_7  and  C6_9 
REMARK       I    between atoms: N2_14  and  C11_15 
REMARK    6  A    between atoms: C11_15  and  C12_17 
REMARK    7  A    between atoms: C12_17  and  N3_18 
REMARK    8  A    between atoms: C12_17  and  C21_33 
REMARK       I    between atoms: N3_18  and  C13_20 
REMARK    9  A    between atoms: C13_20  and  O3_22 
REMARK   10  A    between atoms: O3_22  and  C14_23 
REMARK   11  A    between atoms: C17_26  and  C18_27 
REMARK   12  A    between atoms: C18_27  and  S1_28 
REMARK       I    between atoms: C25_37  and  N4_39 
ROOT
HETATM    1  C6  UNL     1      11.520  24.448   5.677  1.00  0.00     0.117 C 
HETATM    2  C7  UNL     1      11.329  25.480   6.734  1.00  0.00     0.027 C 
HETATM    3  C8  UNL     1      10.628  24.965   7.974  1.00  0.00     0.004 C 
HETATM    4  C9  UNL     1       9.512  24.008   7.625  1.00  0.00     0.020 C 
HETATM    5  C10 UNL     1       9.952  22.895   6.740  1.00  0.00     0.126 C 
HETATM    6  N2  UNL     1      11.328  23.133   6.258  1.00  0.00    -0.344 N 
HETATM    7  C11 UNL     1      12.271  22.116   6.385  1.00  0.00     0.243 C 
HETATM    8  O1  UNL     1      11.853  21.017   6.917  1.00  0.00    -0.271 OA
ENDROOT
BRANCH   7   9
HETATM    9  C12 UNL     1      13.687  22.108   5.990  1.00  0.00     0.186 C 
BRANCH   9  10
HETATM   10  N3  UNL     1      13.867  20.904   5.174  1.00  0.00    -0.323 N 
HETATM   11  C13 UNL     1      14.270  20.937   3.812  1.00  0.00     0.361 C 
HETATM   12  O2  UNL     1      14.507  22.032   3.218  1.00  0.00    -0.238 OA
ATOM     13  H3  UNL     1      13.693  19.996   5.606  1.00  0.00     0.165 HD
BRANCH  11  14
HETATM   14  O3  UNL     1      14.431  19.801   3.048  1.00  0.00    -0.299 OA
BRANCH  14  15
HETATM   15  C14 UNL     1      15.651  19.151   2.993  1.00  0.00     0.134 C 
HETATM   16  C15 UNL     1      15.933  18.472   1.670  1.00  0.00     0.033 C 
HETATM   17  C16 UNL     1      17.202  17.696   2.063  1.00  0.00     0.008 C 
HETATM   18  C17 UNL     1      17.039  17.317   3.480  1.00  0.00     0.002 C 
HETATM   19  C20 UNL     1      15.808  18.032   3.969  1.00  0.00     0.038 C 
BRANCH  18  20
HETATM   20  C18 UNL     1      18.172  17.682   4.399  1.00  0.00     0.144 C 
BRANCH  20  21
HETATM   21  S1  UNL     1      18.697  16.369   5.441  1.00  0.00     0.141 S 
HETATM   22  C19 UNL     1      19.865  15.379   4.507  1.00  0.00     0.161 C 
HETATM   23  O4  UNL     1      19.446  16.876   6.644  1.00  0.00    -0.228 OA
HETATM   24  O5  UNL     1      17.594  15.432   5.836  1.00  0.00    -0.228 OA
ENDBRANCH  20  21
ENDBRANCH  18  20
ENDBRANCH  14  15
ENDBRANCH  11  14
ENDBRANCH   9  10
BRANCH   9  25
HETATM   25  C21 UNL     1      14.571  21.986   7.225  1.00  0.00    -0.022 C 
HETATM   26  C22 UNL     1      15.621  23.053   7.223  1.00  0.00     0.017 C 
HETATM   27  C23 UNL     1      13.796  22.121   8.512  1.00  0.00     0.017 C 
HETATM   28  C24 UNL     1      15.312  20.641   7.179  1.00  0.00     0.017 C 
ENDBRANCH   9  25
ENDBRANCH   7   9
BRANCH   1  29
HETATM   29  C4  UNL     1      10.657  24.654   4.460  1.00  0.00     0.205 C 
HETATM   30  C5  UNL     1      11.466  24.542   3.213  1.00  0.00     0.042 C 
BRANCH  29  31
HETATM   31  N1  UNL     1       9.981  25.930   4.572  1.00  0.00    -0.057 N 
ATOM     32  H12 UNL     1      10.333  26.609   3.898  1.00  0.00     0.278 HD
ATOM     33  H11 UNL     1      10.237  26.423   5.428  1.00  0.00     0.278 HD
BRANCH  31  34
HETATM   34  C3  UNL     1       8.526  25.742   4.458  1.00  0.00     0.277 C 
BRANCH  34  35
HETATM   35  C2  UNL     1       8.231  26.203   3.015  1.00  0.00     0.038 C 
HETATM   36  C1  UNL     1       7.708  25.046   2.193  1.00  0.00     0.007 C 
ENDBRANCH  34  35
BRANCH  34  37
HETATM   37  C25 UNL     1       7.865  26.696   5.376  1.00  0.00     0.250 C 
HETATM   38  O6  UNL     1       8.595  27.495   6.062  1.00  0.00    -0.271 OA
HETATM   39  N4  UNL     1       6.474  26.808   5.572  1.00  0.00    -0.350 N 
HETATM   40  C26 UNL     1       5.433  26.023   4.995  1.00  0.00     0.126 C 
HETATM   41  C29 UNL     1       5.793  27.785   6.426  1.00  0.00     0.126 C 
HETATM   42  C27 UNL     1       4.248  26.955   4.812  1.00  0.00     0.021 C 
HETATM   43  C28 UNL     1       4.619  28.218   5.565  1.00  0.00     0.021 C 
ENDBRANCH  34  37
ENDBRANCH  31  34
ENDBRANCH  29  31
ENDBRANCH   1  29
TORSDOF 12
ENDMDL
MODEL 2
REMARK VINA RESULT: -8.262967805      2.789      4.569
REMARK  12 active torsions:
REMARK  status: ('A' for Active; 'I' for Inactive)
REMARK    1  A    between atoms: C2_2  and  C3_3 
REMARK    2  A    between atoms: C3_3  and  N1_4 
REMARK    3  A    between atoms: C3_3  and  C25_37 
REMARK    4  A    between atoms: N1_4  and  C4_7 
REMARK    5  A    between atoms: C4_7  and  C6_9 
REMARK       I    between atoms: N2_14  and  C11_15 
REMARK    6  A    between atoms: C11_15  and  C12_17 
REMARK    7  A    between atoms: C12_17  and  N3_18 
REMARK    8  A    between atoms: C12_17  and  C21_33 
REMARK       I    between atoms: N3_18  and  C13_20 
REMARK    9  A    between atoms: C13_20  and  O3_22 
REMARK   10  A    between atoms: O3_22  and  C14_23 
REMARK   11  A    between atoms: C17_26  and  C18_27 
REMARK   12  A    between atoms: C18_27  and  S1_28 
REMARK       I    between atoms: C25_37  and  N4_39 
ROOT
HETATM    1  C6  UNL     1      10.877  23.044   5.158  1.00  0.00     0.117 C 
HETATM    2  C7  UNL     1      10.058  22.886   3.924  1.00  0.00     0.027 C 
HETATM    3  C8  UNL     1      10.609  23.626   2.722  1.00  0.00     0.004 C 
HETATM    4  C9  UNL     1      11.164  24.977   3.108  1.00  0.00     0.020 C 
HETATM    5  C10 UNL     1      12.157  24.907   4.214  1.00  0.00     0.126 C 
HETATM    6  N2  UNL     1      12.187  23.549   4.795  1.00  0.00    -0.344 N 
HETATM    7  C11 UNL     1      13.415  22.910   4.949  1.00  0.00     0.243 C 
HETATM    8  O1  UNL     1      14.453  23.577   4.572  1.00  0.00    -0.271 OA
ENDROOT
BRANCH   7   9
HETATM    9  C12 UNL     1      13.706  21.575   5.490  1.00  0.00     0.186 C 
BRANCH   9  10
HETATM   10  N3  UNL     1      14.637  21.789   6.601  1.00  0.00    -0.323 N 
HETATM   11  C13 UNL     1      14.226  21.873   7.958  1.00  0.00     0.361 C 
HETATM   12  O2  UNL     1      13.008  21.759   8.291  1.00  0.00    -0.238 OA
ATOM     13  H3  UNL     1      15.630  21.883   6.389  1.00  0.00     0.165 HD
BRANCH  11  14
HETATM   14  O3  UNL     1      15.107  22.081   8.999  1.00  0.00    -0.299 OA
BRANCH  14  15
HETATM   15  C14 UNL     1      16.035  21.115   9.345  1.00  0.00     0.134 C 
HETATM   16  C15 UNL     1      17.253  21.076   8.448  1.00  0.00     0.033 C 
HETATM   17  C16 UNL     1      17.900  19.783   8.975  1.00  0.00     0.008 C 
HETATM   18  C17 UNL     1      16.792  18.889   9.363  1.00  0.00     0.002 C 
HETATM   19  C20 UNL     1      15.534  19.710   9.267  1.00  0.00     0.038 C 
BRANCH  18  20
HETATM   20  C18 UNL     1      16.857  18.315  10.750  1.00  0.00     0.144 C 
BRANCH  20  21
HETATM   21  S1  UNL     1      16.682  16.568  10.810  1.00  0.00     0.141 S 
HETATM   22  C19 UNL     1      17.484  15.901   9.350  1.00  0.00     0.161 C 
HETATM   23  O4  UNL     1      17.403  15.974  11.990  1.00  0.00    -0.228 OA
HETATM   24  O5  UNL     1      15.259  16.099  10.742  1.00  0.00    -0.228 OA
ENDBRANCH  20  21
ENDBRANCH  18  20
ENDBRANCH  14  15
ENDBRANCH  11  14
ENDBRANCH   9  10
BRANCH   9  25
HETATM   25  C21 UNL     1      14.405  20.726   4.436  1.00  0.00    -0.022 C 
HETATM   26  C22 UNL     1      13.943  19.305   4.520  1.00  0.00     0.017 C 
HETATM   27  C23 UNL     1      14.135  21.203   3.031  1.00  0.00     0.017 C 
HETATM   28  C24 UNL     1      15.914  20.715   4.722  1.00  0.00     0.017 C 
ENDBRANCH   9  25
ENDBRANCH   7   9
BRANCH   1  29
HETATM   29  C4  UNL     1      10.225  23.890   6.220  1.00  0.00     0.205 C 
HETATM   30  C5  UNL     1      10.058  23.116   7.482  1.00  0.00     0.042 C 
BRANCH  29  31
HETATM   31  N1  UNL     1       8.969  24.400   5.710  1.00  0.00    -0.057 N 
ATOM     32  H12 UNL     1       8.177  23.832   6.008  1.00  0.00     0.278 HD
ATOM     33  H11 UNL     1       8.882  24.262   4.703  1.00  0.00     0.278 HD
BRANCH  31  34
HETATM   34  C3  UNL     1       8.808  25.814   6.087  1.00  0.00     0.277 C 
BRANCH  34  35
HETATM   35  C2  UNL     1       7.703  25.759   7.163  1.00  0.00     0.038 C 
HETATM   36  C1  UNL     1       8.237  26.257   8.489  1.00  0.00     0.007 C 
ENDBRANCH  34  35
BRANCH  34  37
HETATM   37  C25 UNL     1       8.263  26.543   4.922  1.00  0.00     0.250 C 
HETATM   38  O6  UNL     1       8.505  27.797   4.814  1.00  0.00    -0.271 OA
HETATM   39  N4  UNL     1       7.481  25.975   3.897  1.00  0.00    -0.350 N 
HETATM   40  C26 UNL     1       7.012  24.633   3.784  1.00  0.00     0.126 C 
HETATM   41  C29 UNL     1       6.983  26.661   2.701  1.00  0.00     0.126 C 
HETATM   42  C27 UNL     1       6.996  24.312   2.300  1.00  0.00     0.021 C 
HETATM   43  C28 UNL     1       7.230  25.639   1.605  1.00  0.00     0.021 C 
ENDBRANCH  34  37
ENDBRANCH  31  34
ENDBRANCH  29  31
ENDBRANCH   1  29
TORSDOF 12
ENDMDL
MODEL 3
REMARK VINA RESULT: -8.179110713      1.115      1.396
REMARK  12 active torsions:
REMARK  status: ('A' for Active; 'I' for Inactive)
REMARK    1  A    between atoms: C2_2  and  C3_3 
REMARK    2  A    between atoms: C3_3  and  N1_4 
REMARK    3  A    between atoms: C3_3  and  C25_37 
REMARK    4  A    between atoms: N1_4  and  C4_7 
REMARK    5  A    between atoms: C4_7  and  C6_9 
REMARK       I    between atoms: N2_14  and  C11_15 
REMARK    6  A    between atoms: C11_15  and  C12_17 
REMARK    7  A    between atoms: C12_17  and  N3_18 
REMARK    8  A    between atoms: C12_17  and  C21_33 
REMARK       I    between atoms: N3_18  and  C13_20 
REMARK    9  A    between atoms: C13_20  and  O3_22 
REMARK   10  A    between atoms: O3_22  and  C14_23 
REMARK   11  A    between atoms: C17_26  and  C18_27 
REMARK   12  A    between atoms: C18_27  and  S1_28 
REMARK       I    between atoms: C25_37  and  N4_39 
ROOT
HETATM    1  C6  UNL     1      11.247  24.283   5.372  1.00  0.00     0.117 C 
HETATM    2  C7  UNL     1      11.044  25.582   6.072  1.00  0.00     0.027 C 
HETATM    3  C8  UNL     1      10.522  25.442   7.488  1.00  0.00     0.004 C 
HETATM    4  C9  UNL     1       9.492  24.342   7.594  1.00  0.00     0.020 C 
HETATM    5  C10 UNL     1       9.968  23.041   7.051  1.00  0.00     0.126 C 
HETATM    6  N2  UNL     1      11.257  23.214   6.352  1.00  0.00    -0.344 N 
HETATM    7  C11 UNL     1      12.315  22.366   6.671  1.00  0.00     0.243 C 
HETATM    8  O1  UNL     1      12.073  21.467   7.565  1.00  0.00    -0.271 OA
ENDROOT
BRANCH   7   9
HETATM    9  C12 UNL     1      13.680  22.337   6.126  1.00  0.00     0.186 C 
BRANCH   9  10
HETATM   10  N3  UNL     1      13.714  21.209   5.192  1.00  0.00    -0.323 N 
HETATM   11  C13 UNL     1      14.131  21.327   3.840  1.00  0.00     0.361 C 
HETATM   12  O2  UNL     1      14.510  22.437   3.357  1.00  0.00    -0.238 OA
ATOM     13  H3  UNL     1      13.423  20.291   5.531  1.00  0.00     0.165 HD
BRANCH  11  14
HETATM   14  O3  UNL     1      14.155  20.262   2.964  1.00  0.00    -0.299 OA
BRANCH  14  15
HETATM   15  C14 UNL     1      15.311  19.527   2.774  1.00  0.00     0.134 C 
HETATM   16  C15 UNL     1      15.344  18.746   1.478  1.00  0.00     0.033 C 
HETATM   17  C16 UNL     1      16.611  17.911   1.731  1.00  0.00     0.008 C 
HETATM   18  C17 UNL     1      16.648  17.636   3.180  1.00  0.00     0.002 C 
HETATM   19  C20 UNL     1      15.551  18.464   3.795  1.00  0.00     0.038 C 
BRANCH  18  20
HETATM   20  C18 UNL     1      17.929  17.979   3.888  1.00  0.00     0.144 C 
BRANCH  20  21
HETATM   21  S1  UNL     1      18.399  16.817   5.118  1.00  0.00     0.141 S 
HETATM   22  C19 UNL     1      19.686  15.784   4.416  1.00  0.00     0.161 C 
HETATM   23  O4  UNL     1      19.011  17.490   6.318  1.00  0.00    -0.228 OA
HETATM   24  O5  UNL     1      17.298  15.880   5.518  1.00  0.00    -0.228 OA
ENDBRANCH  20  21
ENDBRANCH  18  20
ENDBRANCH  14  15
ENDBRANCH  11  14
ENDBRANCH   9  10
BRANCH   9  25
HETATM   25  C21 UNL     1      14.681  22.066   7.242  1.00  0.00    -0.022 C 
HETATM   26  C22 UNL     1      15.729  23.134   7.275  1.00  0.00     0.017 C 
HETATM   27  C23 UNL     1      14.036  22.028   8.606  1.00  0.00     0.017 C 
HETATM   28  C24 UNL     1      15.409  20.745   6.952  1.00  0.00     0.017 C 
ENDBRANCH   9  25
ENDBRANCH   7   9
BRANCH   1  29
HETATM   29  C4  UNL     1      10.257  24.022   4.268  1.00  0.00     0.205 C 
HETATM   30  C5  UNL     1      10.888  23.244   3.166  1.00  0.00     0.042 C 
BRANCH  29  31
HETATM   31  N1  UNL     1       9.712  25.286   3.817  1.00  0.00    -0.057 N 
ATOM     32  H12 UNL     1      10.415  25.859   3.351  1.00  0.00     0.278 HD
ATOM     33  H11 UNL     1       9.501  25.911   4.595  1.00  0.00     0.278 HD
BRANCH  31  34
HETATM   34  C3  UNL     1       8.536  25.052   2.963  1.00  0.00     0.277 C 
BRANCH  34  35
HETATM   35  C2  UNL     1       8.566  26.257   1.999  1.00  0.00     0.038 C 
HETATM   36  C1  UNL     1       7.443  26.149   0.990  1.00  0.00     0.007 C 
ENDBRANCH  34  35
BRANCH  34  37
HETATM   37  C25 UNL     1       7.325  25.180   3.802  1.00  0.00     0.250 C 
HETATM   38  O6  UNL     1       6.411  24.287   3.701  1.00  0.00    -0.271 OA
HETATM   39  N4  UNL     1       7.075  26.218   4.721  1.00  0.00    -0.350 N 
HETATM   40  C26 UNL     1       7.877  27.364   5.000  1.00  0.00     0.126 C 
HETATM   41  C29 UNL     1       5.914  26.333   5.608  1.00  0.00     0.126 C 
HETATM   42  C27 UNL     1       7.690  27.665   6.477  1.00  0.00     0.021 C 
HETATM   43  C28 UNL     1       6.540  26.781   6.918  1.00  0.00     0.021 C 
ENDBRANCH  34  37
ENDBRANCH  31  34
ENDBRANCH  29  31
ENDBRANCH   1  29
TORSDOF 12
ENDMDL
MODEL 4
REMARK VINA RESULT: -7.935089784      1.799      2.307
REMARK  12 active torsions:
REMARK  status: ('A' for Active; 'I' for Inactive)
REMARK    1  A    between atoms: C2_2  and  C3_3 
REMARK    2  A    between atoms: C3_3  and  N1_4 
REMARK    3  A    between atoms: C3_3  and  C25_37 
REMARK    4  A    between atoms: N1_4  and  C4_7 
REMARK    5  A    between atoms: C4_7  and  C6_9 
REMARK       I    between atoms: N2_14  and  C11_15 
REMARK    6  A    between atoms: C11_15  and  C12_17 
REMARK    7  A    between atoms: C12_17  and  N3_18 
REMARK    8  A    between atoms: C12_17  and  C21_33 
REMARK       I    between atoms: N3_18  and  C13_20 
REMARK    9  A    between atoms: C13_20  and  O3_22 
REMARK   10  A    between atoms: O3_22  and  C14_23 
REMARK   11  A    between atoms: C17_26  and  C18_27 
REMARK   12  A    between atoms: C18_27  and  S1_28 
REMARK       I    between atoms: C25_37  and  N4_39 
ROOT
HETATM    1  C6  UNL     1      12.230  23.932   6.106  1.00  0.00     0.117 C 
HETATM    2  C7  UNL     1      11.854  24.430   7.459  1.00  0.00     0.027 C 
HETATM    3  C8  UNL     1      11.099  23.418   8.297  1.00  0.00     0.004 C 
HETATM    4  C9  UNL     1      10.112  22.633   7.465  1.00  0.00     0.020 C 
HETATM    5  C10 UNL     1      10.728  22.004   6.266  1.00  0.00     0.126 C 
HETATM    6  N2  UNL     1      12.112  22.487   6.084  1.00  0.00    -0.344 N 
HETATM    7  C11 UNL     1      13.131  21.555   5.900  1.00  0.00     0.243 C 
HETATM    8  O1  UNL     1      12.773  20.316   5.893  1.00  0.00    -0.271 OA
ENDROOT
BRANCH   7   9
HETATM    9  C12 UNL     1      14.571  21.780   5.704  1.00  0.00     0.186 C 
BRANCH   9  10
HETATM   10  N3  UNL     1      15.055  20.621   4.949  1.00  0.00    -0.323 N 
HETATM   11  C13 UNL     1      14.830  20.446   3.557  1.00  0.00     0.361 C 
HETATM   12  O2  UNL     1      14.188  21.303   2.877  1.00  0.00    -0.238 OA
ATOM     13  H3  UNL     1      15.582  19.904   5.448  1.00  0.00     0.165 HD
BRANCH  11  14
HETATM   14  O3  UNL     1      15.283  19.350   2.853  1.00  0.00    -0.299 OA
BRANCH  14  15
HETATM   15  C14 UNL     1      16.430  18.683   3.245  1.00  0.00     0.134 C 
HETATM   16  C15 UNL     1      17.161  17.992   2.115  1.00  0.00     0.033 C 
HETATM   17  C16 UNL     1      18.189  17.199   2.941  1.00  0.00     0.008 C 
HETATM   18  C17 UNL     1      17.517  16.832   4.203  1.00  0.00     0.002 C 
HETATM   19  C20 UNL     1      16.204  17.567   4.212  1.00  0.00     0.038 C 
BRANCH  18  20
HETATM   20  C18 UNL     1      18.246  17.185   5.470  1.00  0.00     0.144 C 
BRANCH  20  21
HETATM   21  S1  UNL     1      18.798  15.793   6.388  1.00  0.00     0.141 S 
HETATM   22  C19 UNL     1      19.096  14.465   5.220  1.00  0.00     0.161 C 
HETATM   23  O4  UNL     1      20.116  16.057   7.065  1.00  0.00    -0.228 OA
HETATM   24  O5  UNL     1      17.781  15.263   7.355  1.00  0.00    -0.228 OA
ENDBRANCH  20  21
ENDBRANCH  18  20
ENDBRANCH  14  15
ENDBRANCH  11  14
ENDBRANCH   9  10
BRANCH   9  25
HETATM   25  C21 UNL     1      15.283  21.806   7.050  1.00  0.00    -0.022 C 
HETATM   26  C22 UNL     1      15.912  23.145   7.281  1.00  0.00     0.017 C 
HETATM   27  C23 UNL     1      14.351  21.543   8.206  1.00  0.00     0.017 C 
HETATM   28  C24 UNL     1      16.426  20.781   7.032  1.00  0.00     0.017 C 
ENDBRANCH   9  25
ENDBRANCH   7   9
BRANCH   1  29
HETATM   29  C4  UNL     1      11.459  24.575   4.983  1.00  0.00     0.205 C 
HETATM   30  C5  UNL     1      12.382  25.260   4.034  1.00  0.00     0.042 C 
BRANCH  29  31
HETATM   31  N1  UNL     1      10.471  25.471   5.544  1.00  0.00    -0.057 N 
ATOM     32  H12 UNL     1      10.898  26.204   6.109  1.00  0.00     0.278 HD
ATOM     33  H11 UNL     1       9.918  25.022   6.274  1.00  0.00     0.278 HD
BRANCH  31  34
HETATM   34  C3  UNL     1       9.625  26.024   4.473  1.00  0.00     0.277 C 
BRANCH  34  35
HETATM   35  C2  UNL     1       8.730  27.031   5.226  1.00  0.00     0.038 C 
HETATM   36  C1  UNL     1       8.891  26.858   6.721  1.00  0.00     0.007 C 
ENDBRANCH  34  35
BRANCH  34  37
HETATM   37  C25 UNL     1       8.752  24.941   3.969  1.00  0.00     0.250 C 
HETATM   38  O6  UNL     1       8.560  23.912   4.710  1.00  0.00    -0.271 OA
HETATM   39  N4  UNL     1       8.100  24.933   2.721  1.00  0.00    -0.350 N 
HETATM   40  C26 UNL     1       8.172  25.904   1.679  1.00  0.00     0.126 C 
HETATM   41  C29 UNL     1       7.181  23.904   2.226  1.00  0.00     0.126 C 
HETATM   42  C27 UNL     1       6.804  25.924   1.019  1.00  0.00     0.021 C 
HETATM   43  C28 UNL     1       6.073  24.724   1.589  1.00  0.00     0.021 C 
ENDBRANCH  34  37
ENDBRANCH  31  34
ENDBRANCH  29  31
ENDBRANCH   1  29
TORSDOF 12
ENDMDL
MODEL 5
REMARK VINA RESULT: -7.900135292      2.201      4.386
REMARK  12 active torsions:
REMARK  status: ('A' for Active; 'I' for Inactive)
REMARK    1  A    between atoms: C2_2  and  C3_3 
REMARK    2  A    between atoms: C3_3  and  N1_4 
REMARK    3  A    between atoms: C3_3  and  C25_37 
REMARK    4  A    between atoms: N1_4  and  C4_7 
REMARK    5  A    between atoms: C4_7  and  C6_9 
REMARK       I    between atoms: N2_14  and  C11_15 
REMARK    6  A    between atoms: C11_15  and  C12_17 
REMARK    7  A    between atoms: C12_17  and  N3_18 
REMARK    8  A    between atoms: C12_17  and  C21_33 
REMARK       I    between atoms: N3_18  and  C13_20 
REMARK    9  A    between atoms: C13_20  and  O3_22 
REMARK   10  A    between atoms: O3_22  and  C14_23 
REMARK   11  A    between atoms: C17_26  and  C18_27 
REMARK   12  A    between atoms: C18_27  and  S1_28 
REMARK       I    between atoms: C25_37  and  N4_39 
ROOT
HETATM    1  C6  UNL     1      11.428  22.555   5.334  1.00  0.00     0.117 C 
HETATM    2  C7  UNL     1      10.800  22.786   4.003  1.00  0.00     0.027 C 
HETATM    3  C8  UNL     1      11.552  23.771   3.132  1.00  0.00     0.004 C 
HETATM    4  C9  UNL     1      12.088  24.930   3.940  1.00  0.00     0.020 C 
HETATM    5  C10 UNL     1      12.898  24.501   5.111  1.00  0.00     0.126 C 
HETATM    6  N2  UNL     1      12.794  23.040   5.303  1.00  0.00    -0.344 N 
HETATM    7  C11 UNL     1      13.962  22.295   5.447  1.00  0.00     0.243 C 
HETATM    8  O1  UNL     1      15.068  22.959   5.410  1.00  0.00    -0.271 OA
ENDROOT
BRANCH   7   9
HETATM    9  C12 UNL     1      14.122  20.847   5.643  1.00  0.00     0.186 C 
BRANCH   9  10
HETATM   10  N3  UNL     1      15.129  20.697   6.697  1.00  0.00    -0.323 N 
HETATM   11  C13 UNL     1      14.871  20.967   8.068  1.00  0.00     0.361 C 
HETATM   12  O2  UNL     1      13.731  21.356   8.463  1.00  0.00    -0.238 OA
ATOM     13  H3  UNL     1      16.063  20.382   6.433  1.00  0.00     0.165 HD
BRANCH  11  14
HETATM   14  O3  UNL     1      15.825  20.830   9.054  1.00  0.00    -0.299 OA
BRANCH  14  15
HETATM   15  C14 UNL     1      16.309  19.581   9.401  1.00  0.00     0.134 C 
HETATM   16  C15 UNL     1      16.966  19.528  10.763  1.00  0.00     0.033 C 
HETATM   17  C16 UNL     1      17.562  18.112  10.690  1.00  0.00     0.008 C 
HETATM   18  C17 UNL     1      17.936  17.888   9.279  1.00  0.00     0.002 C 
HETATM   19  C20 UNL     1      17.382  19.055   8.506  1.00  0.00     0.038 C 
BRANCH  18  20
HETATM   20  C18 UNL     1      17.410  16.631   8.645  1.00  0.00     0.144 C 
BRANCH  20  21
HETATM   21  S1  UNL     1      18.489  15.929   7.450  1.00  0.00     0.141 S 
HETATM   22  C19 UNL     1      18.215  16.798   5.905  1.00  0.00     0.161 C 
HETATM   23  O4  UNL     1      19.935  16.151   7.803  1.00  0.00    -0.228 OA
HETATM   24  O5  UNL     1      18.212  14.484   7.158  1.00  0.00    -0.228 OA
ENDBRANCH  20  21
ENDBRANCH  18  20
ENDBRANCH  14  15
ENDBRANCH  11  14
ENDBRANCH   9  10
BRANCH   9  25
HETATM   25  C21 UNL     1      14.660  20.205   4.371  1.00  0.00    -0.022 C 
HETATM   26  C22 UNL     1      14.146  18.805   4.236  1.00  0.00     0.017 C 
HETATM   27  C23 UNL     1      14.257  20.953   3.125  1.00  0.00     0.017 C 
HETATM   28  C24 UNL     1      16.189  20.103   4.470  1.00  0.00     0.017 C 
ENDBRANCH   9  25
ENDBRANCH   7   9
BRANCH   1  29
HETATM   29  C4  UNL     1      10.651  23.140   6.485  1.00  0.00     0.205 C 
HETATM   30  C5  UNL     1      10.295  22.082   7.472  1.00  0.00     0.042 C 
BRANCH  29  31
HETATM   31  N1  UNL     1       9.490  23.831   5.966  1.00  0.00    -0.057 N 
ATOM     32  H12 UNL     1       8.626  23.324   6.159  1.00  0.00     0.278 HD
ATOM     33  H11 UNL     1       9.453  23.804   4.947  1.00  0.00     0.278 HD
BRANCH  31  34
HETATM   34  C3  UNL     1       9.449  25.208   6.483  1.00  0.00     0.277 C 
BRANCH  34  35
HETATM   35  C2  UNL     1       8.465  25.102   7.667  1.00  0.00     0.038 C 
HETATM   36  C1  UNL     1       8.921  25.986   8.808  1.00  0.00     0.007 C 
ENDBRANCH  34  35
BRANCH  34  37
HETATM   37  C25 UNL     1       8.821  26.068   5.456  1.00  0.00     0.250 C 
HETATM   38  O6  UNL     1       8.933  27.340   5.568  1.00  0.00    -0.271 OA
HETATM   39  N4  UNL     1       8.093  25.608   4.341  1.00  0.00    -0.350 N 
HETATM   40  C26 UNL     1       7.763  24.265   3.993  1.00  0.00     0.126 C 
HETATM   41  C29 UNL     1       7.517  26.435   3.277  1.00  0.00     0.126 C 
HETATM   42  C27 UNL     1       7.767  24.205   2.476  1.00  0.00     0.021 C 
HETATM   43  C28 UNL     1       7.858  25.649   2.023  1.00  0.00     0.021 C 
ENDBRANCH  34  37
ENDBRANCH  31  34
ENDBRANCH  29  31
ENDBRANCH   1  29
TORSDOF 12
ENDMDL
