MODEL 1
REMARK VINA RESULT: -9.615348158      0.000      0.000
REMARK  12 active torsions:
REMARK  status: ('A' for Active; 'I' for Inactive)
REMARK    1  A    between atoms: C1_2  and  C2_3 
REMARK       I    between atoms: C1_2  and  N1_10 
REMARK    2  A    between atoms: C2_3  and  C3_4 
REMARK    3  A    between atoms: N1_10  and  C9_12 
REMARK    4  A    between atoms: C9_12  and  C10_13 
REMARK    5  A    between atoms: C10_13  and  S1_14 
REMARK    6  A    between atoms: S1_14  and  N2_17 
REMARK    7  A    between atoms: C13_20  and  C14_21 
REMARK    8  A    between atoms: C14_21  and  C15_22 
REMARK    9  A    between atoms: C15_22  and  C16_23 
REMARK   10  A    between atoms: C16_23  and  C17_25 
REMARK   11  A    between atoms: C19_29  and  N4_30 
REMARK   12  A    between atoms: N4_30  and  C20_32 
ROOT
HETATM    1  N2  UNL     1       9.633  26.433   7.469  1.00  0.00    -0.211 NA
HETATM    2  C11 UNL     1      10.867  26.552   8.226  1.00  0.00     0.107 C 
HETATM    3  C12 UNL     1      11.576  25.198   8.276  1.00  0.00     0.020 C 
HETATM    4  C13 UNL     1      11.303  24.426   7.003  1.00  0.00    -0.012 C 
HETATM    5  C23 UNL     1       9.826  24.109   6.957  1.00  0.00     0.020 C 
HETATM    6  C24 UNL     1       9.077  25.147   7.724  1.00  0.00     0.107 C 
ENDROOT
BRANCH   1   7
HETATM    7  S1  UNL     1       8.608  27.760   7.706  1.00  0.00     0.213 S 
HETATM    8  O2  UNL     1       7.791  27.600   8.969  1.00  0.00    -0.211 OA
HETATM    9  O3  UNL     1       9.509  28.962   8.000  1.00  0.00    -0.211 OA
BRANCH   7  10
HETATM   10  C10 UNL     1       7.625  28.198   6.307  1.00  0.00     0.188 C 
BRANCH  10  11
HETATM   11  C9  UNL     1       6.497  27.230   6.027  1.00  0.00     0.047 A 
HETATM   12  C25 UNL     1       5.595  27.137   7.242  1.00  0.00     0.032 A 
HETATM   13  C26 UNL     1       4.489  27.904   6.567  1.00  0.00     0.005 A 
HETATM   14  C27 UNL     1       5.355  27.889   5.301  1.00  0.00     0.032 A 
BRANCH  11  15
HETATM   15  N1  UNL     1       6.881  25.992   5.452  1.00  0.00    -0.351 N 
HETATM   16  C1  UNL     1       7.200  25.771   4.090  1.00  0.00     0.218 C 
HETATM   17  O1  UNL     1       7.134  26.756   3.314  1.00  0.00    -0.274 OA
ATOM     18  H1  UNL     1       6.933  25.186   6.077  1.00  0.00     0.163 HD
BRANCH  16  19
HETATM   19  C2  UNL     1       7.600  24.434   3.584  1.00  0.00     0.107 C 
BRANCH  19  20
HETATM   20  C3  UNL     1       8.765  24.405   2.679  1.00  0.00    -0.006 C 
HETATM   21  C4  UNL     1       9.132  23.099   2.075  1.00  0.00     0.005 C 
HETATM   22  C5  UNL     1       9.856  22.189   3.052  1.00  0.00     0.000 C 
HETATM   23  C6  UNL     1      11.173  22.814   3.427  1.00  0.00     0.000 C 
HETATM   24  C7  UNL     1      11.240  24.287   3.061  1.00  0.00     0.000 C 
HETATM   25  C8  UNL     1       9.960  24.953   3.476  1.00  0.00     0.005 C 
ENDBRANCH  19  20
ENDBRANCH  16  19
ENDBRANCH  11  15
ENDBRANCH  10  11
ENDBRANCH   7  10
ENDBRANCH   1   7
BRANCH   4  26
HETATM   26  C14 UNL     1      12.056  23.121   6.998  1.00  0.00     0.012 C 
BRANCH  26  27
HETATM   27  C15 UNL     1      13.546  23.274   7.089  1.00  0.00     0.085 C 
BRANCH  27  28
HETATM   28  C16 UNL     1      14.120  23.096   5.740  1.00  0.00     0.167 C 
HETATM   29  O4  UNL     1      14.303  24.065   5.002  1.00  0.00    -0.292 OA
BRANCH  28  30
HETATM   30  C17 UNL     1      14.463  21.735   5.311  1.00  0.00     0.069 A 
HETATM   31  C18 UNL     1      14.878  20.666   6.055  1.00  0.00     0.113 A 
HETATM   32  N3  UNL     1      15.125  19.550   5.437  1.00  0.00    -0.345 N 
HETATM   33  C19 UNL     1      14.963  19.499   4.114  1.00  0.00     0.145 A 
ATOM     34  H3  UNL     1      15.437  18.728   5.954  1.00  0.00     0.167 HD
HETATM   35  S2  UNL     1      14.446  21.081   3.733  1.00  0.00    -0.049 SA
BRANCH  33  36
HETATM   36  N4  UNL     1      15.160  18.468   3.316  1.00  0.00    -0.366 N 
ATOM     37  H4  UNL     1      14.598  17.619   3.365  1.00  0.00     0.162 HD
BRANCH  36  38
HETATM   38  C20 UNL     1      16.246  18.639   2.356  1.00  0.00     0.083 A 
HETATM   39  C21 UNL     1      17.616  18.524   2.982  1.00  0.00     0.027 A 
HETATM   40  C22 UNL     1      17.095  17.498   1.991  1.00  0.00     0.027 A 
ENDBRANCH  36  38
ENDBRANCH  33  36
ENDBRANCH  28  30
ENDBRANCH  27  28
ENDBRANCH  26  27
ENDBRANCH   4  26
TORSDOF 12
ENDMDL
MODEL 2
REMARK VINA RESULT: -9.399354833      2.825      5.510
REMARK  12 active torsions:
REMARK  status: ('A' for Active; 'I' for Inactive)
REMARK    1  A    between atoms: C1_2  and  C2_3 
REMARK       I    between atoms: C1_2  and  N1_10 
REMARK    2  A    between atoms: C2_3  and  C3_4 
REMARK    3  A    between atoms: N1_10  and  C9_12 
REMARK    4  A    between atoms: C9_12  and  C10_13 
REMARK    5  A    between atoms: C10_13  and  S1_14 
REMARK    6  A    between atoms: S1_14  and  N2_17 
REMARK    7  A    between atoms: C13_20  and  C14_21 
REMARK    8  A    between atoms: C14_21  and  C15_22 
REMARK    9  A    between atoms: C15_22  and  C16_23 
REMARK   10  A    between atoms: C16_23  and  C17_25 
REMARK   11  A    between atoms: C19_29  and  N4_30 
REMARK   12  A    between atoms: N4_30  and  C20_32 
ROOT
HETATM    1  N2  UNL     1      13.283  22.715   5.633  1.00  0.00    -0.211 NA
HETATM    2  C11 UNL     1      12.989  21.913   6.808  1.00  0.00     0.107 C 
HETATM    3  C12 UNL     1      14.258  21.733   7.643  1.00  0.00     0.020 C 
HETATM    4  C13 UNL     1      15.138  22.958   7.514  1.00  0.00    -0.012 C 
HETATM    5  C23 UNL     1      15.606  23.047   6.080  1.00  0.00     0.020 C 
HETATM    6  C24 UNL     1      14.600  22.392   5.194  1.00  0.00     0.107 C 
ENDROOT
BRANCH   1   7
HETATM    7  S1  UNL     1      12.055  22.621   4.472  1.00  0.00     0.213 S 
HETATM    8  O2  UNL     1      12.468  21.745   3.310  1.00  0.00    -0.211 OA
HETATM    9  O3  UNL     1      10.899  21.854   5.119  1.00  0.00    -0.211 OA
BRANCH   7  10
HETATM   10  C10 UNL     1      11.400  24.177   3.957  1.00  0.00     0.188 C 
BRANCH  10  11
HETATM   11  C9  UNL     1      10.240  24.660   4.800  1.00  0.00     0.047 A 
HETATM   12  C25 UNL     1       9.797  26.027   4.318  1.00  0.00     0.032 A 
HETATM   13  C26 UNL     1       8.531  25.481   3.714  1.00  0.00     0.005 A 
HETATM   14  C27 UNL     1       8.922  24.123   4.309  1.00  0.00     0.032 A 
BRANCH  11  15
HETATM   15  N1  UNL     1      10.407  24.528   6.203  1.00  0.00    -0.351 N 
HETATM   16  C1  UNL     1      11.398  25.168   6.985  1.00  0.00     0.218 C 
HETATM   17  O1  UNL     1      12.211  25.917   6.389  1.00  0.00    -0.274 OA
ATOM     18  H1  UNL     1       9.753  23.917   6.692  1.00  0.00     0.163 HD
BRANCH  16  19
HETATM   19  C2  UNL     1      11.488  24.971   8.454  1.00  0.00     0.107 C 
BRANCH  19  20
HETATM   20  C3  UNL     1      10.681  25.887   9.282  1.00  0.00    -0.006 C 
HETATM   21  C4  UNL     1       9.387  25.381   9.803  1.00  0.00     0.005 C 
HETATM   22  C5  UNL     1       8.299  25.365   8.744  1.00  0.00     0.000 C 
HETATM   23  C6  UNL     1       8.006  26.778   8.315  1.00  0.00     0.000 C 
HETATM   24  C7  UNL     1       9.092  27.749   8.741  1.00  0.00     0.000 C 
HETATM   25  C8  UNL     1      10.434  27.148   8.438  1.00  0.00     0.005 C 
ENDBRANCH  19  20
ENDBRANCH  16  19
ENDBRANCH  11  15
ENDBRANCH  10  11
ENDBRANCH   7  10
ENDBRANCH   1   7
BRANCH   4  26
HETATM   26  C14 UNL     1      16.357  22.835   8.391  1.00  0.00     0.012 C 
BRANCH  26  27
HETATM   27  C15 UNL     1      16.648  21.433   8.839  1.00  0.00     0.085 C 
BRANCH  27  28
HETATM   28  C16 UNL     1      17.983  21.047   8.337  1.00  0.00     0.167 C 
HETATM   29  O4  UNL     1      18.994  21.631   8.730  1.00  0.00    -0.292 OA
BRANCH  28  30
HETATM   30  C17 UNL     1      18.063  19.954   7.363  1.00  0.00     0.069 A 
HETATM   31  C18 UNL     1      18.307  18.624   7.563  1.00  0.00     0.113 A 
HETATM   32  N3  UNL     1      18.330  17.842   6.526  1.00  0.00    -0.345 N 
HETATM   33  C19 UNL     1      18.114  18.369   5.320  1.00  0.00     0.145 A 
ATOM     34  H3  UNL     1      18.509  16.844   6.631  1.00  0.00     0.167 HD
HETATM   35  S2  UNL     1      17.874  20.024   5.666  1.00  0.00    -0.049 SA
BRANCH  33  36
HETATM   36  N4  UNL     1      18.097  17.747   4.158  1.00  0.00    -0.366 N 
ATOM     37  H4  UNL     1      18.525  16.833   4.018  1.00  0.00     0.162 HD
BRANCH  36  38
HETATM   38  C20 UNL     1      17.415  18.469   3.088  1.00  0.00     0.083 A 
HETATM   39  C21 UNL     1      17.059  17.592   1.912  1.00  0.00     0.027 A 
HETATM   40  C22 UNL     1      15.999  18.209   2.807  1.00  0.00     0.027 A 
ENDBRANCH  36  38
ENDBRANCH  33  36
ENDBRANCH  28  30
ENDBRANCH  27  28
ENDBRANCH  26  27
ENDBRANCH   4  26
TORSDOF 12
ENDMDL
MODEL 3
REMARK VINA RESULT: -9.364225130      1.310      1.608
REMARK  12 active torsions:
REMARK  status: ('A' for Active; 'I' for Inactive)
REMARK    1  A    between atoms: C1_2  and  C2_3 
REMARK       I    between atoms: C1_2  and  N1_10 
REMARK    2  A    between atoms: C2_3  and  C3_4 
REMARK    3  A    between atoms: N1_10  and  C9_12 
REMARK    4  A    between atoms: C9_12  and  C10_13 
REMARK    5  A    between atoms: C10_13  and  S1_14 
REMARK    6  A    between atoms: S1_14  and  N2_17 
REMARK    7  A    between atoms: C13_20  and  C14_21 
REMARK    8  A    between atoms: C14_21  and  C15_22 
REMARK    9  A    between atoms: C15_22  and  C16_23 
REMARK   10  A    between atoms: C16_23  and  C17_25 
REMARK   11  A    between atoms: C19_29  and  N4_30 
REMARK   12  A    between atoms: N4_30  and  C20_32 
ROOT
HETATM    1  N2  UNL     1       9.651  26.622   8.097  1.00  0.00    -0.211 NA
HETATM    2  C11 UNL     1      10.907  26.787   8.808  1.00  0.00     0.107 C 
HETATM    3  C12 UNL     1      11.717  25.492   8.735  1.00  0.00     0.020 C 
HETATM    4  C13 UNL     1      11.444  24.787   7.423  1.00  0.00    -0.012 C 
HETATM    5  C23 UNL     1       9.995  24.359   7.417  1.00  0.00     0.020 C 
HETATM    6  C24 UNL     1       9.207  25.282   8.285  1.00  0.00     0.107 C 
ENDROOT
BRANCH   1   7
HETATM    7  S1  UNL     1       8.541  27.846   8.467  1.00  0.00     0.213 S 
HETATM    8  O2  UNL     1       8.737  28.352   9.880  1.00  0.00    -0.211 OA
HETATM    9  O3  UNL     1       8.907  29.048   7.592  1.00  0.00    -0.211 OA
BRANCH   7  10
HETATM   10  C10 UNL     1       6.858  27.456   8.108  1.00  0.00     0.188 C 
BRANCH  10  11
HETATM   11  C9  UNL     1       6.526  27.486   6.632  1.00  0.00     0.047 A 
HETATM   12  C25 UNL     1       5.224  26.748   6.389  1.00  0.00     0.032 A 
HETATM   13  C26 UNL     1       4.472  28.023   6.113  1.00  0.00     0.005 A 
HETATM   14  C27 UNL     1       5.815  28.753   6.239  1.00  0.00     0.032 A 
BRANCH  11  15
HETATM   15  N1  UNL     1       7.593  27.151   5.758  1.00  0.00    -0.351 N 
HETATM   16  C1  UNL     1       7.473  26.846   4.381  1.00  0.00     0.218 C 
HETATM   17  O1  UNL     1       6.322  26.866   3.881  1.00  0.00    -0.274 OA
ATOM     18  H1  UNL     1       8.531  27.129   6.159  1.00  0.00     0.163 HD
BRANCH  16  19
HETATM   19  C2  UNL     1       8.655  26.513   3.545  1.00  0.00     0.107 C 
BRANCH  19  20
HETATM   20  C3  UNL     1       9.490  25.394   4.020  1.00  0.00    -0.006 C 
HETATM   21  C4  UNL     1      10.777  25.153   3.321  1.00  0.00     0.005 C 
HETATM   22  C5  UNL     1      10.592  24.459   1.983  1.00  0.00     0.000 C 
HETATM   23  C6  UNL     1      10.027  23.083   2.214  1.00  0.00     0.000 C 
HETATM   24  C7  UNL     1       9.452  22.921   3.611  1.00  0.00     0.000 C 
HETATM   25  C8  UNL     1       8.623  24.127   3.943  1.00  0.00     0.005 C 
ENDBRANCH  19  20
ENDBRANCH  16  19
ENDBRANCH  11  15
ENDBRANCH  10  11
ENDBRANCH   7  10
ENDBRANCH   1   7
BRANCH   4  26
HETATM   26  C14 UNL     1      12.293  23.549   7.297  1.00  0.00     0.012 C 
BRANCH  26  27
HETATM   27  C15 UNL     1      12.371  23.001   5.902  1.00  0.00     0.085 C 
BRANCH  27  28
HETATM   28  C16 UNL     1      12.465  21.529   5.980  1.00  0.00     0.167 C 
HETATM   29  O4  UNL     1      11.467  20.847   6.215  1.00  0.00    -0.292 OA
BRANCH  28  30
HETATM   30  C17 UNL     1      13.778  20.911   5.769  1.00  0.00     0.069 A 
HETATM   31  C18 UNL     1      14.796  20.701   6.658  1.00  0.00     0.113 A 
HETATM   32  N3  UNL     1      15.878  20.126   6.225  1.00  0.00    -0.345 N 
HETATM   33  C19 UNL     1      15.946  19.769   4.942  1.00  0.00     0.145 A 
ATOM     34  H3  UNL     1      16.661  19.952   6.854  1.00  0.00     0.167 HD
HETATM   35  S2  UNL     1      14.431  20.263   4.329  1.00  0.00    -0.049 SA
BRANCH  33  36
HETATM   36  N4  UNL     1      16.948  19.180   4.320  1.00  0.00    -0.366 N 
ATOM     37  H4  UNL     1      17.918  19.463   4.449  1.00  0.00     0.162 HD
BRANCH  36  38
HETATM   38  C20 UNL     1      16.558  18.088   3.432  1.00  0.00     0.083 A 
HETATM   39  C21 UNL     1      16.766  18.409   1.971  1.00  0.00     0.027 A 
HETATM   40  C22 UNL     1      17.579  17.344   2.686  1.00  0.00     0.027 A 
ENDBRANCH  36  38
ENDBRANCH  33  36
ENDBRANCH  28  30
ENDBRANCH  27  28
ENDBRANCH  26  27
ENDBRANCH   4  26
TORSDOF 12
ENDMDL
MODEL 4
REMARK VINA RESULT: -9.349741755      2.366      4.422
REMARK  12 active torsions:
REMARK  status: ('A' for Active; 'I' for Inactive)
REMARK    1  A    between atoms: C1_2  and  C2_3 
REMARK       I    between atoms: C1_2  and  N1_10 
REMARK    2  A    between atoms: C2_3  and  C3_4 
REMARK    3  A    between atoms: N1_10  and  C9_12 
REMARK    4  A    between atoms: C9_12  and  C10_13 
REMARK    5  A    between atoms: C10_13  and  S1_14 
REMARK    6  A    between atoms: S1_14  and  N2_17 
REMARK    7  A    between atoms: C13_20  and  C14_21 
REMARK    8  A    between atoms: C14_21  and  C15_22 
REMARK    9  A    between atoms: C15_22  and  C16_23 
REMARK   10  A    between atoms: C16_23  and  C17_25 
REMARK   11  A    between atoms: C19_29  and  N4_30 
REMARK   12  A    between atoms: N4_30  and  C20_32 
ROOT
HETATM    1  N2  UNL     1      10.933  23.934   3.792  1.00  0.00    -0.211 NA
HETATM    2  C11 UNL     1      10.777  22.527   4.120  1.00  0.00     0.107 C 
HETATM    3  C12 UNL     1      11.709  22.159   5.275  1.00  0.00     0.020 C 
HETATM    4  C13 UNL     1      11.879  23.345   6.199  1.00  0.00    -0.012 C 
HETATM    5  C23 UNL     1      12.594  24.435   5.433  1.00  0.00     0.020 C 
HETATM    6  C24 UNL     1      12.301  24.284   3.977  1.00  0.00     0.107 C 
ENDROOT
BRANCH   1   7
HETATM    7  S1  UNL     1      10.251  24.319   2.291  1.00  0.00     0.213 S 
HETATM    8  O2  UNL     1      11.320  24.675   1.281  1.00  0.00    -0.211 OA
HETATM    9  O3  UNL     1       9.643  23.026   1.741  1.00  0.00    -0.211 OA
BRANCH   7  10
HETATM   10  C10 UNL     1       8.944  25.504   2.350  1.00  0.00     0.188 C 
BRANCH  10  11
HETATM   11  C9  UNL     1       7.987  25.299   3.504  1.00  0.00     0.047 A 
HETATM   12  C25 UNL     1       6.642  25.911   3.163  1.00  0.00     0.032 A 
HETATM   13  C26 UNL     1       5.995  24.563   2.987  1.00  0.00     0.005 A 
HETATM   14  C27 UNL     1       7.321  23.950   3.452  1.00  0.00     0.032 A 
BRANCH  11  15
HETATM   15  N1  UNL     1       8.498  25.618   4.788  1.00  0.00    -0.351 N 
HETATM   16  C1  UNL     1       8.811  26.917   5.258  1.00  0.00     0.218 C 
HETATM   17  O1  UNL     1       8.626  27.877   4.471  1.00  0.00    -0.274 OA
ATOM     18  H1  UNL     1       8.655  24.842   5.431  1.00  0.00     0.163 HD
BRANCH  16  19
HETATM   19  C2  UNL     1       9.337  27.151   6.627  1.00  0.00     0.107 C 
BRANCH  19  20
HETATM   20  C3  UNL     1       9.992  25.999   7.275  1.00  0.00    -0.006 C 
HETATM   21  C4  UNL     1       9.117  24.941   7.839  1.00  0.00     0.005 C 
HETATM   22  C5  UNL     1       8.494  25.345   9.164  1.00  0.00     0.000 C 
HETATM   23  C6  UNL     1       9.583  25.519  10.189  1.00  0.00     0.000 C 
HETATM   24  C7  UNL     1      10.960  25.628   9.557  1.00  0.00     0.000 C 
HETATM   25  C8  UNL     1      10.890  26.566   8.386  1.00  0.00     0.005 C 
ENDBRANCH  19  20
ENDBRANCH  16  19
ENDBRANCH  11  15
ENDBRANCH  10  11
ENDBRANCH   7  10
ENDBRANCH   1   7
BRANCH   4  26
HETATM   26  C14 UNL     1      12.731  22.980   7.386  1.00  0.00     0.012 C 
BRANCH  26  27
HETATM   27  C15 UNL     1      14.013  23.754   7.480  1.00  0.00     0.085 C 
BRANCH  27  28
HETATM   28  C16 UNL     1      15.128  22.799   7.639  1.00  0.00     0.167 C 
HETATM   29  O4  UNL     1      15.885  22.873   8.608  1.00  0.00    -0.292 OA
BRANCH  28  30
HETATM   30  C17 UNL     1      15.302  21.765   6.613  1.00  0.00     0.069 A 
HETATM   31  C18 UNL     1      15.295  20.404   6.737  1.00  0.00     0.113 A 
HETATM   32  N3  UNL     1      15.475  19.690   5.666  1.00  0.00    -0.345 N 
HETATM   33  C19 UNL     1      15.656  20.315   4.501  1.00  0.00     0.145 A 
ATOM     34  H3  UNL     1      15.478  18.672   5.714  1.00  0.00     0.167 HD
HETATM   35  S2  UNL     1      15.570  21.964   4.937  1.00  0.00    -0.049 SA
BRANCH  33  36
HETATM   36  N4  UNL     1      15.851  19.772   3.316  1.00  0.00    -0.366 N 
ATOM     37  H4  UNL     1      15.586  20.236   2.448  1.00  0.00     0.162 HD
BRANCH  36  38
HETATM   38  C20 UNL     1      16.478  18.454   3.344  1.00  0.00     0.083 A 
HETATM   39  C21 UNL     1      16.892  17.965   1.977  1.00  0.00     0.027 A 
HETATM   40  C22 UNL     1      17.909  18.311   3.050  1.00  0.00     0.027 A 
ENDBRANCH  36  38
ENDBRANCH  33  36
ENDBRANCH  28  30
ENDBRANCH  27  28
ENDBRANCH  26  27
ENDBRANCH   4  26
TORSDOF 12
ENDMDL
MODEL 5
REMARK VINA RESULT: -9.347854771      3.171      7.114
REMARK  12 active torsions:
REMARK  status: ('A' for Active; 'I' for Inactive)
REMARK    1  A    between atoms: C1_2  and  C2_3 
REMARK       I    between atoms: C1_2  and  N1_10 
REMARK    2  A    between atoms: C2_3  and  C3_4 
REMARK    3  A    between atoms: N1_10  and  C9_12 
REMARK    4  A    between atoms: C9_12  and  C10_13 
REMARK    5  A    between atoms: C10_13  and  S1_14 
REMARK    6  A    between atoms: S1_14  and  N2_17 
REMARK    7  A    between atoms: C13_20  and  C14_21 
REMARK    8  A    between atoms: C14_21  and  C15_22 
REMARK    9  A    between atoms: C15_22  and  C16_23 
REMARK   10  A    between atoms: C16_23  and  C17_25 
REMARK   11  A    between atoms: C19_29  and  N4_30 
REMARK   12  A    between atoms: N4_30  and  C20_32 
ROOT
HETATM    1  N2  UNL     1      14.200  20.609   4.153  1.00  0.00    -0.211 NA
HETATM    2  C11 UNL     1      14.136  19.396   4.948  1.00  0.00     0.107 C 
HETATM    3  C12 UNL     1      14.844  18.257   4.214  1.00  0.00     0.020 C 
HETATM    4  C13 UNL     1      15.993  18.807   3.396  1.00  0.00    -0.012 C 
HETATM    5  C23 UNL     1      15.415  19.690   2.314  1.00  0.00     0.020 C 
HETATM    6  C24 UNL     1      14.110  20.245   2.779  1.00  0.00     0.107 C 
ENDROOT
BRANCH   1   7
HETATM    7  S1  UNL     1      13.113  21.788   4.695  1.00  0.00     0.213 S 
HETATM    8  O2  UNL     1      11.895  21.154   5.333  1.00  0.00    -0.211 OA
HETATM    9  O3  UNL     1      13.798  22.515   5.855  1.00  0.00    -0.211 OA
BRANCH   7  10
HETATM   10  C10 UNL     1      12.696  23.021   3.503  1.00  0.00     0.188 C 
BRANCH  10  11
HETATM   11  C9  UNL     1      11.423  23.773   3.823  1.00  0.00     0.047 A 
HETATM   12  C25 UNL     1      11.211  24.870   2.799  1.00  0.00     0.032 A 
HETATM   13  C26 UNL     1      10.069  24.137   2.147  1.00  0.00     0.005 A 
HETATM   14  C27 UNL     1      10.207  23.089   3.258  1.00  0.00     0.032 A 
BRANCH  11  15
HETATM   15  N1  UNL     1      11.264  24.160   5.179  1.00  0.00    -0.351 N 
HETATM   16  C1  UNL     1      11.899  25.258   5.808  1.00  0.00     0.218 C 
HETATM   17  O1  UNL     1      12.678  25.954   5.111  1.00  0.00    -0.274 OA
ATOM     18  H1  UNL     1      10.636  23.596   5.752  1.00  0.00     0.163 HD
BRANCH  16  19
HETATM   19  C2  UNL     1      11.663  25.588   7.237  1.00  0.00     0.107 C 
BRANCH  19  20
HETATM   20  C3  UNL     1      10.262  25.522   7.695  1.00  0.00    -0.006 C 
HETATM   21  C4  UNL     1       9.322  26.548   7.177  1.00  0.00     0.005 C 
HETATM   22  C5  UNL     1       9.492  27.892   7.862  1.00  0.00     0.000 C 
HETATM   23  C6  UNL     1       9.135  27.754   9.317  1.00  0.00     0.000 C 
HETATM   24  C7  UNL     1       9.089  26.304   9.767  1.00  0.00     0.000 C 
HETATM   25  C8  UNL     1      10.293  25.586   9.230  1.00  0.00     0.005 C 
ENDBRANCH  19  20
ENDBRANCH  16  19
ENDBRANCH  11  15
ENDBRANCH  10  11
ENDBRANCH   7  10
ENDBRANCH   1   7
BRANCH   4  26
HETATM   26  C14 UNL     1      16.753  17.692   2.725  1.00  0.00     0.012 C 
BRANCH  26  27
HETATM   27  C15 UNL     1      18.233  17.728   2.967  1.00  0.00     0.085 C 
BRANCH  27  28
HETATM   28  C16 UNL     1      18.505  17.144   4.296  1.00  0.00     0.167 C 
HETATM   29  O4  UNL     1      18.824  15.960   4.408  1.00  0.00    -0.292 OA
BRANCH  28  30
HETATM   30  C17 UNL     1      18.386  18.016   5.470  1.00  0.00     0.069 A 
HETATM   31  C18 UNL     1      18.311  17.689   6.795  1.00  0.00     0.113 A 
HETATM   32  N3  UNL     1      18.207  18.653   7.659  1.00  0.00    -0.345 N 
HETATM   33  C19 UNL     1      18.179  19.911   7.217  1.00  0.00     0.145 A 
ATOM     34  H3  UNL     1      18.148  18.453   8.657  1.00  0.00     0.167 HD
HETATM   35  S2  UNL     1      18.303  19.722   5.524  1.00  0.00    -0.049 SA
BRANCH  33  36
HETATM   36  N4  UNL     1      18.080  21.015   7.930  1.00  0.00    -0.366 N 
ATOM     37  H4  UNL     1      18.808  21.320   8.576  1.00  0.00     0.162 HD
BRANCH  36  38
HETATM   38  C20 UNL     1      16.846  21.768   7.722  1.00  0.00     0.083 A 
HETATM   39  C21 UNL     1      15.917  21.723   8.911  1.00  0.00     0.027 A 
HETATM   40  C22 UNL     1      16.601  23.006   8.471  1.00  0.00     0.027 A 
ENDBRANCH  36  38
ENDBRANCH  33  36
ENDBRANCH  28  30
ENDBRANCH  27  28
ENDBRANCH  26  27
ENDBRANCH   4  26
TORSDOF 12
ENDMDL
