MODEL 1
REMARK VINA RESULT: -6.796935970      0.000      0.000
REMARK  13 active torsions:
REMARK  status: ('A' for Active; 'I' for Inactive)
REMARK    1  A    between atoms: C2_2  and  C3_3 
REMARK    2  A    between atoms: C3_3  and  O1_4 
REMARK    3  A    between atoms: O1_4  and  C4_5 
REMARK    4  A    between atoms: C5_6  and  O2_7 
REMARK    5  A    between atoms: C6_9  and  O3_10 
REMARK    6  A    between atoms: C7_12  and  O4_13 
REMARK    7  A    between atoms: C8_15  and  O5_16 
REMARK    8  A    between atoms: O5_16  and  C9_17 
REMARK    9  A    between atoms: C16_24  and  O6_25 
REMARK   10  A    between atoms: C17_27  and  O7_28 
REMARK   11  A    between atoms: O7_28  and  C18_29 
REMARK   12  A    between atoms: C21_33  and  O9_34 
REMARK   13  A    between atoms: C22_36  and  O10_37 
ROOT
HETATM    1  C4  UNL     1      57.225  15.423  21.265  1.00  0.00     0.126 C 
HETATM    2  C5  UNL     1      56.216  16.378  20.686  1.00  0.00     0.187 C 
HETATM    3  C6  UNL     1      55.252  15.558  19.856  1.00  0.00     0.181 C 
HETATM    4  C7  UNL     1      54.401  14.828  20.894  1.00  0.00     0.179 C 
HETATM    5  C8  UNL     1      55.172  14.059  21.890  1.00  0.00     0.163 C 
HETATM    6  C15 UNL     1      56.557  14.412  22.178  1.00  0.00     0.088 C 
HETATM    7  C16 UNL     1      56.844  15.254  23.383  1.00  0.00     0.160 C 
HETATM    8  C17 UNL     1      57.837  16.035  22.499  1.00  0.00     0.192 C 
ENDROOT
BRANCH   8   9
HETATM    9  O7  UNL     1      59.106  15.625  22.857  1.00  0.00    -0.348 OA
BRANCH   9  10
HETATM   10  C18 UNL     1      59.888  16.757  23.074  1.00  0.00     0.292 C 
HETATM   11  O8  UNL     1      60.390  16.767  24.367  1.00  0.00    -0.351 OA
HETATM   12  C19 UNL     1      61.750  16.877  24.327  1.00  0.00     0.152 C 
HETATM   13  C20 UNL     1      62.317  17.638  25.486  1.00  0.00     0.042 C 
HETATM   14  C21 UNL     1      62.116  17.475  22.986  1.00  0.00     0.180 C 
HETATM   15  C22 UNL     1      61.024  16.908  22.107  1.00  0.00     0.204 C 
BRANCH  14  16
HETATM   16  O9  UNL     1      61.948  18.866  22.993  1.00  0.00    -0.390 OA
ATOM     17  H9  UNL     1      61.964  19.215  22.110  1.00  0.00     0.210 HD
ENDBRANCH  14  16
BRANCH  15  18
HETATM   18  O10 UNL     1      60.702  17.779  21.066  1.00  0.00    -0.388 OA
ATOM     19  H10 UNL     1      60.490  18.647  21.388  1.00  0.00     0.210 HD
ENDBRANCH  15  18
ENDBRANCH   9  10
ENDBRANCH   8   9
BRANCH   1  20
HETATM   20  O1  UNL     1      58.010  14.826  20.355  1.00  0.00    -0.370 OA
BRANCH  20  21
HETATM   21  C3  UNL     1      58.552  13.612  20.513  1.00  0.00     0.195 C 
BRANCH  21  22
HETATM   22  C2  UNL     1      60.068  13.651  20.326  1.00  0.00    -0.011 C 
HETATM   23  C1  UNL     1      60.838  12.946  21.124  1.00  0.00     0.009 C 
ENDBRANCH  21  22
ENDBRANCH  20  21
ENDBRANCH   1  20
BRANCH   7  24
HETATM   24  O6  UNL     1      55.836  16.042  23.874  1.00  0.00    -0.392 OA
ATOM     25  H6  UNL     1      55.267  16.480  23.251  1.00  0.00     0.210 HD
ENDBRANCH   7  24
BRANCH   2  26
HETATM   26  O2  UNL     1      56.762  17.378  19.954  1.00  0.00    -0.390 OA
ATOM     27  H2  UNL     1      56.565  18.247  20.282  1.00  0.00     0.210 HD
ENDBRANCH   2  26
BRANCH   3  28
HETATM   28  O3  UNL     1      55.912  14.627  19.067  1.00  0.00    -0.390 OA
ATOM     29  H3  UNL     1      56.225  15.009  18.256  1.00  0.00     0.210 HD
ENDBRANCH   3  28
BRANCH   5  30
HETATM   30  O5  UNL     1      54.446  14.124  23.106  1.00  0.00    -0.377 OA
BRANCH  30  31
HETATM   31  C9  UNL     1      53.097  13.902  22.936  1.00  0.00     0.122 C 
HETATM   32  C10 UNL     1      52.266  14.411  24.084  1.00  0.00     0.032 C 
HETATM   33  C11 UNL     1      51.391  13.357  24.699  1.00  0.00     0.002 C 
HETATM   34  C12 UNL     1      50.524  12.658  23.683  1.00  0.00     0.000 C 
HETATM   35  C13 UNL     1      51.308  12.312  22.428  1.00  0.00     0.002 C 
HETATM   36  C14 UNL     1      52.778  12.420  22.776  1.00  0.00     0.032 C 
ENDBRANCH  30  31
ENDBRANCH   5  30
BRANCH   4  37
HETATM   37  O4  UNL     1      53.672  15.844  21.552  1.00  0.00    -0.390 OA
ATOM     38  H4  UNL     1      53.077  16.185  20.896  1.00  0.00     0.210 HD
ENDBRANCH   4  37
TORSDOF 13
ENDMDL
MODEL 2
REMARK VINA RESULT: -6.770573579      1.132      1.432
REMARK  13 active torsions:
REMARK  status: ('A' for Active; 'I' for Inactive)
REMARK    1  A    between atoms: C2_2  and  C3_3 
REMARK    2  A    between atoms: C3_3  and  O1_4 
REMARK    3  A    between atoms: O1_4  and  C4_5 
REMARK    4  A    between atoms: C5_6  and  O2_7 
REMARK    5  A    between atoms: C6_9  and  O3_10 
REMARK    6  A    between atoms: C7_12  and  O4_13 
REMARK    7  A    between atoms: C8_15  and  O5_16 
REMARK    8  A    between atoms: O5_16  and  C9_17 
REMARK    9  A    between atoms: C16_24  and  O6_25 
REMARK   10  A    between atoms: C17_27  and  O7_28 
REMARK   11  A    between atoms: O7_28  and  C18_29 
REMARK   12  A    between atoms: C21_33  and  O9_34 
REMARK   13  A    between atoms: C22_36  and  O10_37 
ROOT
HETATM    1  C4  UNL     1      56.958  14.842  21.806  1.00  0.00     0.126 C 
HETATM    2  C5  UNL     1      56.192  15.998  21.221  1.00  0.00     0.187 C 
HETATM    3  C6  UNL     1      55.135  15.415  20.308  1.00  0.00     0.181 C 
HETATM    4  C7  UNL     1      54.098  14.834  21.268  1.00  0.00     0.179 C 
HETATM    5  C8  UNL     1      54.644  13.892  22.266  1.00  0.00     0.163 C 
HETATM    6  C15 UNL     1      56.053  13.953  22.638  1.00  0.00     0.088 C 
HETATM    7  C16 UNL     1      56.430  14.679  23.892  1.00  0.00     0.160 C 
HETATM    8  C17 UNL     1      57.606  15.277  23.095  1.00  0.00     0.192 C 
ENDROOT
BRANCH   8   9
HETATM    9  O7  UNL     1      58.746  14.611  23.498  1.00  0.00    -0.348 OA
BRANCH   9  10
HETATM   10  C18 UNL     1      59.793  15.529  23.557  1.00  0.00     0.292 C 
HETATM   11  O8  UNL     1      60.842  15.029  24.315  1.00  0.00    -0.351 OA
HETATM   12  C19 UNL     1      61.989  15.053  23.578  1.00  0.00     0.152 C 
HETATM   13  C20 UNL     1      63.218  15.295  24.401  1.00  0.00     0.042 C 
HETATM   14  C21 UNL     1      61.799  16.074  22.478  1.00  0.00     0.180 C 
HETATM   15  C22 UNL     1      60.316  15.946  22.215  1.00  0.00     0.204 C 
BRANCH  14  16
HETATM   16  O9  UNL     1      62.014  17.374  22.956  1.00  0.00    -0.390 OA
ATOM     17  H9  UNL     1      62.931  17.515  23.160  1.00  0.00     0.210 HD
ENDBRANCH  14  16
BRANCH  15  18
HETATM   18  O10 UNL     1      59.763  17.158  21.801  1.00  0.00    -0.388 OA
ATOM     19  H10 UNL     1      60.053  17.396  20.929  1.00  0.00     0.210 HD
ENDBRANCH  15  18
ENDBRANCH   9  10
ENDBRANCH   8   9
BRANCH   1  20
HETATM   20  O1  UNL     1      57.662  14.133  20.911  1.00  0.00    -0.370 OA
BRANCH  20  21
HETATM   21  C3  UNL     1      58.009  12.851  21.076  1.00  0.00     0.195 C 
BRANCH  21  22
HETATM   22  C2  UNL     1      59.511  12.650  20.872  1.00  0.00    -0.011 C 
HETATM   23  C1  UNL     1      60.211  12.023  21.789  1.00  0.00     0.009 C 
ENDBRANCH  21  22
ENDBRANCH  20  21
ENDBRANCH   1  20
BRANCH   7  24
HETATM   24  O6  UNL     1      55.569  15.634  24.368  1.00  0.00    -0.392 OA
ATOM     25  H6  UNL     1      54.675  15.375  24.559  1.00  0.00     0.210 HD
ENDBRANCH   7  24
BRANCH   2  26
HETATM   26  O2  UNL     1      56.965  16.894  20.564  1.00  0.00    -0.390 OA
ATOM     27  H2  UNL     1      56.486  17.641  20.225  1.00  0.00     0.210 HD
ENDBRANCH   2  26
BRANCH   3  28
HETATM   28  O3  UNL     1      55.644  14.399  19.512  1.00  0.00    -0.390 OA
ATOM     29  H3  UNL     1      55.314  13.547  19.772  1.00  0.00     0.210 HD
ENDBRANCH   3  28
BRANCH   5  30
HETATM   30  O5  UNL     1      53.876  14.059  23.445  1.00  0.00    -0.377 OA
BRANCH  30  31
HETATM   31  C9  UNL     1      52.853  13.141  23.552  1.00  0.00     0.122 C 
HETATM   32  C10 UNL     1      52.654  12.333  22.298  1.00  0.00     0.032 C 
HETATM   33  C11 UNL     1      51.254  12.402  21.760  1.00  0.00     0.002 C 
HETATM   34  C12 UNL     1      50.217  12.046  22.795  1.00  0.00     0.000 C 
HETATM   35  C13 UNL     1      50.518  12.703  24.131  1.00  0.00     0.002 C 
HETATM   36  C14 UNL     1      51.521  13.808  23.871  1.00  0.00     0.032 C 
ENDBRANCH  30  31
ENDBRANCH   5  30
BRANCH   4  37
HETATM   37  O4  UNL     1      53.547  15.951  21.934  1.00  0.00    -0.390 OA
ATOM     38  H4  UNL     1      52.655  16.014  21.614  1.00  0.00     0.210 HD
ENDBRANCH   4  37
TORSDOF 13
ENDMDL
MODEL 3
REMARK VINA RESULT: -6.663800799      1.276      1.860
REMARK  13 active torsions:
REMARK  status: ('A' for Active; 'I' for Inactive)
REMARK    1  A    between atoms: C2_2  and  C3_3 
REMARK    2  A    between atoms: C3_3  and  O1_4 
REMARK    3  A    between atoms: O1_4  and  C4_5 
REMARK    4  A    between atoms: C5_6  and  O2_7 
REMARK    5  A    between atoms: C6_9  and  O3_10 
REMARK    6  A    between atoms: C7_12  and  O4_13 
REMARK    7  A    between atoms: C8_15  and  O5_16 
REMARK    8  A    between atoms: O5_16  and  C9_17 
REMARK    9  A    between atoms: C16_24  and  O6_25 
REMARK   10  A    between atoms: C17_27  and  O7_28 
REMARK   11  A    between atoms: O7_28  and  C18_29 
REMARK   12  A    between atoms: C21_33  and  O9_34 
REMARK   13  A    between atoms: C22_36  and  O10_37 
ROOT
HETATM    1  C4  UNL     1      56.975  14.766  21.886  1.00  0.00     0.126 C 
HETATM    2  C5  UNL     1      56.262  15.950  21.289  1.00  0.00     0.187 C 
HETATM    3  C6  UNL     1      55.213  15.407  20.341  1.00  0.00     0.181 C 
HETATM    4  C7  UNL     1      54.132  14.852  21.267  1.00  0.00     0.179 C 
HETATM    5  C8  UNL     1      54.620  13.887  22.273  1.00  0.00     0.163 C 
HETATM    6  C15 UNL     1      56.019  13.901  22.685  1.00  0.00     0.088 C 
HETATM    7  C16 UNL     1      56.382  14.605  23.955  1.00  0.00     0.160 C 
HETATM    8  C17 UNL     1      57.599  15.172  23.196  1.00  0.00     0.192 C 
ENDROOT
BRANCH   8   9
HETATM    9  O7  UNL     1      58.706  14.467  23.625  1.00  0.00    -0.348 OA
BRANCH   9  10
HETATM   10  C18 UNL     1      59.783  15.348  23.706  1.00  0.00     0.292 C 
HETATM   11  O8  UNL     1      60.643  15.171  22.633  1.00  0.00    -0.351 OA
HETATM   12  C19 UNL     1      60.815  16.359  21.985  1.00  0.00     0.152 C 
HETATM   13  C20 UNL     1      62.179  16.515  21.384  1.00  0.00     0.042 C 
HETATM   14  C21 UNL     1      60.466  17.461  22.962  1.00  0.00     0.180 C 
HETATM   15  C22 UNL     1      59.386  16.792  23.781  1.00  0.00     0.204 C 
BRANCH  14  16
HETATM   16  O9  UNL     1      61.533  17.718  23.833  1.00  0.00    -0.390 OA
ATOM     17  H9  UNL     1      61.263  17.625  24.739  1.00  0.00     0.210 HD
ENDBRANCH  14  16
BRANCH  15  18
HETATM   18  O10 UNL     1      59.380  17.257  25.096  1.00  0.00    -0.388 OA
ATOM     19  H10 UNL     1      59.785  18.113  25.168  1.00  0.00     0.210 HD
ENDBRANCH  15  18
ENDBRANCH   9  10
ENDBRANCH   8   9
BRANCH   1  20
HETATM   20  O1  UNL     1      57.681  14.042  21.005  1.00  0.00    -0.370 OA
BRANCH  20  21
HETATM   21  C3  UNL     1      57.795  12.709  21.051  1.00  0.00     0.195 C 
BRANCH  21  22
HETATM   22  C2  UNL     1      59.256  12.279  21.179  1.00  0.00    -0.011 C 
HETATM   23  C1  UNL     1      59.599  11.422  22.114  1.00  0.00     0.009 C 
ENDBRANCH  21  22
ENDBRANCH  20  21
ENDBRANCH   1  20
BRANCH   7  24
HETATM   24  O6  UNL     1      55.539  15.584  24.413  1.00  0.00    -0.392 OA
ATOM     25  H6  UNL     1      55.858  16.168  25.092  1.00  0.00     0.210 HD
ENDBRANCH   7  24
BRANCH   2  26
HETATM   26  O2  UNL     1      57.081  16.825  20.660  1.00  0.00    -0.390 OA
ATOM     27  H2  UNL     1      57.882  16.435  20.330  1.00  0.00     0.210 HD
ENDBRANCH   2  26
BRANCH   3  28
HETATM   28  O3  UNL     1      55.712  14.381  19.552  1.00  0.00    -0.390 OA
ATOM     29  H3  UNL     1      55.150  13.615  19.571  1.00  0.00     0.210 HD
ENDBRANCH   3  28
BRANCH   5  30
HETATM   30  O5  UNL     1      53.824  14.070  23.431  1.00  0.00    -0.377 OA
BRANCH  30  31
HETATM   31  C9  UNL     1      52.811  13.142  23.536  1.00  0.00     0.122 C 
HETATM   32  C10 UNL     1      52.635  12.317  22.289  1.00  0.00     0.032 C 
HETATM   33  C11 UNL     1      51.241  12.365  21.734  1.00  0.00     0.002 C 
HETATM   34  C12 UNL     1      50.196  12.008  22.761  1.00  0.00     0.000 C 
HETATM   35  C13 UNL     1      50.473  12.683  24.093  1.00  0.00     0.002 C 
HETATM   36  C14 UNL     1      51.467  13.797  23.832  1.00  0.00     0.032 C 
ENDBRANCH  30  31
ENDBRANCH   5  30
BRANCH   4  37
HETATM   37  O4  UNL     1      53.598  15.981  21.926  1.00  0.00    -0.390 OA
ATOM     38  H4  UNL     1      53.526  15.725  22.838  1.00  0.00     0.210 HD
ENDBRANCH   4  37
TORSDOF 13
ENDMDL
MODEL 4
REMARK VINA RESULT: -6.531254538      2.478      5.799
REMARK  13 active torsions:
REMARK  status: ('A' for Active; 'I' for Inactive)
REMARK    1  A    between atoms: C2_2  and  C3_3 
REMARK    2  A    between atoms: C3_3  and  O1_4 
REMARK    3  A    between atoms: O1_4  and  C4_5 
REMARK    4  A    between atoms: C5_6  and  O2_7 
REMARK    5  A    between atoms: C6_9  and  O3_10 
REMARK    6  A    between atoms: C7_12  and  O4_13 
REMARK    7  A    between atoms: C8_15  and  O5_16 
REMARK    8  A    between atoms: O5_16  and  C9_17 
REMARK    9  A    between atoms: C16_24  and  O6_25 
REMARK   10  A    between atoms: C17_27  and  O7_28 
REMARK   11  A    between atoms: O7_28  and  C18_29 
REMARK   12  A    between atoms: C21_33  and  O9_34 
REMARK   13  A    between atoms: C22_36  and  O10_37 
ROOT
HETATM    1  C4  UNL     1      56.342  14.152  21.232  1.00  0.00     0.126 C 
HETATM    2  C5  UNL     1      56.280  14.973  19.972  1.00  0.00     0.187 C 
HETATM    3  C6  UNL     1      55.280  16.083  20.213  1.00  0.00     0.181 C 
HETATM    4  C7  UNL     1      56.013  17.042  21.150  1.00  0.00     0.179 C 
HETATM    5  C8  UNL     1      56.550  16.416  22.373  1.00  0.00     0.163 C 
HETATM    6  C15 UNL     1      56.833  14.985  22.402  1.00  0.00     0.088 C 
HETATM    7  C16 UNL     1      58.243  14.531  22.182  1.00  0.00     0.160 C 
HETATM    8  C17 UNL     1      57.659  13.422  21.285  1.00  0.00     0.192 C 
ENDROOT
BRANCH   8   9
HETATM    9  O7  UNL     1      57.714  12.247  22.009  1.00  0.00    -0.348 OA
BRANCH   9  10
HETATM   10  C18 UNL     1      58.668  11.416  21.425  1.00  0.00     0.292 C 
HETATM   11  O8  UNL     1      59.740  12.157  20.952  1.00  0.00    -0.351 OA
HETATM   12  C19 UNL     1      60.898  11.684  21.497  1.00  0.00     0.152 C 
HETATM   13  C20 UNL     1      62.078  11.808  20.582  1.00  0.00     0.042 C 
HETATM   14  C21 UNL     1      60.639  10.261  21.944  1.00  0.00     0.180 C 
HETATM   15  C22 UNL     1      59.180  10.341  22.336  1.00  0.00     0.204 C 
BRANCH  14  16
HETATM   16  O9  UNL     1      60.719   9.373  20.864  1.00  0.00    -0.390 OA
ATOM     17  H9  UNL     1      60.125   8.640  20.981  1.00  0.00     0.210 HD
ENDBRANCH  14  16
BRANCH  15  18
HETATM   18  O10 UNL     1      58.527   9.128  22.121  1.00  0.00    -0.388 OA
ATOM     19  H10 UNL     1      58.061   8.837  22.896  1.00  0.00     0.210 HD
ENDBRANCH  15  18
ENDBRANCH   9  10
ENDBRANCH   8   9
BRANCH   1  20
HETATM   20  O1  UNL     1      55.206  13.504  21.529  1.00  0.00    -0.370 OA
BRANCH  20  21
HETATM   21  C3  UNL     1      54.760  13.303  22.775  1.00  0.00     0.195 C 
BRANCH  21  22
HETATM   22  C2  UNL     1      53.273  12.949  22.784  1.00  0.00    -0.011 C 
HETATM   23  C1  UNL     1      52.525  13.317  23.800  1.00  0.00     0.009 C 
ENDBRANCH  21  22
ENDBRANCH  20  21
ENDBRANCH   1  20
BRANCH   7  24
HETATM   24  O6  UNL     1      59.092  15.369  21.507  1.00  0.00    -0.392 OA
ATOM     25  H6  UNL     1      59.417  16.138  21.961  1.00  0.00     0.210 HD
ENDBRANCH   7  24
BRANCH   2  26
HETATM   26  O2  UNL     1      55.961  14.259  18.867  1.00  0.00    -0.390 OA
ATOM     27  H2  UNL     1      55.564  14.777  18.175  1.00  0.00     0.210 HD
ENDBRANCH   2  26
BRANCH   3  28
HETATM   28  O3  UNL     1      54.132  15.618  20.838  1.00  0.00    -0.390 OA
ATOM     29  H3  UNL     1      53.535  16.325  21.052  1.00  0.00     0.210 HD
ENDBRANCH   3  28
BRANCH   5  30
HETATM   30  O5  UNL     1      57.750  17.101  22.688  1.00  0.00    -0.377 OA
BRANCH  30  31
HETATM   31  C9  UNL     1      57.816  17.485  24.010  1.00  0.00     0.122 C 
HETATM   32  C10 UNL     1      59.167  17.242  24.628  1.00  0.00     0.032 C 
HETATM   33  C11 UNL     1      59.112  16.397  25.868  1.00  0.00     0.002 C 
HETATM   34  C12 UNL     1      58.146  16.934  26.893  1.00  0.00     0.000 C 
HETATM   35  C13 UNL     1      56.840  17.369  26.251  1.00  0.00     0.002 C 
HETATM   36  C14 UNL     1      56.793  16.750  24.869  1.00  0.00     0.032 C 
ENDBRANCH  30  31
ENDBRANCH   5  30
BRANCH   4  37
HETATM   37  O4  UNL     1      57.080  17.560  20.384  1.00  0.00    -0.390 OA
ATOM     38  H4  UNL     1      57.803  17.647  20.994  1.00  0.00     0.210 HD
ENDBRANCH   4  37
TORSDOF 13
ENDMDL
MODEL 5
REMARK VINA RESULT: -6.401346287      2.216      4.146
REMARK  13 active torsions:
REMARK  status: ('A' for Active; 'I' for Inactive)
REMARK    1  A    between atoms: C2_2  and  C3_3 
REMARK    2  A    between atoms: C3_3  and  O1_4 
REMARK    3  A    between atoms: O1_4  and  C4_5 
REMARK    4  A    between atoms: C5_6  and  O2_7 
REMARK    5  A    between atoms: C6_9  and  O3_10 
REMARK    6  A    between atoms: C7_12  and  O4_13 
REMARK    7  A    between atoms: C8_15  and  O5_16 
REMARK    8  A    between atoms: O5_16  and  C9_17 
REMARK    9  A    between atoms: C16_24  and  O6_25 
REMARK   10  A    between atoms: C17_27  and  O7_28 
REMARK   11  A    between atoms: O7_28  and  C18_29 
REMARK   12  A    between atoms: C21_33  and  O9_34 
REMARK   13  A    between atoms: C22_36  and  O10_37 
ROOT
HETATM    1  C4  UNL     1      57.851  15.183  21.808  1.00  0.00     0.126 C 
HETATM    2  C5  UNL     1      58.436  16.311  22.615  1.00  0.00     0.187 C 
HETATM    3  C6  UNL     1      57.295  17.239  22.975  1.00  0.00     0.181 C 
HETATM    4  C7  UNL     1      56.527  16.476  24.054  1.00  0.00     0.179 C 
HETATM    5  C8  UNL     1      56.119  15.111  23.669  1.00  0.00     0.163 C 
HETATM    6  C15 UNL     1      56.842  14.396  22.623  1.00  0.00     0.088 C 
HETATM    7  C16 UNL     1      57.887  13.403  23.028  1.00  0.00     0.160 C 
HETATM    8  C17 UNL     1      58.760  13.985  21.899  1.00  0.00     0.192 C 
ENDROOT
BRANCH   8   9
HETATM    9  O7  UNL     1      58.732  13.077  20.859  1.00  0.00    -0.348 OA
BRANCH   9  10
HETATM   10  C18 UNL     1      60.020  12.966  20.338  1.00  0.00     0.292 C 
HETATM   11  O8  UNL     1      60.461  14.190  19.855  1.00  0.00    -0.351 OA
HETATM   12  C19 UNL     1      61.645  14.514  20.450  1.00  0.00     0.152 C 
HETATM   13  C20 UNL     1      62.561  15.297  19.559  1.00  0.00     0.042 C 
HETATM   14  C21 UNL     1      62.263  13.230  20.958  1.00  0.00     0.180 C 
HETATM   15  C22 UNL     1      61.028  12.433  21.311  1.00  0.00     0.204 C 
BRANCH  14  16
HETATM   16  O9  UNL     1      62.908  12.539  19.923  1.00  0.00    -0.390 OA
ATOM     17  H9  UNL     1      62.634  11.630  19.898  1.00  0.00     0.210 HD
ENDBRANCH  14  16
BRANCH  15  18
HETATM   18  O10 UNL     1      61.237  11.064  21.138  1.00  0.00    -0.388 OA
ATOM     19  H10 UNL     1      61.813  10.710  21.805  1.00  0.00     0.210 HD
ENDBRANCH  15  18
ENDBRANCH   9  10
ENDBRANCH   8   9
BRANCH   1  20
HETATM   20  O1  UNL     1      57.349  15.552  20.620  1.00  0.00    -0.370 OA
BRANCH  20  21
HETATM   21  C3  UNL     1      56.452  14.837  19.930  1.00  0.00     0.195 C 
BRANCH  21  22
HETATM   22  C2  UNL     1      55.197  15.657  19.631  1.00  0.00    -0.011 C 
HETATM   23  C1  UNL     1      54.134  15.517  20.389  1.00  0.00     0.009 C 
ENDBRANCH  21  22
ENDBRANCH  20  21
ENDBRANCH   1  20
BRANCH   7  24
HETATM   24  O6  UNL     1      58.459  13.538  24.266  1.00  0.00    -0.392 OA
ATOM     25  H6  UNL     1      58.802  12.758  24.688  1.00  0.00     0.210 HD
ENDBRANCH   7  24
BRANCH   2  26
HETATM   26  O2  UNL     1      59.429  16.981  21.984  1.00  0.00    -0.390 OA
ATOM     27  H2  UNL     1      60.301  16.679  22.209  1.00  0.00     0.210 HD
ENDBRANCH   2  26
BRANCH   3  28
HETATM   28  O3  UNL     1      56.457  17.472  21.894  1.00  0.00    -0.390 OA
ATOM     29  H3  UNL     1      56.729  18.232  21.394  1.00  0.00     0.210 HD
ENDBRANCH   3  28
BRANCH   5  30
HETATM   30  O5  UNL     1      56.169  14.324  24.846  1.00  0.00    -0.377 OA
BRANCH  30  31
HETATM   31  C9  UNL     1      54.921  13.941  25.288  1.00  0.00     0.122 C 
HETATM   32  C10 UNL     1      53.969  13.626  24.165  1.00  0.00     0.032 C 
HETATM   33  C11 UNL     1      52.696  14.419  24.222  1.00  0.00     0.002 C 
HETATM   34  C12 UNL     1      52.003  14.307  25.556  1.00  0.00     0.000 C 
HETATM   35  C13 UNL     1      52.988  14.428  26.706  1.00  0.00     0.002 C 
HETATM   36  C14 UNL     1      54.264  15.019  26.142  1.00  0.00     0.032 C 
ENDBRANCH  30  31
ENDBRANCH   5  30
BRANCH   4  37
HETATM   37  O4  UNL     1      57.411  16.406  25.154  1.00  0.00    -0.390 OA
ATOM     38  H4  UNL     1      57.411  15.492  25.413  1.00  0.00     0.210 HD
ENDBRANCH   4  37
TORSDOF 13
ENDMDL
