MODEL 1
REMARK VINA RESULT: -5.761588150      0.000      0.000
REMARK  13 active torsions:
REMARK  status: ('A' for Active; 'I' for Inactive)
REMARK    1  A    between atoms: O1_1  and  C1_3 
REMARK    2  A    between atoms: C1_3  and  C2_4 
REMARK    3  A    between atoms: C3_6  and  O3_7 
REMARK    4  A    between atoms: O3_7  and  C4_8 
REMARK    5  A    between atoms: C5_10  and  C6_11 
REMARK    6  A    between atoms: C6_11  and  O5_12 
REMARK    7  A    between atoms: C7_14  and  O6_15 
REMARK    8  A    between atoms: C8_17  and  O7_18 
REMARK    9  A    between atoms: C9_20  and  O8_21 
REMARK   10  A    between atoms: C10_23  and  O9_24 
REMARK   11  A    between atoms: O9_24  and  C11_25 
REMARK   12  A    between atoms: C11_25  and  C12_26 
REMARK   13  A    between atoms: C22_36  and  O10_37 
ROOT
HETATM    1  C2  UNL     1      54.969  14.985  27.063  1.00  0.00     0.177 C 
HETATM    2  O2  UNL     1      54.460  14.262  25.996  1.00  0.00    -0.349 OA
HETATM    3  C3  UNL     1      55.471  14.120  24.988  1.00  0.00     0.292 C 
HETATM    4  C10 UNL     1      56.506  13.204  25.563  1.00  0.00     0.179 C 
HETATM    5  C21 UNL     1      57.212  14.076  26.645  1.00  0.00     0.071 C 
HETATM    6  C22 UNL     1      56.159  14.332  27.695  1.00  0.00     0.151 C 
ENDROOT
BRANCH   3   7
HETATM    7  O3  UNL     1      54.852  13.596  23.888  1.00  0.00    -0.326 OA
BRANCH   7   8
HETATM    8  C4  UNL     1      55.250  14.232  22.703  1.00  0.00     0.294 C 
HETATM    9  O4  UNL     1      55.100  15.612  22.971  1.00  0.00    -0.348 OA
HETATM   10  C5  UNL     1      55.803  16.365  22.032  1.00  0.00     0.179 C 
HETATM   11  C7  UNL     1      56.087  15.591  20.775  1.00  0.00     0.180 C 
HETATM   12  C8  UNL     1      54.888  14.805  20.361  1.00  0.00     0.183 C 
HETATM   13  C9  UNL     1      54.512  13.856  21.482  1.00  0.00     0.204 C 
BRANCH  10  14
HETATM   14  C6  UNL     1      57.081  16.921  22.598  1.00  0.00     0.198 C 
BRANCH  14  15
HETATM   15  O5  UNL     1      58.163  16.717  21.748  1.00  0.00    -0.398 OA
ATOM     16  H5  UNL     1      58.555  15.860  21.866  1.00  0.00     0.209 HD
ENDBRANCH  14  15
ENDBRANCH  10  14
BRANCH  11  17
HETATM   17  O6  UNL     1      56.407  16.455  19.713  1.00  0.00    -0.390 OA
ATOM     18  H6  UNL     1      57.296  16.782  19.795  1.00  0.00     0.210 HD
ENDBRANCH  11  17
BRANCH  12  19
HETATM   19  O7  UNL     1      53.852  15.716  20.145  1.00  0.00    -0.390 OA
ATOM     20  H7  UNL     1      53.935  16.028  19.252  1.00  0.00     0.210 HD
ENDBRANCH  12  19
BRANCH  13  21
HETATM   21  O8  UNL     1      53.125  13.975  21.616  1.00  0.00    -0.388 OA
ATOM     22  H8  UNL     1      52.681  13.138  21.679  1.00  0.00     0.210 HD
ENDBRANCH  13  21
ENDBRANCH   7   8
ENDBRANCH   3   7
BRANCH   4  23
HETATM   23  O9  UNL     1      57.249  12.581  24.793  1.00  0.00    -0.380 OA
BRANCH  23  24
HETATM   24  C11 UNL     1      57.994  11.977  24.008  1.00  0.00     0.173 C 
BRANCH  24  25
HETATM   25  C12 UNL     1      58.575  12.882  22.917  1.00  0.00     0.018 C 
HETATM   26  C13 UNL     1      58.153  12.419  21.527  1.00  0.00    -0.007 C 
HETATM   27  C14 UNL     1      58.968  13.350  20.670  1.00  0.00     0.010 C 
HETATM   28  C19 UNL     1      58.823  11.063  21.488  1.00  0.00     0.010 C 
HETATM   29  C15 UNL     1      60.268  13.460  21.441  1.00  0.00    -0.009 C 
HETATM   30  C16 UNL     1      61.313  12.676  20.677  1.00  0.00     0.005 C 
HETATM   31  C20 UNL     1      60.058  12.661  22.730  1.00  0.00     0.000 C 
HETATM   32  C17 UNL     1      61.244  11.262  21.207  1.00  0.00     0.005 C 
HETATM   33  C18 UNL     1      60.137  11.266  22.235  1.00  0.00    -0.009 C 
ENDBRANCH  24  25
ENDBRANCH  23  24
ENDBRANCH   4  23
BRANCH   1  34
HETATM   34  C1  UNL     1      53.868  15.230  28.045  1.00  0.00     0.198 C 
BRANCH  34  35
HETATM   35  O1  UNL     1      53.028  14.103  28.105  1.00  0.00    -0.398 OA
ATOM     36  H1  UNL     1      53.554  13.318  28.204  1.00  0.00     0.209 HD
ENDBRANCH  34  35
ENDBRANCH   1  34
BRANCH   6  37
HETATM   37  O10 UNL     1      55.837  13.088  28.260  1.00  0.00    -0.393 OA
ATOM     38  H10 UNL     1      55.635  13.160  29.185  1.00  0.00     0.210 HD
ENDBRANCH   6  37
TORSDOF 13
ENDMDL
MODEL 2
REMARK VINA RESULT: -5.745523831      1.187      1.991
REMARK  13 active torsions:
REMARK  status: ('A' for Active; 'I' for Inactive)
REMARK    1  A    between atoms: O1_1  and  C1_3 
REMARK    2  A    between atoms: C1_3  and  C2_4 
REMARK    3  A    between atoms: C3_6  and  O3_7 
REMARK    4  A    between atoms: O3_7  and  C4_8 
REMARK    5  A    between atoms: C5_10  and  C6_11 
REMARK    6  A    between atoms: C6_11  and  O5_12 
REMARK    7  A    between atoms: C7_14  and  O6_15 
REMARK    8  A    between atoms: C8_17  and  O7_18 
REMARK    9  A    between atoms: C9_20  and  O8_21 
REMARK   10  A    between atoms: C10_23  and  O9_24 
REMARK   11  A    between atoms: O9_24  and  C11_25 
REMARK   12  A    between atoms: C11_25  and  C12_26 
REMARK   13  A    between atoms: C22_36  and  O10_37 
ROOT
HETATM    1  C2  UNL     1      53.285  14.888  26.632  1.00  0.00     0.177 C 
HETATM    2  O2  UNL     1      53.621  13.936  25.683  1.00  0.00    -0.349 OA
HETATM    3  C3  UNL     1      54.775  14.377  24.951  1.00  0.00     0.292 C 
HETATM    4  C10 UNL     1      55.921  14.328  25.912  1.00  0.00     0.179 C 
HETATM    5  C21 UNL     1      55.645  15.519  26.879  1.00  0.00     0.071 C 
HETATM    6  C22 UNL     1      54.383  15.144  27.616  1.00  0.00     0.151 C 
ENDROOT
BRANCH   3   7
HETATM    7  O3  UNL     1      54.923  13.513  23.903  1.00  0.00    -0.326 OA
BRANCH   7   8
HETATM    8  C4  UNL     1      55.058  14.183  22.678  1.00  0.00     0.294 C 
HETATM    9  O4  UNL     1      54.867  15.547  22.996  1.00  0.00    -0.348 OA
HETATM   10  C5  UNL     1      55.337  16.354  21.961  1.00  0.00     0.179 C 
HETATM   11  C7  UNL     1      55.442  15.611  20.658  1.00  0.00     0.180 C 
HETATM   12  C8  UNL     1      54.243  14.747  20.451  1.00  0.00     0.183 C 
HETATM   13  C9  UNL     1      54.139  13.766  21.602  1.00  0.00     0.204 C 
BRANCH  10  14
HETATM   14  C6  UNL     1      56.656  16.994  22.299  1.00  0.00     0.198 C 
BRANCH  14  15
HETATM   15  O5  UNL     1      57.647  16.669  21.379  1.00  0.00    -0.398 OA
ATOM     16  H5  UNL     1      58.040  17.441  20.988  1.00  0.00     0.209 HD
ENDBRANCH  14  15
ENDBRANCH  10  14
BRANCH  11  17
HETATM   17  O6  UNL     1      55.506  16.503  19.573  1.00  0.00    -0.390 OA
ATOM     18  H6  UNL     1      56.179  16.240  18.956  1.00  0.00     0.210 HD
ENDBRANCH  11  17
BRANCH  12  19
HETATM   19  O7  UNL     1      53.126  15.585  20.442  1.00  0.00    -0.390 OA
ATOM     20  H7  UNL     1      53.207  16.168  21.187  1.00  0.00     0.210 HD
ENDBRANCH  12  19
BRANCH  13  21
HETATM   21  O8  UNL     1      52.794  13.787  21.985  1.00  0.00    -0.388 OA
ATOM     22  H8  UNL     1      52.195  13.681  21.256  1.00  0.00     0.210 HD
ENDBRANCH  13  21
ENDBRANCH   7   8
ENDBRANCH   3   7
BRANCH   4  23
HETATM   23  O9  UNL     1      57.073  14.242  25.466  1.00  0.00    -0.380 OA
BRANCH  23  24
HETATM   24  C11 UNL     1      58.223  14.175  25.008  1.00  0.00     0.173 C 
BRANCH  24  25
HETATM   25  C12 UNL     1      58.717  12.736  24.835  1.00  0.00     0.018 C 
HETATM   26  C13 UNL     1      60.105  12.695  24.206  1.00  0.00    -0.007 C 
HETATM   27  C14 UNL     1      60.270  11.213  24.006  1.00  0.00     0.010 C 
HETATM   28  C19 UNL     1      59.798  13.304  22.855  1.00  0.00     0.010 C 
HETATM   29  C15 UNL     1      58.875  10.771  23.611  1.00  0.00    -0.009 C 
HETATM   30  C16 UNL     1      58.904  10.451  22.133  1.00  0.00     0.005 C 
HETATM   31  C20 UNL     1      57.997  12.022  23.713  1.00  0.00     0.000 C 
HETATM   32  C17 UNL     1      58.581  11.743  21.419  1.00  0.00     0.005 C 
HETATM   33  C18 UNL     1      58.410  12.778  22.507  1.00  0.00    -0.009 C 
ENDBRANCH  24  25
ENDBRANCH  23  24
ENDBRANCH   4  23
BRANCH   1  34
HETATM   34  C1  UNL     1      52.012  14.471  27.297  1.00  0.00     0.198 C 
BRANCH  34  35
HETATM   35  O1  UNL     1      50.964  14.475  26.358  1.00  0.00    -0.398 OA
ATOM     36  H1  UNL     1      50.225  13.988  26.702  1.00  0.00     0.209 HD
ENDBRANCH  34  35
ENDBRANCH   1  34
BRANCH   6  37
HETATM   37  O10 UNL     1      54.680  14.004  28.379  1.00  0.00    -0.393 OA
ATOM     38  H10 UNL     1      55.558  13.682  28.210  1.00  0.00     0.210 HD
ENDBRANCH   6  37
TORSDOF 13
ENDMDL
MODEL 3
REMARK VINA RESULT: -5.695744217      2.745      6.076
REMARK  13 active torsions:
REMARK  status: ('A' for Active; 'I' for Inactive)
REMARK    1  A    between atoms: O1_1  and  C1_3 
REMARK    2  A    between atoms: C1_3  and  C2_4 
REMARK    3  A    between atoms: C3_6  and  O3_7 
REMARK    4  A    between atoms: O3_7  and  C4_8 
REMARK    5  A    between atoms: C5_10  and  C6_11 
REMARK    6  A    between atoms: C6_11  and  O5_12 
REMARK    7  A    between atoms: C7_14  and  O6_15 
REMARK    8  A    between atoms: C8_17  and  O7_18 
REMARK    9  A    between atoms: C9_20  and  O8_21 
REMARK   10  A    between atoms: C10_23  and  O9_24 
REMARK   11  A    between atoms: O9_24  and  C11_25 
REMARK   12  A    between atoms: C11_25  and  C12_26 
REMARK   13  A    between atoms: C22_36  and  O10_37 
ROOT
HETATM    1  C2  UNL     1      55.760  17.738  20.557  1.00  0.00     0.177 C 
HETATM    2  O2  UNL     1      56.993  17.134  20.375  1.00  0.00    -0.349 OA
HETATM    3  C3  UNL     1      57.298  16.313  21.513  1.00  0.00     0.292 C 
HETATM    4  C10 UNL     1      56.339  15.165  21.465  1.00  0.00     0.179 C 
HETATM    5  C21 UNL     1      54.972  15.806  21.853  1.00  0.00     0.071 C 
HETATM    6  C22 UNL     1      54.646  16.752  20.723  1.00  0.00     0.151 C 
ENDROOT
BRANCH   3   7
HETATM    7  O3  UNL     1      58.600  15.924  21.374  1.00  0.00    -0.326 OA
BRANCH   7   8
HETATM    8  C4  UNL     1      59.379  16.274  22.487  1.00  0.00     0.294 C 
HETATM    9  O4  UNL     1      58.598  17.223  23.184  1.00  0.00    -0.348 OA
HETATM   10  C5  UNL     1      59.073  17.377  24.486  1.00  0.00     0.179 C 
HETATM   11  C7  UNL     1      60.496  16.913  24.633  1.00  0.00     0.180 C 
HETATM   12  C8  UNL     1      61.318  17.371  23.476  1.00  0.00     0.183 C 
HETATM   13  C9  UNL     1      60.721  16.815  22.199  1.00  0.00     0.204 C 
BRANCH  10  14
HETATM   14  C6  UNL     1      58.195  16.682  25.491  1.00  0.00     0.198 C 
BRANCH  14  15
HETATM   15  O5  UNL     1      56.870  16.616  25.073  1.00  0.00    -0.398 OA
ATOM     16  H5  UNL     1      56.317  16.175  25.707  1.00  0.00     0.209 HD
ENDBRANCH  14  15
ENDBRANCH  10  14
BRANCH  11  17
HETATM   17  O6  UNL     1      61.080  17.444  25.797  1.00  0.00    -0.390 OA
ATOM     18  H6  UNL     1      61.019  16.830  26.520  1.00  0.00     0.210 HD
ENDBRANCH  11  17
BRANCH  12  19
HETATM   19  O7  UNL     1      61.263  18.766  23.456  1.00  0.00    -0.390 OA
ATOM     20  H7  UNL     1      61.587  19.048  22.609  1.00  0.00     0.210 HD
ENDBRANCH  12  19
BRANCH  13  21
HETATM   21  O8  UNL     1      60.703  17.889  21.302  1.00  0.00    -0.388 OA
ATOM     22  H8  UNL     1      61.418  17.867  20.677  1.00  0.00     0.210 HD
ENDBRANCH  13  21
ENDBRANCH   7   8
ENDBRANCH   3   7
BRANCH   4  23
HETATM   23  O9  UNL     1      56.635  14.114  22.050  1.00  0.00    -0.380 OA
BRANCH  23  24
HETATM   24  C11 UNL     1      56.953  13.068  22.633  1.00  0.00     0.173 C 
BRANCH  24  25
HETATM   25  C12 UNL     1      57.292  13.284  24.111  1.00  0.00     0.018 C 
HETATM   26  C13 UNL     1      58.692  12.779  24.441  1.00  0.00    -0.007 C 
HETATM   27  C14 UNL     1      58.701  12.958  25.936  1.00  0.00     0.010 C 
HETATM   28  C19 UNL     1      58.511  11.304  24.162  1.00  0.00     0.010 C 
HETATM   29  C15 UNL     1      57.283  12.590  26.325  1.00  0.00    -0.009 C 
HETATM   30  C16 UNL     1      57.339  11.240  27.004  1.00  0.00     0.005 C 
HETATM   31  C20 UNL     1      56.546  12.325  25.009  1.00  0.00     0.000 C 
HETATM   32  C17 UNL     1      57.190  10.212  25.906  1.00  0.00     0.005 C 
HETATM   33  C18 UNL     1      57.089  11.001  24.622  1.00  0.00    -0.009 C 
ENDBRANCH  24  25
ENDBRANCH  23  24
ENDBRANCH   4  23
BRANCH   1  34
HETATM   34  C1  UNL     1      55.517  18.683  19.424  1.00  0.00     0.198 C 
BRANCH  34  35
HETATM   35  O1  UNL     1      54.997  19.892  19.919  1.00  0.00    -0.398 OA
ATOM     36  H1  UNL     1      55.215  20.601  19.325  1.00  0.00     0.209 HD
ENDBRANCH  34  35
ENDBRANCH   1  34
BRANCH   6  37
HETATM   37  O10 UNL     1      54.465  15.966  19.574  1.00  0.00    -0.393 OA
ATOM     38  H10 UNL     1      53.652  15.476  19.604  1.00  0.00     0.210 HD
ENDBRANCH   6  37
TORSDOF 13
ENDMDL
MODEL 4
REMARK VINA RESULT: -5.680370958      2.675      5.445
REMARK  13 active torsions:
REMARK  status: ('A' for Active; 'I' for Inactive)
REMARK    1  A    between atoms: O1_1  and  C1_3 
REMARK    2  A    between atoms: C1_3  and  C2_4 
REMARK    3  A    between atoms: C3_6  and  O3_7 
REMARK    4  A    between atoms: O3_7  and  C4_8 
REMARK    5  A    between atoms: C5_10  and  C6_11 
REMARK    6  A    between atoms: C6_11  and  O5_12 
REMARK    7  A    between atoms: C7_14  and  O6_15 
REMARK    8  A    between atoms: C8_17  and  O7_18 
REMARK    9  A    between atoms: C9_20  and  O8_21 
REMARK   10  A    between atoms: C10_23  and  O9_24 
REMARK   11  A    between atoms: O9_24  and  C11_25 
REMARK   12  A    between atoms: C11_25  and  C12_26 
REMARK   13  A    between atoms: C22_36  and  O10_37 
ROOT
HETATM    1  C2  UNL     1      61.241  17.296  21.285  1.00  0.00     0.177 C 
HETATM    2  O2  UNL     1      60.091  17.622  21.985  1.00  0.00    -0.349 OA
HETATM    3  C3  UNL     1      59.335  16.431  22.248  1.00  0.00     0.292 C 
HETATM    4  C10 UNL     1      60.132  15.643  23.239  1.00  0.00     0.179 C 
HETATM    5  C21 UNL     1      61.340  15.114  22.408  1.00  0.00     0.071 C 
HETATM    6  C22 UNL     1      62.126  16.344  22.028  1.00  0.00     0.151 C 
ENDROOT
BRANCH   3   7
HETATM    7  O3  UNL     1      58.127  16.838  22.740  1.00  0.00    -0.326 OA
BRANCH   7   8
HETATM    8  C4  UNL     1      57.056  16.385  21.957  1.00  0.00     0.294 C 
HETATM    9  O4  UNL     1      56.274  17.539  21.722  1.00  0.00    -0.348 OA
HETATM   10  C5  UNL     1      55.395  17.318  20.663  1.00  0.00     0.179 C 
HETATM   11  C7  UNL     1      55.165  15.855  20.405  1.00  0.00     0.180 C 
HETATM   12  C8  UNL     1      54.990  15.118  21.691  1.00  0.00     0.183 C 
HETATM   13  C9  UNL     1      56.233  15.308  22.539  1.00  0.00     0.204 C 
BRANCH  10  14
HETATM   14  C6  UNL     1      55.850  18.000  19.402  1.00  0.00     0.198 C 
BRANCH  14  15
HETATM   15  O5  UNL     1      56.227  19.320  19.625  1.00  0.00    -0.398 OA
ATOM     16  H5  UNL     1      55.725  19.930  19.099  1.00  0.00     0.209 HD
ENDBRANCH  14  15
ENDBRANCH  10  14
BRANCH  11  17
HETATM   17  O6  UNL     1      53.998  15.654  19.647  1.00  0.00    -0.390 OA
ATOM     18  H6  UNL     1      54.104  15.987  18.764  1.00  0.00     0.210 HD
ENDBRANCH  11  17
BRANCH  12  19
HETATM   19  O7  UNL     1      53.886  15.676  22.339  1.00  0.00    -0.390 OA
ATOM     20  H7  UNL     1      54.050  15.619  23.273  1.00  0.00     0.210 HD
ENDBRANCH  12  19
BRANCH  13  21
HETATM   21  O8  UNL     1      55.762  15.604  23.823  1.00  0.00    -0.388 OA
ATOM     22  H8  UNL     1      54.879  15.293  23.980  1.00  0.00     0.210 HD
ENDBRANCH  13  21
ENDBRANCH   7   8
ENDBRANCH   3   7
BRANCH   4  23
HETATM   23  O9  UNL     1      59.551  14.810  23.948  1.00  0.00    -0.380 OA
BRANCH  23  24
HETATM   24  C11 UNL     1      58.989  13.967  24.663  1.00  0.00     0.173 C 
BRANCH  24  25
HETATM   25  C12 UNL     1      59.221  12.530  24.188  1.00  0.00     0.018 C 
HETATM   26  C13 UNL     1      58.109  12.067  23.252  1.00  0.00    -0.007 C 
HETATM   27  C14 UNL     1      58.486  10.620  23.076  1.00  0.00     0.010 C 
HETATM   28  C19 UNL     1      56.931  12.117  24.200  1.00  0.00     0.010 C 
HETATM   29  C15 UNL     1      58.990  10.236  24.453  1.00  0.00    -0.009 C 
HETATM   30  C16 UNL     1      57.941   9.350  25.087  1.00  0.00     0.005 C 
HETATM   31  C20 UNL     1      58.955  11.523  25.284  1.00  0.00     0.000 C 
HETATM   32  C17 UNL     1      56.992  10.278  25.811  1.00  0.00     0.005 C 
HETATM   33  C18 UNL     1      57.503  11.674  25.542  1.00  0.00    -0.009 C 
ENDBRANCH  24  25
ENDBRANCH  23  24
ENDBRANCH   4  23
BRANCH   1  34
HETATM   34  C1  UNL     1      61.950  18.559  20.913  1.00  0.00     0.198 C 
BRANCH  34  35
HETATM   35  O1  UNL     1      61.131  19.330  20.070  1.00  0.00    -0.398 OA
ATOM     36  H1  UNL     1      61.107  20.228  20.381  1.00  0.00     0.209 HD
ENDBRANCH  34  35
ENDBRANCH   1  34
BRANCH   6  37
HETATM   37  O10 UNL     1      62.611  16.902  23.221  1.00  0.00    -0.393 OA
ATOM     38  H10 UNL     1      63.014  17.751  23.079  1.00  0.00     0.210 HD
ENDBRANCH   6  37
TORSDOF 13
ENDMDL
MODEL 5
REMARK VINA RESULT: -5.658162058      1.702      3.058
REMARK  13 active torsions:
REMARK  status: ('A' for Active; 'I' for Inactive)
REMARK    1  A    between atoms: O1_1  and  C1_3 
REMARK    2  A    between atoms: C1_3  and  C2_4 
REMARK    3  A    between atoms: C3_6  and  O3_7 
REMARK    4  A    between atoms: O3_7  and  C4_8 
REMARK    5  A    between atoms: C5_10  and  C6_11 
REMARK    6  A    between atoms: C6_11  and  O5_12 
REMARK    7  A    between atoms: C7_14  and  O6_15 
REMARK    8  A    between atoms: C8_17  and  O7_18 
REMARK    9  A    between atoms: C9_20  and  O8_21 
REMARK   10  A    between atoms: C10_23  and  O9_24 
REMARK   11  A    between atoms: O9_24  and  C11_25 
REMARK   12  A    between atoms: C11_25  and  C12_26 
REMARK   13  A    between atoms: C22_36  and  O10_37 
ROOT
HETATM    1  C2  UNL     1      55.595  15.121  25.946  1.00  0.00     0.177 C 
HETATM    2  O2  UNL     1      55.894  15.162  24.594  1.00  0.00    -0.349 OA
HETATM    3  C3  UNL     1      57.284  15.477  24.419  1.00  0.00     0.292 C 
HETATM    4  C10 UNL     1      58.045  14.284  24.907  1.00  0.00     0.179 C 
HETATM    5  C21 UNL     1      57.866  14.337  26.454  1.00  0.00     0.071 C 
HETATM    6  C22 UNL     1      56.395  14.098  26.689  1.00  0.00     0.151 C 
ENDROOT
BRANCH   3   7
HETATM    7  O3  UNL     1      57.464  15.713  23.086  1.00  0.00    -0.326 OA
BRANCH   7   8
HETATM    8  C4  UNL     1      56.247  15.809  22.395  1.00  0.00     0.294 C 
HETATM    9  O4  UNL     1      56.174  14.620  21.635  1.00  0.00    -0.348 OA
HETATM   10  C5  UNL     1      54.869  14.407  21.196  1.00  0.00     0.179 C 
HETATM   11  C7  UNL     1      54.048  15.667  21.208  1.00  0.00     0.180 C 
HETATM   12  C8  UNL     1      54.841  16.813  20.675  1.00  0.00     0.183 C 
HETATM   13  C9  UNL     1      56.081  16.992  21.529  1.00  0.00     0.204 C 
BRANCH  10  14
HETATM   14  C6  UNL     1      54.177  13.331  21.988  1.00  0.00     0.198 C 
BRANCH  14  15
HETATM   15  O5  UNL     1      52.988  13.780  22.554  1.00  0.00    -0.398 OA
ATOM     16  H5  UNL     1      52.528  13.088  23.014  1.00  0.00     0.209 HD
ENDBRANCH  14  15
ENDBRANCH  10  14
BRANCH  11  17
HETATM   17  O6  UNL     1      52.909  15.534  20.395  1.00  0.00    -0.390 OA
ATOM     18  H6  UNL     1      53.035  14.859  19.739  1.00  0.00     0.210 HD
ENDBRANCH  11  17
BRANCH  12  19
HETATM   19  O7  UNL     1      55.210  16.488  19.368  1.00  0.00    -0.390 OA
ATOM     20  H7  UNL     1      54.583  16.904  18.788  1.00  0.00     0.210 HD
ENDBRANCH  12  19
BRANCH  13  21
HETATM   21  O8  UNL     1      57.132  17.165  20.622  1.00  0.00    -0.388 OA
ATOM     22  H8  UNL     1      56.850  17.505  19.781  1.00  0.00     0.210 HD
ENDBRANCH  13  21
ENDBRANCH   7   8
ENDBRANCH   3   7
BRANCH   4  23
HETATM   23  O9  UNL     1      59.199  14.101  24.496  1.00  0.00    -0.380 OA
BRANCH  23  24
HETATM   24  C11 UNL     1      60.354  13.940  24.076  1.00  0.00     0.173 C 
BRANCH  24  25
HETATM   25  C12 UNL     1      60.408  13.617  22.580  1.00  0.00     0.018 C 
HETATM   26  C13 UNL     1      61.629  12.771  22.237  1.00  0.00    -0.007 C 
HETATM   27  C14 UNL     1      61.526  12.740  20.735  1.00  0.00     0.010 C 
HETATM   28  C19 UNL     1      62.731  13.742  22.598  1.00  0.00     0.010 C 
HETATM   29  C15 UNL     1      61.032  14.135  20.407  1.00  0.00    -0.009 C 
HETATM   30  C16 UNL     1      62.191  14.892  19.797  1.00  0.00     0.005 C 
HETATM   31  C20 UNL     1      60.795  14.822  21.755  1.00  0.00     0.000 C 
HETATM   32  C17 UNL     1      62.921  15.540  20.951  1.00  0.00     0.005 C 
HETATM   33  C18 UNL     1      62.182  15.107  22.195  1.00  0.00    -0.009 C 
ENDBRANCH  24  25
ENDBRANCH  23  24
ENDBRANCH   4  23
BRANCH   1  34
HETATM   34  C1  UNL     1      54.122  14.916  26.104  1.00  0.00     0.198 C 
BRANCH  34  35
HETATM   35  O1  UNL     1      53.702  13.853  25.285  1.00  0.00    -0.398 OA
ATOM     36  H1  UNL     1      53.589  13.070  25.811  1.00  0.00     0.209 HD
ENDBRANCH  34  35
ENDBRANCH   1  34
BRANCH   6  37
HETATM   37  O10 UNL     1      56.118  12.794  26.249  1.00  0.00    -0.393 OA
ATOM     38  H10 UNL     1      56.062  12.743  25.302  1.00  0.00     0.210 HD
ENDBRANCH   6  37
TORSDOF 13
ENDMDL
