MODEL 1
REMARK VINA RESULT: -6.138050736      0.000      0.000
REMARK  12 active torsions:
REMARK  status: ('A' for Active; 'I' for Inactive)
REMARK    1  A    between atoms: N1_2  and  C2_3 
REMARK    2  A    between atoms: N1_2  and  C15_32 
REMARK    3  A    between atoms: C2_3  and  C3_4 
REMARK    4  A    between atoms: C3_4  and  O1_5 
REMARK    5  A    between atoms: C6_10  and  C7_11 
REMARK    6  A    between atoms: C7_11  and  N2_12 
REMARK       I    between atoms: N2_12  and  C8_14 
REMARK    7  A    between atoms: C8_14  and  C9_16 
REMARK    8  A    between atoms: C10_18  and  C11_19 
REMARK    9  A    between atoms: C11_19  and  O4_20 
REMARK   10  A    between atoms: C12_22  and  O5_23 
REMARK   11  A    between atoms: C13_25  and  O6_26 
REMARK   12  A    between atoms: C14_28  and  O7_29 
ROOT
HETATM    1  N2  UNL     1      58.803   9.669  22.891  1.00  0.00    -0.356 N 
ATOM      2  H2  UNL     1      57.906   9.380  22.499  1.00  0.00     0.162 HD
HETATM    3  C8  UNL     1      59.871   8.766  22.665  1.00  0.00     0.249 C 
HETATM    4  O2  UNL     1      61.026   8.984  23.049  1.00  0.00    -0.271 OA
ENDROOT
BRANCH   1   5
HETATM    5  C7  UNL     1      58.784  10.904  23.572  1.00  0.00     0.155 C 
BRANCH   5   6
HETATM    6  C6  UNL     1      58.983  12.131  22.767  1.00  0.00     0.152 C 
HETATM    7  C5  UNL     1      59.568  11.984  21.441  1.00  0.00     0.107 C 
HETATM    8  S1  UNL     1      59.946  13.721  20.889  1.00  0.00    -0.161 SA
HETATM    9  C4  UNL     1      58.522  14.677  21.444  1.00  0.00     0.144 C 
HETATM   10  C3  UNL     1      57.467  13.699  21.877  1.00  0.00     0.197 C 
HETATM   11  O8  UNL     1      57.807  12.872  22.873  1.00  0.00    -0.345 OA
BRANCH  10  12
HETATM   12  C2  UNL     1      56.150  14.392  22.210  1.00  0.00     0.341 C 
BRANCH  12  13
HETATM   13  N1  UNL     1      55.023  13.922  21.482  1.00  0.00     0.094 N 
HETATM   14  C1  UNL     1      54.394  14.976  20.731  1.00  0.00     0.310 C 
BRANCH  13  15
HETATM   15  C15 UNL     1      54.101  13.315  22.432  1.00  0.00     0.222 C 
HETATM   16  C16 UNL     1      52.682  13.309  21.968  1.00  0.00     0.036 C 
HETATM   17  C17 UNL     1      51.885  12.487  22.990  1.00  0.00     0.002 C 
HETATM   18  C18 UNL     1      51.787  13.316  24.244  1.00  0.00     0.000 C 
HETATM   19  C19 UNL     1      52.826  14.390  24.318  1.00  0.00     0.002 C 
HETATM   20  C20 UNL     1      54.161  13.976  23.783  1.00  0.00     0.036 C 
ENDBRANCH  13  15
ENDBRANCH  12  13
ENDBRANCH  10  12
BRANCH  10  21
HETATM   21  O1  UNL     1      57.163  12.936  20.719  1.00  0.00    -0.363 OA
ATOM     22  H1  UNL     1      56.900  12.093  21.067  1.00  0.00     0.213 HD
ENDBRANCH  10  21
ENDBRANCH   5   6
ENDBRANCH   1   5
BRANCH   3  23
HETATM   23  C9  UNL     1      59.540   7.515  21.924  1.00  0.00     0.245 C 
HETATM   24  O3  UNL     1      60.653   6.934  21.329  1.00  0.00    -0.364 OA
HETATM   25  C10 UNL     1      60.214   6.035  20.372  1.00  0.00     0.177 C 
HETATM   26  C12 UNL     1      59.133   5.111  20.762  1.00  0.00     0.180 C 
HETATM   27  C13 UNL     1      58.259   5.475  21.901  1.00  0.00     0.181 C 
HETATM   28  C14 UNL     1      58.992   6.421  22.827  1.00  0.00     0.187 C 
BRANCH  25  29
HETATM   29  C11 UNL     1      59.930   6.808  19.091  1.00  0.00     0.198 C 
BRANCH  29  30
HETATM   30  O4  UNL     1      60.266   5.963  18.024  1.00  0.00    -0.398 OA
ATOM     31  H4  UNL     1      61.173   5.711  18.147  1.00  0.00     0.209 HD
ENDBRANCH  29  30
ENDBRANCH  25  29
BRANCH  26  32
HETATM   32  O5  UNL     1      58.335   4.912  19.602  1.00  0.00    -0.390 OA
ATOM     33  H5  UNL     1      57.703   4.238  19.822  1.00  0.00     0.210 HD
ENDBRANCH  26  32
BRANCH  27  34
HETATM   34  O6  UNL     1      57.102   6.171  21.482  1.00  0.00    -0.390 OA
ATOM     35  H6  UNL     1      56.391   6.091  22.107  1.00  0.00     0.210 HD
ENDBRANCH  27  34
BRANCH  28  36
HETATM   36  O7  UNL     1      58.221   6.884  23.861  1.00  0.00    -0.390 OA
ATOM     37  H7  UNL     1      58.031   6.232  24.525  1.00  0.00     0.210 HD
ENDBRANCH  28  36
ENDBRANCH   3  23
TORSDOF 12
ENDMDL
MODEL 2
REMARK VINA RESULT: -6.133691729      4.836      7.566
REMARK  12 active torsions:
REMARK  status: ('A' for Active; 'I' for Inactive)
REMARK    1  A    between atoms: N1_2  and  C2_3 
REMARK    2  A    between atoms: N1_2  and  C15_32 
REMARK    3  A    between atoms: C2_3  and  C3_4 
REMARK    4  A    between atoms: C3_4  and  O1_5 
REMARK    5  A    between atoms: C6_10  and  C7_11 
REMARK    6  A    between atoms: C7_11  and  N2_12 
REMARK       I    between atoms: N2_12  and  C8_14 
REMARK    7  A    between atoms: C8_14  and  C9_16 
REMARK    8  A    between atoms: C10_18  and  C11_19 
REMARK    9  A    between atoms: C11_19  and  O4_20 
REMARK   10  A    between atoms: C12_22  and  O5_23 
REMARK   11  A    between atoms: C13_25  and  O6_26 
REMARK   12  A    between atoms: C14_28  and  O7_29 
ROOT
HETATM    1  N2  UNL     1      58.280  13.200  21.371  1.00  0.00    -0.356 N 
ATOM      2  H2  UNL     1      57.930  13.317  20.420  1.00  0.00     0.162 HD
HETATM    3  C8  UNL     1      57.412  13.669  22.388  1.00  0.00     0.249 C 
HETATM    4  O2  UNL     1      57.677  13.575  23.592  1.00  0.00    -0.271 OA
ENDROOT
BRANCH   1   5
HETATM    5  C7  UNL     1      59.552  12.598  21.467  1.00  0.00     0.155 C 
BRANCH   5   6
HETATM    6  C6  UNL     1      60.736  13.482  21.353  1.00  0.00     0.152 C 
HETATM    7  C5  UNL     1      60.986  14.118  20.067  1.00  0.00     0.107 C 
HETATM    8  S1  UNL     1      62.683  14.866  20.224  1.00  0.00    -0.161 SA
HETATM    9  C4  UNL     1      62.711  15.545  21.894  1.00  0.00     0.144 C 
HETATM   10  C3  UNL     1      61.302  15.507  22.415  1.00  0.00     0.197 C 
HETATM   11  O8  UNL     1      60.733  14.298  22.484  1.00  0.00    -0.345 OA
BRANCH  10  12
HETATM   12  C2  UNL     1      61.173  16.214  23.760  1.00  0.00     0.341 C 
BRANCH  12  13
HETATM   13  N1  UNL     1      60.253  17.297  23.785  1.00  0.00     0.094 N 
HETATM   14  C1  UNL     1      60.903  18.545  24.087  1.00  0.00     0.310 C 
BRANCH  13  15
HETATM   15  C15 UNL     1      59.218  16.980  24.760  1.00  0.00     0.222 C 
HETATM   16  C16 UNL     1      57.832  17.084  24.217  1.00  0.00     0.036 C 
HETATM   17  C17 UNL     1      56.888  16.554  25.305  1.00  0.00     0.002 C 
HETATM   18  C18 UNL     1      56.857  17.584  26.403  1.00  0.00     0.000 C 
HETATM   19  C19 UNL     1      58.032  18.509  26.370  1.00  0.00     0.002 C 
HETATM   20  C20 UNL     1      59.316  17.842  25.990  1.00  0.00     0.036 C 
ENDBRANCH  13  15
ENDBRANCH  12  13
ENDBRANCH  10  12
BRANCH  10  21
HETATM   21  O1  UNL     1      60.551  16.327  21.531  1.00  0.00    -0.363 OA
ATOM     22  H1  UNL     1      61.199  16.918  21.168  1.00  0.00     0.213 HD
ENDBRANCH  10  21
ENDBRANCH   5   6
ENDBRANCH   1   5
BRANCH   3  23
HETATM   23  C9  UNL     1      56.135  14.293  21.937  1.00  0.00     0.245 C 
HETATM   24  O3  UNL     1      55.230  14.473  22.976  1.00  0.00    -0.364 OA
HETATM   25  C10 UNL     1      53.976  14.682  22.429  1.00  0.00     0.177 C 
HETATM   26  C12 UNL     1      53.879  15.641  21.314  1.00  0.00     0.180 C 
HETATM   27  C13 UNL     1      55.096  15.948  20.527  1.00  0.00     0.181 C 
HETATM   28  C14 UNL     1      56.327  15.691  21.369  1.00  0.00     0.187 C 
BRANCH  25  29
HETATM   29  C11 UNL     1      53.359  13.322  22.126  1.00  0.00     0.198 C 
BRANCH  29  30
HETATM   30  O4  UNL     1      52.202  13.217  22.911  1.00  0.00    -0.398 OA
ATOM     31  H4  UNL     1      51.972  12.296  22.940  1.00  0.00     0.209 HD
ENDBRANCH  29  30
ENDBRANCH  25  29
BRANCH  26  32
HETATM   32  O5  UNL     1      52.869  15.146  20.442  1.00  0.00    -0.390 OA
ATOM     33  H5  UNL     1      52.248  15.853  20.320  1.00  0.00     0.210 HD
ENDBRANCH  26  32
BRANCH  27  34
HETATM   34  O6  UNL     1      55.224  15.109  19.397  1.00  0.00    -0.390 OA
ATOM     35  H6  UNL     1      56.133  14.919  19.194  1.00  0.00     0.210 HD
ENDBRANCH  27  34
BRANCH  28  36
HETATM   36  O7  UNL     1      57.504  15.859  20.687  1.00  0.00    -0.390 OA
ATOM     37  H7  UNL     1      57.445  15.665  19.759  1.00  0.00     0.210 HD
ENDBRANCH  28  36
ENDBRANCH   3  23
TORSDOF 12
ENDMDL
MODEL 3
REMARK VINA RESULT: -6.091657133      6.392      8.796
REMARK  12 active torsions:
REMARK  status: ('A' for Active; 'I' for Inactive)
REMARK    1  A    between atoms: N1_2  and  C2_3 
REMARK    2  A    between atoms: N1_2  and  C15_32 
REMARK    3  A    between atoms: C2_3  and  C3_4 
REMARK    4  A    between atoms: C3_4  and  O1_5 
REMARK    5  A    between atoms: C6_10  and  C7_11 
REMARK    6  A    between atoms: C7_11  and  N2_12 
REMARK       I    between atoms: N2_12  and  C8_14 
REMARK    7  A    between atoms: C8_14  and  C9_16 
REMARK    8  A    between atoms: C10_18  and  C11_19 
REMARK    9  A    between atoms: C11_19  and  O4_20 
REMARK   10  A    between atoms: C12_22  and  O5_23 
REMARK   11  A    between atoms: C13_25  and  O6_26 
REMARK   12  A    between atoms: C14_28  and  O7_29 
ROOT
HETATM    1  N2  UNL     1      53.451  14.401  23.833  1.00  0.00    -0.356 N 
ATOM      2  H2  UNL     1      53.896  15.289  24.063  1.00  0.00     0.162 HD
HETATM    3  C8  UNL     1      53.792  13.874  22.562  1.00  0.00     0.249 C 
HETATM    4  O2  UNL     1      53.360  12.792  22.146  1.00  0.00    -0.271 OA
ENDROOT
BRANCH   1   5
HETATM    5  C7  UNL     1      52.591  13.890  24.828  1.00  0.00     0.155 C 
BRANCH   5   6
HETATM    6  C6  UNL     1      52.449  14.676  26.076  1.00  0.00     0.152 C 
HETATM    7  C5  UNL     1      51.323  14.367  26.947  1.00  0.00     0.107 C 
HETATM    8  S1  UNL     1      51.303  15.736  28.208  1.00  0.00    -0.161 SA
HETATM    9  C4  UNL     1      53.043  16.005  28.591  1.00  0.00     0.144 C 
HETATM   10  C3  UNL     1      53.816  14.869  27.985  1.00  0.00     0.197 C 
HETATM   11  O8  UNL     1      53.715  14.732  26.657  1.00  0.00    -0.345 OA
BRANCH  10  12
HETATM   12  C2  UNL     1      55.286  14.899  28.389  1.00  0.00     0.341 C 
BRANCH  12  13
HETATM   13  N1  UNL     1      56.199  14.519  27.368  1.00  0.00     0.094 N 
HETATM   14  C1  UNL     1      57.008  13.396  27.765  1.00  0.00     0.310 C 
BRANCH  13  15
HETATM   15  C15 UNL     1      57.015  15.681  27.043  1.00  0.00     0.222 C 
HETATM   16  C16 UNL     1      56.594  16.377  25.792  1.00  0.00     0.036 C 
HETATM   17  C17 UNL     1      57.431  17.659  25.694  1.00  0.00     0.002 C 
HETATM   18  C18 UNL     1      58.836  17.245  25.348  1.00  0.00     0.000 C 
HETATM   19  C19 UNL     1      59.118  15.810  25.666  1.00  0.00     0.002 C 
HETATM   20  C20 UNL     1      58.475  15.334  26.930  1.00  0.00     0.036 C 
ENDBRANCH  13  15
ENDBRANCH  12  13
ENDBRANCH  10  12
BRANCH  10  21
HETATM   21  O1  UNL     1      53.318  13.697  28.614  1.00  0.00    -0.363 OA
ATOM     22  H1  UNL     1      52.752  14.032  29.298  1.00  0.00     0.213 HD
ENDBRANCH  10  21
ENDBRANCH   5   6
ENDBRANCH   1   5
BRANCH   3  23
HETATM   23  C9  UNL     1      54.718  14.693  21.729  1.00  0.00     0.245 C 
HETATM   24  O3  UNL     1      55.901  14.029  21.431  1.00  0.00    -0.364 OA
HETATM   25  C10 UNL     1      56.830  14.963  21.008  1.00  0.00     0.177 C 
HETATM   26  C12 UNL     1      56.381  15.959  20.018  1.00  0.00     0.180 C 
HETATM   27  C13 UNL     1      54.931  16.238  19.892  1.00  0.00     0.181 C 
HETATM   28  C14 UNL     1      54.137  15.041  20.367  1.00  0.00     0.187 C 
BRANCH  25  29
HETATM   29  C11 UNL     1      57.483  15.574  22.242  1.00  0.00     0.198 C 
BRANCH  29  30
HETATM   30  O4  UNL     1      58.815  15.847  21.903  1.00  0.00    -0.398 OA
ATOM     31  H4  UNL     1      59.153  16.436  22.567  1.00  0.00     0.209 HD
ENDBRANCH  29  30
ENDBRANCH  25  29
BRANCH  26  32
HETATM   32  O5  UNL     1      57.067  17.167  20.321  1.00  0.00    -0.390 OA
ATOM     33  H5  UNL     1      56.623  17.857  19.843  1.00  0.00     0.210 HD
ENDBRANCH  26  32
BRANCH  27  34
HETATM   34  O6  UNL     1      54.524  17.315  20.713  1.00  0.00    -0.390 OA
ATOM     35  H6  UNL     1      53.670  17.650  20.465  1.00  0.00     0.210 HD
ENDBRANCH  27  34
BRANCH  28  36
HETATM   36  O7  UNL     1      52.783  15.248  20.375  1.00  0.00    -0.390 OA
ATOM     37  H7  UNL     1      52.504  16.006  19.875  1.00  0.00     0.210 HD
ENDBRANCH  28  36
ENDBRANCH   3  23
TORSDOF 12
ENDMDL
MODEL 4
REMARK VINA RESULT: -6.083962036      5.127      7.647
REMARK  12 active torsions:
REMARK  status: ('A' for Active; 'I' for Inactive)
REMARK    1  A    between atoms: N1_2  and  C2_3 
REMARK    2  A    between atoms: N1_2  and  C15_32 
REMARK    3  A    between atoms: C2_3  and  C3_4 
REMARK    4  A    between atoms: C3_4  and  O1_5 
REMARK    5  A    between atoms: C6_10  and  C7_11 
REMARK    6  A    between atoms: C7_11  and  N2_12 
REMARK       I    between atoms: N2_12  and  C8_14 
REMARK    7  A    between atoms: C8_14  and  C9_16 
REMARK    8  A    between atoms: C10_18  and  C11_19 
REMARK    9  A    between atoms: C11_19  and  O4_20 
REMARK   10  A    between atoms: C12_22  and  O5_23 
REMARK   11  A    between atoms: C13_25  and  O6_26 
REMARK   12  A    between atoms: C14_28  and  O7_29 
ROOT
HETATM    1  N2  UNL     1      57.413  16.939  24.157  1.00  0.00    -0.356 N 
ATOM      2  H2  UNL     1      56.464  16.569  24.206  1.00  0.00     0.162 HD
HETATM    3  C8  UNL     1      58.067  16.746  22.915  1.00  0.00     0.249 C 
HETATM    4  O2  UNL     1      59.210  17.161  22.686  1.00  0.00    -0.271 OA
ENDROOT
BRANCH   1   5
HETATM    5  C7  UNL     1      57.869  17.562  25.338  1.00  0.00     0.155 C 
BRANCH   5   6
HETATM    6  C6  UNL     1      58.174  16.690  26.497  1.00  0.00     0.152 C 
HETATM    7  C5  UNL     1      58.943  17.264  27.593  1.00  0.00     0.107 C 
HETATM    8  S1  UNL     1      59.384  15.817  28.677  1.00  0.00    -0.161 SA
HETATM    9  C4  UNL     1      57.889  14.810  28.694  1.00  0.00     0.144 C 
HETATM   10  C3  UNL     1      56.790  15.630  28.080  1.00  0.00     0.197 C 
HETATM   11  O8  UNL     1      56.989  16.030  26.819  1.00  0.00    -0.345 OA
BRANCH  10  12
HETATM   12  C2  UNL     1      55.434  14.941  28.194  1.00  0.00     0.341 C 
BRANCH  12  13
HETATM   13  N1  UNL     1      54.400  15.515  27.405  1.00  0.00     0.094 N 
HETATM   14  C1  UNL     1      53.308  15.987  28.216  1.00  0.00     0.310 C 
BRANCH  13  15
HETATM   15  C15 UNL     1      53.962  14.510  26.446  1.00  0.00     0.222 C 
HETATM   16  C16 UNL     1      54.404  14.785  25.047  1.00  0.00     0.036 C 
HETATM   17  C17 UNL     1      54.017  13.559  24.210  1.00  0.00     0.002 C 
HETATM   18  C18 UNL     1      52.518  13.582  24.060  1.00  0.00     0.000 C 
HETATM   19  C19 UNL     1      51.840  14.424  25.094  1.00  0.00     0.002 C 
HETATM   20  C20 UNL     1      52.466  14.337  26.450  1.00  0.00     0.036 C 
ENDBRANCH  13  15
ENDBRANCH  12  13
ENDBRANCH  10  12
BRANCH  10  21
HETATM   21  O1  UNL     1      56.660  16.770  28.917  1.00  0.00    -0.363 OA
ATOM     22  H1  UNL     1      57.185  17.430  28.481  1.00  0.00     0.213 HD
ENDBRANCH  10  21
ENDBRANCH   5   6
ENDBRANCH   1   5
BRANCH   3  23
HETATM   23  C9  UNL     1      57.303  16.007  21.869  1.00  0.00     0.245 C 
HETATM   24  O3  UNL     1      56.926  14.735  22.278  1.00  0.00    -0.364 OA
HETATM   25  C10 UNL     1      56.582  14.002  21.155  1.00  0.00     0.177 C 
HETATM   26  C12 UNL     1      55.698  14.652  20.171  1.00  0.00     0.180 C 
HETATM   27  C13 UNL     1      55.620  16.132  20.149  1.00  0.00     0.181 C 
HETATM   28  C14 UNL     1      55.989  16.684  21.509  1.00  0.00     0.187 C 
BRANCH  25  29
HETATM   29  C11 UNL     1      57.859  13.431  20.552  1.00  0.00     0.198 C 
BRANCH  29  30
HETATM   30  O4  UNL     1      57.627  12.068  20.323  1.00  0.00    -0.398 OA
ATOM     31  H4  UNL     1      57.267  11.993  19.447  1.00  0.00     0.209 HD
ENDBRANCH  29  30
ENDBRANCH  25  29
BRANCH  26  32
HETATM   32  O5  UNL     1      56.105  14.184  18.891  1.00  0.00    -0.390 OA
ATOM     33  H5  UNL     1      55.489  14.543  18.264  1.00  0.00     0.210 HD
ENDBRANCH  26  32
BRANCH  27  34
HETATM   34  O6  UNL     1      56.545  16.699  19.243  1.00  0.00    -0.390 OA
ATOM     35  H6  UNL     1      57.232  16.088  19.005  1.00  0.00     0.210 HD
ENDBRANCH  27  34
BRANCH  28  36
HETATM   36  O7  UNL     1      56.035  18.052  21.553  1.00  0.00    -0.390 OA
ATOM     37  H7  UNL     1      55.189  18.472  21.449  1.00  0.00     0.210 HD
ENDBRANCH  28  36
ENDBRANCH   3  23
TORSDOF 12
ENDMDL
MODEL 5
REMARK VINA RESULT: -6.081524452      6.345      9.759
REMARK  12 active torsions:
REMARK  status: ('A' for Active; 'I' for Inactive)
REMARK    1  A    between atoms: N1_2  and  C2_3 
REMARK    2  A    between atoms: N1_2  and  C15_32 
REMARK    3  A    between atoms: C2_3  and  C3_4 
REMARK    4  A    between atoms: C3_4  and  O1_5 
REMARK    5  A    between atoms: C6_10  and  C7_11 
REMARK    6  A    between atoms: C7_11  and  N2_12 
REMARK       I    between atoms: N2_12  and  C8_14 
REMARK    7  A    between atoms: C8_14  and  C9_16 
REMARK    8  A    between atoms: C10_18  and  C11_19 
REMARK    9  A    between atoms: C11_19  and  O4_20 
REMARK   10  A    between atoms: C12_22  and  O5_23 
REMARK   11  A    between atoms: C13_25  and  O6_26 
REMARK   12  A    between atoms: C14_28  and  O7_29 
ROOT
HETATM    1  N2  UNL     1      52.404  14.508  25.656  1.00  0.00    -0.356 N 
ATOM      2  H2  UNL     1      53.127  15.177  25.921  1.00  0.00     0.162 HD
HETATM    3  C8  UNL     1      52.610  13.871  24.407  1.00  0.00     0.249 C 
HETATM    4  O2  UNL     1      51.841  13.014  23.956  1.00  0.00    -0.271 OA
ENDROOT
BRANCH   1   5
HETATM    5  C7  UNL     1      51.356  14.364  26.589  1.00  0.00     0.155 C 
BRANCH   5   6
HETATM    6  C6  UNL     1      51.623  14.782  27.985  1.00  0.00     0.152 C 
HETATM    7  C5  UNL     1      53.001  14.739  28.454  1.00  0.00     0.107 C 
HETATM    8  S1  UNL     1      52.891  15.017  30.291  1.00  0.00    -0.161 SA
HETATM    9  C4  UNL     1      51.631  16.294  30.467  1.00  0.00     0.144 C 
HETATM   10  C3  UNL     1      51.355  16.842  29.095  1.00  0.00     0.197 C 
HETATM   11  O8  UNL     1      50.910  15.963  28.190  1.00  0.00    -0.345 OA
BRANCH  10  12
HETATM   12  C2  UNL     1      50.425  18.050  29.141  1.00  0.00     0.341 C 
BRANCH  12  13
HETATM   13  N1  UNL     1      51.032  19.290  28.803  1.00  0.00     0.094 N 
HETATM   14  C1  UNL     1      50.831  20.280  29.828  1.00  0.00     0.310 C 
BRANCH  13  15
HETATM   15  C15 UNL     1      50.484  19.721  27.525  1.00  0.00     0.222 C 
HETATM   16  C16 UNL     1      50.831  21.128  27.169  1.00  0.00     0.036 C 
HETATM   17  C17 UNL     1      50.334  21.360  25.736  1.00  0.00     0.002 C 
HETATM   18  C18 UNL     1      48.831  21.428  25.795  1.00  0.00     0.000 C 
HETATM   19  C19 UNL     1      48.265  20.804  27.031  1.00  0.00     0.002 C 
HETATM   20  C20 UNL     1      48.987  19.568  27.469  1.00  0.00     0.036 C 
ENDBRANCH  13  15
ENDBRANCH  12  13
ENDBRANCH  10  12
BRANCH  10  21
HETATM   21  O1  UNL     1      52.590  17.385  28.651  1.00  0.00    -0.363 OA
ATOM     22  H1  UNL     1      52.839  16.820  27.930  1.00  0.00     0.213 HD
ENDBRANCH  10  21
ENDBRANCH   5   6
ENDBRANCH   1   5
BRANCH   3  23
HETATM   23  C9  UNL     1      53.823  14.281  23.642  1.00  0.00     0.245 C 
HETATM   24  O3  UNL     1      53.657  15.492  22.984  1.00  0.00    -0.364 OA
HETATM   25  C10 UNL     1      54.644  15.601  22.019  1.00  0.00     0.177 C 
HETATM   26  C12 UNL     1      56.022  15.269  22.425  1.00  0.00     0.180 C 
HETATM   27  C13 UNL     1      56.229  14.405  23.610  1.00  0.00     0.181 C 
HETATM   28  C14 UNL     1      55.035  14.508  24.534  1.00  0.00     0.187 C 
BRANCH  25  29
HETATM   29  C11 UNL     1      54.174  14.858  20.775  1.00  0.00     0.198 C 
BRANCH  29  30
HETATM   30  O4  UNL     1      52.946  15.424  20.403  1.00  0.00    -0.398 OA
ATOM     31  H4  UNL     1      52.289  15.062  20.985  1.00  0.00     0.209 HD
ENDBRANCH  29  30
ENDBRANCH  25  29
BRANCH  26  32
HETATM   32  O5  UNL     1      56.643  14.671  21.293  1.00  0.00    -0.390 OA
ATOM     33  H5  UNL     1      57.545  14.969  21.292  1.00  0.00     0.210 HD
ENDBRANCH  26  32
BRANCH  27  34
HETATM   34  O6  UNL     1      56.325  13.038  23.261  1.00  0.00    -0.390 OA
ATOM     35  H6  UNL     1      57.180  12.819  22.910  1.00  0.00     0.210 HD
ENDBRANCH  27  34
BRANCH  28  36
HETATM   36  O7  UNL     1      55.100  13.666  25.612  1.00  0.00    -0.390 OA
ATOM     37  H7  UNL     1      55.055  14.108  26.452  1.00  0.00     0.210 HD
ENDBRANCH  28  36
ENDBRANCH   3  23
TORSDOF 12
ENDMDL
