MODEL 1
REMARK VINA RESULT: -6.174155891      0.000      0.000
REMARK  9 active torsions:
REMARK  status: ('A' for Active; 'I' for Inactive)
REMARK    1  A    between atoms: C2_2  and  C3_3 
REMARK    2  A    between atoms: C3_3  and  C4_4 
REMARK    3  A    between atoms: C3_3  and  N1_12 
REMARK    4  A    between atoms: C4_4  and  O1_5 
REMARK    5  A    between atoms: O1_5  and  C5_6 
REMARK    6  A    between atoms: N1_12  and  C11_15 
REMARK    7  A    between atoms: C11_15  and  C12_16 
REMARK    8  A    between atoms: C12_16  and  N2_17 
REMARK    9  A    between atoms: N2_17  and  C13_19 
ROOT
HETATM    1  C3  UNL     1      23.010  69.172  -4.534  1.00  0.00     0.209 C 
ENDROOT
BRANCH   1   2
HETATM    2  C2  UNL     1      21.822  69.889  -5.128  1.00  0.00     0.030 C 
HETATM    3  C1  UNL     1      21.069  70.696  -4.117  1.00  0.00     0.007 C 
ENDBRANCH   1   2
BRANCH   1   4
HETATM    4  C4  UNL     1      24.087  69.150  -5.627  1.00  0.00     0.208 C 
BRANCH   4   5
HETATM    5  O1  UNL     1      23.771  68.304  -6.560  1.00  0.00    -0.349 OA
BRANCH   5   6
HETATM    6  C5  UNL     1      23.381  67.483  -7.465  1.00  0.00     0.068 A 
HETATM    7  C6  UNL     1      22.260  67.702  -8.275  1.00  0.00     0.037 A 
HETATM    8  C7  UNL     1      21.837  66.833  -9.241  1.00  0.00     0.003 A 
HETATM    9  C8  UNL     1      22.566  65.670  -9.420  1.00  0.00     0.000 A 
HETATM   10  C9  UNL     1      23.673  65.407  -8.651  1.00  0.00     0.003 A 
HETATM   11  C10 UNL     1      24.078  66.280  -7.699  1.00  0.00     0.037 A 
ENDBRANCH   5   6
ENDBRANCH   4   5
ENDBRANCH   1   4
BRANCH   1  12
HETATM   12  N1  UNL     1      22.734  67.869  -4.038  1.00  0.00    -0.067 N 
ATOM     13  H12 UNL     1      21.765  67.616  -4.229  1.00  0.00     0.277 HD
ATOM     14  H11 UNL     1      23.215  67.167  -4.600  1.00  0.00     0.277 HD
BRANCH  12  15
HETATM   15  C11 UNL     1      23.030  67.682  -2.657  1.00  0.00     0.252 C 
BRANCH  15  16
HETATM   16  C12 UNL     1      24.148  66.698  -2.413  1.00  0.00     0.141 C 
BRANCH  16  17
HETATM   17  N2  UNL     1      24.600  66.062  -3.604  1.00  0.00    -0.416 N 
ATOM     18  H2  UNL     1      25.029  66.597  -4.358  1.00  0.00     0.153 HD
BRANCH  17  19
HETATM   19  C13 UNL     1      24.431  64.660  -3.701  1.00  0.00     0.068 C 
HETATM   20  C14 UNL     1      23.458  64.231  -4.774  1.00  0.00     0.031 C 
HETATM   21  C15 UNL     1      24.049  63.981  -2.407  1.00  0.00     0.031 C 
ENDBRANCH  17  19
ENDBRANCH  16  17
ENDBRANCH  15  16
ENDBRANCH  12  15
ENDBRANCH   1  12
TORSDOF 9
ENDMDL
MODEL 2
REMARK VINA RESULT: -6.165422954      0.040      1.126
REMARK  9 active torsions:
REMARK  status: ('A' for Active; 'I' for Inactive)
REMARK    1  A    between atoms: C2_2  and  C3_3 
REMARK    2  A    between atoms: C3_3  and  C4_4 
REMARK    3  A    between atoms: C3_3  and  N1_12 
REMARK    4  A    between atoms: C4_4  and  O1_5 
REMARK    5  A    between atoms: O1_5  and  C5_6 
REMARK    6  A    between atoms: N1_12  and  C11_15 
REMARK    7  A    between atoms: C11_15  and  C12_16 
REMARK    8  A    between atoms: C12_16  and  N2_17 
REMARK    9  A    between atoms: N2_17  and  C13_19 
ROOT
HETATM    1  C3  UNL     1      23.018  69.167  -4.551  1.00  0.00     0.209 C 
ENDROOT
BRANCH   1   2
HETATM    2  C2  UNL     1      21.821  69.880  -5.131  1.00  0.00     0.030 C 
HETATM    3  C1  UNL     1      21.075  70.682  -4.110  1.00  0.00     0.007 C 
ENDBRANCH   1   2
BRANCH   1   4
HETATM    4  C4  UNL     1      24.087  69.160  -5.651  1.00  0.00     0.208 C 
BRANCH   4   5
HETATM    5  O1  UNL     1      23.761  68.332  -6.597  1.00  0.00    -0.349 OA
BRANCH   5   6
HETATM    6  C5  UNL     1      23.379  67.488  -7.484  1.00  0.00     0.068 A 
HETATM    7  C6  UNL     1      24.039  66.279  -7.733  1.00  0.00     0.037 A 
HETATM    8  C7  UNL     1      23.640  65.374  -8.676  1.00  0.00     0.003 A 
HETATM    9  C8  UNL     1      22.517  65.681  -9.425  1.00  0.00     0.000 A 
HETATM   10  C9  UNL     1      21.833  66.855  -9.220  1.00  0.00     0.003 A 
HETATM   11  C10 UNL     1      22.243  67.740  -8.280  1.00  0.00     0.037 A 
ENDBRANCH   5   6
ENDBRANCH   4   5
ENDBRANCH   1   4
BRANCH   1  12
HETATM   12  N1  UNL     1      22.755  67.859  -4.061  1.00  0.00    -0.067 N 
ATOM     13  H12 UNL     1      21.788  67.597  -4.256  1.00  0.00     0.277 HD
ATOM     14  H11 UNL     1      23.243  67.165  -4.626  1.00  0.00     0.277 HD
BRANCH  12  15
HETATM   15  C11 UNL     1      23.050  67.669  -2.681  1.00  0.00     0.252 C 
BRANCH  15  16
HETATM   16  C12 UNL     1      24.158  66.673  -2.439  1.00  0.00     0.141 C 
BRANCH  16  17
HETATM   17  N2  UNL     1      24.602  66.033  -3.630  1.00  0.00    -0.416 N 
ATOM     18  H2  UNL     1      25.044  66.562  -4.380  1.00  0.00     0.153 HD
BRANCH  17  19
HETATM   19  C13 UNL     1      24.406  64.634  -3.733  1.00  0.00     0.068 C 
HETATM   20  C14 UNL     1      23.434  64.229  -4.817  1.00  0.00     0.031 C 
HETATM   21  C15 UNL     1      23.999  63.960  -2.445  1.00  0.00     0.031 C 
ENDBRANCH  17  19
ENDBRANCH  16  17
ENDBRANCH  15  16
ENDBRANCH  12  15
ENDBRANCH   1  12
TORSDOF 9
ENDMDL
MODEL 3
REMARK VINA RESULT: -6.160112771      1.921      5.515
REMARK  9 active torsions:
REMARK  status: ('A' for Active; 'I' for Inactive)
REMARK    1  A    between atoms: C2_2  and  C3_3 
REMARK    2  A    between atoms: C3_3  and  C4_4 
REMARK    3  A    between atoms: C3_3  and  N1_12 
REMARK    4  A    between atoms: C4_4  and  O1_5 
REMARK    5  A    between atoms: O1_5  and  C5_6 
REMARK    6  A    between atoms: N1_12  and  C11_15 
REMARK    7  A    between atoms: C11_15  and  C12_16 
REMARK    8  A    between atoms: C12_16  and  N2_17 
REMARK    9  A    between atoms: N2_17  and  C13_19 
ROOT
HETATM    1  C3  UNL     1      24.180  65.972  -3.404  1.00  0.00     0.209 C 
ENDROOT
BRANCH   1   2
HETATM    2  C2  UNL     1      22.860  65.253  -3.536  1.00  0.00     0.030 C 
HETATM    3  C1  UNL     1      22.749  64.075  -2.619  1.00  0.00     0.007 C 
ENDBRANCH   1   2
BRANCH   1   4
HETATM    4  C4  UNL     1      24.006  66.982  -2.263  1.00  0.00     0.208 C 
BRANCH   4   5
HETATM    5  O1  UNL     1      23.265  67.978  -2.645  1.00  0.00    -0.349 OA
BRANCH   5   6
HETATM    6  C5  UNL     1      22.475  68.932  -2.975  1.00  0.00     0.068 A 
HETATM    7  C6  UNL     1      21.663  69.613  -2.060  1.00  0.00     0.037 A 
HETATM    8  C7  UNL     1      20.818  70.631  -2.402  1.00  0.00     0.003 A 
HETATM    9  C8  UNL     1      20.768  71.002  -3.735  1.00  0.00     0.000 A 
HETATM   10  C9  UNL     1      21.543  70.365  -4.673  1.00  0.00     0.003 A 
HETATM   11  C10 UNL     1      22.376  69.359  -4.315  1.00  0.00     0.037 A 
ENDBRANCH   5   6
ENDBRANCH   4   5
ENDBRANCH   1   4
BRANCH   1  12
HETATM   12  N1  UNL     1      24.641  66.596  -4.595  1.00  0.00    -0.067 N 
ATOM     13  H12 UNL     1      24.586  67.611  -4.507  1.00  0.00     0.277 HD
ATOM     14  H11 UNL     1      25.650  66.481  -4.687  1.00  0.00     0.277 HD
BRANCH  12  15
HETATM   15  C11 UNL     1      23.986  66.166  -5.785  1.00  0.00     0.252 C 
BRANCH  15  16
HETATM   16  C12 UNL     1      24.826  65.238  -6.628  1.00  0.00     0.141 C 
BRANCH  16  17
HETATM   17  N2  UNL     1      24.881  65.625  -7.996  1.00  0.00    -0.416 N 
ATOM     18  H2  UNL     1      25.749  65.566  -8.527  1.00  0.00     0.153 HD
BRANCH  17  19
HETATM   19  C13 UNL     1      23.685  66.095  -8.591  1.00  0.00     0.068 C 
HETATM   20  C14 UNL     1      22.929  65.041  -9.366  1.00  0.00     0.031 C 
HETATM   21  C15 UNL     1      23.857  67.309  -9.473  1.00  0.00     0.031 C 
ENDBRANCH  17  19
ENDBRANCH  16  17
ENDBRANCH  15  16
ENDBRANCH  12  15
ENDBRANCH   1  12
TORSDOF 9
ENDMDL
MODEL 4
REMARK VINA RESULT: -5.982789984      1.664      5.669
REMARK  9 active torsions:
REMARK  status: ('A' for Active; 'I' for Inactive)
REMARK    1  A    between atoms: C2_2  and  C3_3 
REMARK    2  A    between atoms: C3_3  and  C4_4 
REMARK    3  A    between atoms: C3_3  and  N1_12 
REMARK    4  A    between atoms: C4_4  and  O1_5 
REMARK    5  A    between atoms: O1_5  and  C5_6 
REMARK    6  A    between atoms: N1_12  and  C11_15 
REMARK    7  A    between atoms: C11_15  and  C12_16 
REMARK    8  A    between atoms: C12_16  and  N2_17 
REMARK    9  A    between atoms: N2_17  and  C13_19 
ROOT
HETATM    1  C3  UNL     1      24.079  66.634  -7.398  1.00  0.00     0.209 C 
ENDROOT
BRANCH   1   2
HETATM    2  C2  UNL     1      23.977  66.379  -8.883  1.00  0.00     0.030 C 
HETATM    3  C1  UNL     1      23.009  65.288  -9.217  1.00  0.00     0.007 C 
ENDBRANCH   1   2
BRANCH   1   4
HETATM    4  C4  UNL     1      24.197  65.256  -6.734  1.00  0.00     0.208 C 
BRANCH   4   5
HETATM    5  O1  UNL     1      24.127  65.366  -5.442  1.00  0.00    -0.349 OA
BRANCH   5   6
HETATM    6  C5  UNL     1      24.089  65.401  -4.161  1.00  0.00     0.068 A 
HETATM    7  C6  UNL     1      24.079  66.590  -3.421  1.00  0.00     0.037 A 
HETATM    8  C7  UNL     1      24.038  66.637  -2.056  1.00  0.00     0.003 A 
HETATM    9  C8  UNL     1      24.007  65.433  -1.374  1.00  0.00     0.000 A 
HETATM   10  C9  UNL     1      24.016  64.239  -2.052  1.00  0.00     0.003 A 
HETATM   11  C10 UNL     1      24.056  64.212  -3.405  1.00  0.00     0.037 A 
ENDBRANCH   5   6
ENDBRANCH   4   5
ENDBRANCH   1   4
BRANCH   1  12
HETATM   12  N1  UNL     1      23.013  67.396  -6.849  1.00  0.00    -0.067 N 
ATOM     13  H12 UNL     1      22.243  67.458  -7.516  1.00  0.00     0.277 HD
ATOM     14  H11 UNL     1      22.556  66.877  -6.100  1.00  0.00     0.277 HD
BRANCH  12  15
HETATM   15  C11 UNL     1      23.381  68.695  -6.396  1.00  0.00     0.252 C 
BRANCH  15  16
HETATM   16  C12 UNL     1      22.210  69.511  -5.905  1.00  0.00     0.141 C 
BRANCH  16  17
HETATM   17  N2  UNL     1      21.832  69.196  -4.570  1.00  0.00    -0.416 N 
ATOM     18  H2  UNL     1      21.600  68.241  -4.298  1.00  0.00     0.153 HD
BRANCH  17  19
HETATM   19  C13 UNL     1      21.790  70.258  -3.635  1.00  0.00     0.068 C 
HETATM   20  C14 UNL     1      21.728  69.806  -2.194  1.00  0.00     0.031 C 
HETATM   21  C15 UNL     1      20.686  71.262  -3.871  1.00  0.00     0.031 C 
ENDBRANCH  17  19
ENDBRANCH  16  17
ENDBRANCH  15  16
ENDBRANCH  12  15
ENDBRANCH   1  12
TORSDOF 9
ENDMDL
MODEL 5
REMARK VINA RESULT: -5.950132814      1.281      1.960
REMARK  9 active torsions:
REMARK  status: ('A' for Active; 'I' for Inactive)
REMARK    1  A    between atoms: C2_2  and  C3_3 
REMARK    2  A    between atoms: C3_3  and  C4_4 
REMARK    3  A    between atoms: C3_3  and  N1_12 
REMARK    4  A    between atoms: C4_4  and  O1_5 
REMARK    5  A    between atoms: O1_5  and  C5_6 
REMARK    6  A    between atoms: N1_12  and  C11_15 
REMARK    7  A    between atoms: C11_15  and  C12_16 
REMARK    8  A    between atoms: C12_16  and  N2_17 
REMARK    9  A    between atoms: N2_17  and  C13_19 
ROOT
HETATM    1  C3  UNL     1      22.623  69.853  -5.149  1.00  0.00     0.209 C 
ENDROOT
BRANCH   1   2
HETATM    2  C2  UNL     1      22.009  71.085  -4.528  1.00  0.00     0.030 C 
HETATM    3  C1  UNL     1      20.673  70.816  -3.909  1.00  0.00     0.007 C 
ENDBRANCH   1   2
BRANCH   1   4
HETATM    4  C4  UNL     1      22.250  69.891  -6.636  1.00  0.00     0.208 C 
BRANCH   4   5
HETATM    5  O1  UNL     1      22.519  68.754  -7.203  1.00  0.00    -0.349 OA
BRANCH   5   6
HETATM    6  C5  UNL     1      22.770  67.666  -7.833  1.00  0.00     0.068 A 
HETATM    7  C6  UNL     1      23.879  66.855  -7.561  1.00  0.00     0.037 A 
HETATM    8  C7  UNL     1      24.155  65.694  -8.226  1.00  0.00     0.003 A 
HETATM    9  C8  UNL     1      23.281  65.306  -9.228  1.00  0.00     0.000 A 
HETATM   10  C9  UNL     1      22.180  66.067  -9.535  1.00  0.00     0.003 A 
HETATM   11  C10 UNL     1      21.922  67.214  -8.864  1.00  0.00     0.037 A 
ENDBRANCH   5   6
ENDBRANCH   4   5
ENDBRANCH   1   4
BRANCH   1  12
HETATM   12  N1  UNL     1      22.243  68.626  -4.540  1.00  0.00    -0.067 N 
ATOM     13  H12 UNL     1      21.545  68.792  -3.815  1.00  0.00     0.277 HD
ATOM     14  H11 UNL     1      21.692  68.065  -5.190  1.00  0.00     0.277 HD
BRANCH  12  15
HETATM   15  C11 UNL     1      23.324  67.859  -4.020  1.00  0.00     0.252 C 
BRANCH  15  16
HETATM   16  C12 UNL     1      23.170  67.525  -2.557  1.00  0.00     0.141 C 
BRANCH  16  17
HETATM   17  N2  UNL     1      22.222  66.491  -2.318  1.00  0.00    -0.416 N 
ATOM     18  H2  UNL     1      21.229  66.632  -2.505  1.00  0.00     0.153 HD
BRANCH  17  19
HETATM   19  C13 UNL     1      22.708  65.262  -1.811  1.00  0.00     0.068 C 
HETATM   20  C14 UNL     1      24.049  65.367  -1.124  1.00  0.00     0.031 C 
HETATM   21  C15 UNL     1      22.773  64.145  -2.826  1.00  0.00     0.031 C 
ENDBRANCH  17  19
ENDBRANCH  16  17
ENDBRANCH  15  16
ENDBRANCH  12  15
ENDBRANCH   1  12
TORSDOF 9
ENDMDL
