MODEL 1
REMARK VINA RESULT: -6.138747800      0.000      0.000
REMARK  9 active torsions:
REMARK  status: ('A' for Active; 'I' for Inactive)
REMARK    1  A    between atoms: O1_2  and  C2_3 
REMARK    2  A    between atoms: C2_3  and  C4_5 
REMARK    3  A    between atoms: C4_5  and  C5_6 
REMARK    4  A    between atoms: C5_6  and  C6_7 
REMARK    5  A    between atoms: C6_7  and  N1_8 
REMARK    6  A    between atoms: N1_8  and  C7_10 
REMARK    7  A    between atoms: C7_10  and  C9_12 
REMARK    8  A    between atoms: C9_12  and  N2_13 
REMARK    9  A    between atoms: N2_13  and  C10_15 
ROOT
HETATM    1  C7  UNL     1      22.206  70.135  -5.835  1.00  0.00     0.090 C 
HETATM    2  C8  UNL     1      22.403  71.360  -4.923  1.00  0.00     0.033 C 
ENDROOT
BRANCH   1   3
HETATM    3  N1  UNL     1      21.904  69.047  -4.964  1.00  0.00    -0.416 N 
ATOM      4  H1  UNL     1      20.939  68.767  -4.787  1.00  0.00     0.153 HD
BRANCH   3   5
HETATM    5  C6  UNL     1      22.983  68.369  -4.355  1.00  0.00     0.114 C 
BRANCH   5   6
HETATM    6  C5  UNL     1      22.976  66.874  -4.442  1.00  0.00     0.022 C 
BRANCH   6   7
HETATM    7  C4  UNL     1      23.910  66.377  -3.354  1.00  0.00     0.033 C 
BRANCH   7   8
HETATM    8  C2  UNL     1      24.483  65.017  -3.627  1.00  0.00     0.116 C 
HETATM    9  C3  UNL     1      23.576  64.281  -4.567  1.00  0.00     0.039 C 
BRANCH   8  10
HETATM   10  O1  UNL     1      24.485  64.325  -2.401  1.00  0.00    -0.391 OA
HETATM   11  C1  UNL     1      24.099  65.160  -1.357  1.00  0.00     0.202 C 
ENDBRANCH   8  10
ENDBRANCH   7   8
ENDBRANCH   6   7
ENDBRANCH   5   6
ENDBRANCH   3   5
ENDBRANCH   1   3
BRANCH   1  12
HETATM   12  C9  UNL     1      23.537  69.897  -6.494  1.00  0.00     0.144 C 
BRANCH  12  13
HETATM   13  N2  UNL     1      23.464  69.394  -7.831  1.00  0.00    -0.388 N 
ATOM     14  H2  UNL     1      23.630  70.068  -8.579  1.00  0.00     0.159 HD
BRANCH  13  15
HETATM   15  C10 UNL     1      23.190  68.075  -8.230  1.00  0.00     0.028 A 
HETATM   16  C11 UNL     1      22.069  67.781  -9.013  1.00  0.00     0.029 A 
HETATM   17  C12 UNL     1      21.766  66.508  -9.433  1.00  0.00     0.002 A 
HETATM   18  C13 UNL     1      22.591  65.467  -9.076  1.00  0.00     0.000 A 
HETATM   19  C14 UNL     1      23.708  65.706  -8.306  1.00  0.00     0.002 A 
HETATM   20  C15 UNL     1      23.988  67.016  -7.894  1.00  0.00     0.029 A 
ENDBRANCH  13  15
ENDBRANCH  12  13
ENDBRANCH   1  12
TORSDOF 9
ENDMDL
MODEL 2
REMARK VINA RESULT: -6.114192992      1.881      5.206
REMARK  9 active torsions:
REMARK  status: ('A' for Active; 'I' for Inactive)
REMARK    1  A    between atoms: O1_2  and  C2_3 
REMARK    2  A    between atoms: C2_3  and  C4_5 
REMARK    3  A    between atoms: C4_5  and  C5_6 
REMARK    4  A    between atoms: C5_6  and  C6_7 
REMARK    5  A    between atoms: C6_7  and  N1_8 
REMARK    6  A    between atoms: N1_8  and  C7_10 
REMARK    7  A    between atoms: C7_10  and  C9_12 
REMARK    8  A    between atoms: C9_12  and  N2_13 
REMARK    9  A    between atoms: N2_13  and  C10_15 
ROOT
HETATM    1  C7  UNL     1      23.639  69.416  -5.729  1.00  0.00     0.090 C 
HETATM    2  C8  UNL     1      22.221  69.651  -5.175  1.00  0.00     0.033 C 
ENDROOT
BRANCH   1   3
HETATM    3  N1  UNL     1      23.474  69.174  -7.125  1.00  0.00    -0.416 N 
ATOM      4  H1  UNL     1      24.279  69.135  -7.751  1.00  0.00     0.153 HD
BRANCH   3   5
HETATM    5  C6  UNL     1      22.162  68.991  -7.614  1.00  0.00     0.114 C 
BRANCH   5   6
HETATM    6  C5  UNL     1      21.971  67.925  -8.648  1.00  0.00     0.022 C 
BRANCH   6   7
HETATM    7  C4  UNL     1      23.262  67.860  -9.443  1.00  0.00     0.033 C 
BRANCH   7   8
HETATM    8  C2  UNL     1      23.973  66.544  -9.331  1.00  0.00     0.116 C 
HETATM    9  C3  UNL     1      22.971  65.464  -9.058  1.00  0.00     0.039 C 
BRANCH   8  10
HETATM   10  O1  UNL     1      24.822  66.637  -8.211  1.00  0.00    -0.391 OA
HETATM   11  C1  UNL     1      24.776  65.470  -7.453  1.00  0.00     0.202 C 
ENDBRANCH   8  10
ENDBRANCH   7   8
ENDBRANCH   6   7
ENDBRANCH   5   6
ENDBRANCH   3   5
ENDBRANCH   1   3
BRANCH   1  12
HETATM   12  C9  UNL     1      24.139  68.166  -5.058  1.00  0.00     0.144 C 
BRANCH  12  13
HETATM   13  N2  UNL     1      23.206  67.549  -4.166  1.00  0.00    -0.388 N 
ATOM     14  H2  UNL     1      22.288  67.990  -4.093  1.00  0.00     0.159 HD
BRANCH  13  15
HETATM   15  C10 UNL     1      23.412  66.404  -3.378  1.00  0.00     0.028 A 
HETATM   16  C11 UNL     1      23.161  65.128  -3.890  1.00  0.00     0.029 A 
HETATM   17  C12 UNL     1      23.355  63.979  -3.160  1.00  0.00     0.002 A 
HETATM   18  C13 UNL     1      23.818  64.075  -1.868  1.00  0.00     0.000 A 
HETATM   19  C14 UNL     1      24.080  65.310  -1.319  1.00  0.00     0.002 A 
HETATM   20  C15 UNL     1      23.870  66.461  -2.091  1.00  0.00     0.029 A 
ENDBRANCH  13  15
ENDBRANCH  12  13
ENDBRANCH   1  12
TORSDOF 9
ENDMDL
MODEL 3
REMARK VINA RESULT: -6.050717916      2.383      5.496
REMARK  9 active torsions:
REMARK  status: ('A' for Active; 'I' for Inactive)
REMARK    1  A    between atoms: O1_2  and  C2_3 
REMARK    2  A    between atoms: C2_3  and  C4_5 
REMARK    3  A    between atoms: C4_5  and  C5_6 
REMARK    4  A    between atoms: C5_6  and  C6_7 
REMARK    5  A    between atoms: C6_7  and  N1_8 
REMARK    6  A    between atoms: N1_8  and  C7_10 
REMARK    7  A    between atoms: C7_10  and  C9_12 
REMARK    8  A    between atoms: C9_12  and  N2_13 
REMARK    9  A    between atoms: N2_13  and  C10_15 
ROOT
HETATM    1  C7  UNL     1      23.449  66.195  -7.799  1.00  0.00     0.090 C 
HETATM    2  C8  UNL     1      22.956  65.513  -9.088  1.00  0.00     0.033 C 
ENDROOT
BRANCH   1   3
HETATM    3  N1  UNL     1      23.642  67.568  -8.136  1.00  0.00    -0.416 N 
ATOM      4  H1  UNL     1      23.773  67.859  -9.105  1.00  0.00     0.153 HD
BRANCH   3   5
HETATM    5  C6  UNL     1      23.645  68.512  -7.086  1.00  0.00     0.114 C 
BRANCH   5   6
HETATM    6  C5  UNL     1      22.503  68.450  -6.119  1.00  0.00     0.022 C 
BRANCH   6   7
HETATM    7  C4  UNL     1      22.134  69.886  -5.798  1.00  0.00     0.033 C 
BRANCH   7   8
HETATM    8  C2  UNL     1      22.092  70.183  -4.327  1.00  0.00     0.116 C 
HETATM    9  C3  UNL     1      20.762  70.783  -3.984  1.00  0.00     0.039 C 
BRANCH   8  10
HETATM   10  O1  UNL     1      23.079  71.156  -4.082  1.00  0.00    -0.391 OA
HETATM   11  C1  UNL     1      23.238  71.993  -5.183  1.00  0.00     0.202 C 
ENDBRANCH   8  10
ENDBRANCH   7   8
ENDBRANCH   6   7
ENDBRANCH   5   6
ENDBRANCH   3   5
ENDBRANCH   1   3
BRANCH   1  12
HETATM   12  C9  UNL     1      24.778  65.564  -7.484  1.00  0.00     0.144 C 
BRANCH  12  13
HETATM   13  N2  UNL     1      24.829  64.863  -6.237  1.00  0.00    -0.388 N 
ATOM     14  H2  UNL     1      25.345  63.983  -6.233  1.00  0.00     0.159 HD
BRANCH  13  15
HETATM   15  C10 UNL     1      24.248  65.252  -5.018  1.00  0.00     0.028 A 
HETATM   16  C11 UNL     1      23.150  64.562  -4.496  1.00  0.00     0.029 A 
HETATM   17  C12 UNL     1      22.554  64.901  -3.304  1.00  0.00     0.002 A 
HETATM   18  C13 UNL     1      23.050  65.962  -2.582  1.00  0.00     0.000 A 
HETATM   19  C14 UNL     1      24.131  66.672  -3.056  1.00  0.00     0.002 A 
HETATM   20  C15 UNL     1      24.715  66.301  -4.274  1.00  0.00     0.029 A 
ENDBRANCH  13  15
ENDBRANCH  12  13
ENDBRANCH   1  12
TORSDOF 9
ENDMDL
MODEL 4
REMARK VINA RESULT: -6.013106992      2.363      5.312
REMARK  9 active torsions:
REMARK  status: ('A' for Active; 'I' for Inactive)
REMARK    1  A    between atoms: O1_2  and  C2_3 
REMARK    2  A    between atoms: C2_3  and  C4_5 
REMARK    3  A    between atoms: C4_5  and  C5_6 
REMARK    4  A    between atoms: C5_6  and  C6_7 
REMARK    5  A    between atoms: C6_7  and  N1_8 
REMARK    6  A    between atoms: N1_8  and  C7_10 
REMARK    7  A    between atoms: C7_10  and  C9_12 
REMARK    8  A    between atoms: C9_12  and  N2_13 
REMARK    9  A    between atoms: N2_13  and  C10_15 
ROOT
HETATM    1  C7  UNL     1      23.397  66.245  -7.712  1.00  0.00     0.090 C 
HETATM    2  C8  UNL     1      22.891  65.569  -8.999  1.00  0.00     0.033 C 
ENDROOT
BRANCH   1   3
HETATM    3  N1  UNL     1      23.579  67.621  -8.043  1.00  0.00    -0.416 N 
ATOM      4  H1  UNL     1      23.633  67.926  -9.015  1.00  0.00     0.153 HD
BRANCH   3   5
HETATM    5  C6  UNL     1      23.680  68.548  -6.982  1.00  0.00     0.114 C 
BRANCH   5   6
HETATM    6  C5  UNL     1      22.538  68.592  -6.014  1.00  0.00     0.022 C 
BRANCH   6   7
HETATM    7  C4  UNL     1      22.931  69.581  -4.932  1.00  0.00     0.033 C 
BRANCH   7   8
HETATM    8  C2  UNL     1      21.775  70.060  -4.104  1.00  0.00     0.116 C 
HETATM    9  C3  UNL     1      21.380  71.432  -4.557  1.00  0.00     0.039 C 
BRANCH   8  10
HETATM   10  O1  UNL     1      22.241  70.161  -2.779  1.00  0.00    -0.391 OA
HETATM   11  C1  UNL     1      21.182  70.140  -1.875  1.00  0.00     0.202 C 
ENDBRANCH   8  10
ENDBRANCH   7   8
ENDBRANCH   6   7
ENDBRANCH   5   6
ENDBRANCH   3   5
ENDBRANCH   1   3
BRANCH   1  12
HETATM   12  C9  UNL     1      24.733  65.619  -7.419  1.00  0.00     0.144 C 
BRANCH  12  13
HETATM   13  N2  UNL     1      24.793  64.879  -6.195  1.00  0.00    -0.388 N 
ATOM     14  H2  UNL     1      25.329  64.011  -6.216  1.00  0.00     0.159 HD
BRANCH  13  15
HETATM   15  C10 UNL     1      24.198  65.215  -4.968  1.00  0.00     0.028 A 
HETATM   16  C11 UNL     1      24.696  66.268  -4.194  1.00  0.00     0.029 A 
HETATM   17  C12 UNL     1      24.142  66.637  -2.991  1.00  0.00     0.002 A 
HETATM   18  C13 UNL     1      23.048  65.952  -2.517  1.00  0.00     0.000 A 
HETATM   19  C14 UNL     1      22.520  64.907  -3.243  1.00  0.00     0.002 A 
HETATM   20  C15 UNL     1      23.110  64.556  -4.465  1.00  0.00     0.029 A 
ENDBRANCH  13  15
ENDBRANCH  12  13
ENDBRANCH   1  12
TORSDOF 9
ENDMDL
MODEL 5
REMARK VINA RESULT: -5.994571683      2.349      4.437
REMARK  9 active torsions:
REMARK  status: ('A' for Active; 'I' for Inactive)
REMARK    1  A    between atoms: O1_2  and  C2_3 
REMARK    2  A    between atoms: C2_3  and  C4_5 
REMARK    3  A    between atoms: C4_5  and  C5_6 
REMARK    4  A    between atoms: C5_6  and  C6_7 
REMARK    5  A    between atoms: C6_7  and  N1_8 
REMARK    6  A    between atoms: N1_8  and  C7_10 
REMARK    7  A    between atoms: C7_10  and  C9_12 
REMARK    8  A    between atoms: C9_12  and  N2_13 
REMARK    9  A    between atoms: N2_13  and  C10_15 
ROOT
HETATM    1  C7  UNL     1      24.899  65.057  -4.267  1.00  0.00     0.090 C 
HETATM    2  C8  UNL     1      23.980  64.609  -3.115  1.00  0.00     0.033 C 
ENDROOT
BRANCH   1   3
HETATM    3  N1  UNL     1      24.859  66.482  -4.263  1.00  0.00    -0.416 N 
ATOM      4  H1  UNL     1      25.597  67.031  -4.705  1.00  0.00     0.153 HD
BRANCH   3   5
HETATM    5  C6  UNL     1      23.766  67.111  -3.628  1.00  0.00     0.114 C 
BRANCH   5   6
HETATM    6  C5  UNL     1      22.720  67.706  -4.519  1.00  0.00     0.022 C 
BRANCH   6   7
HETATM    7  C4  UNL     1      23.005  69.196  -4.581  1.00  0.00     0.033 C 
BRANCH   7   8
HETATM    8  C2  UNL     1      21.901  70.045  -4.024  1.00  0.00     0.116 C 
HETATM    9  C3  UNL     1      21.875  71.357  -4.749  1.00  0.00     0.039 C 
BRANCH   8  10
HETATM   10  O1  UNL     1      22.227  70.303  -2.679  1.00  0.00    -0.391 OA
HETATM   11  C1  UNL     1      21.115  70.147  -1.857  1.00  0.00     0.202 C 
ENDBRANCH   8  10
ENDBRANCH   7   8
ENDBRANCH   6   7
ENDBRANCH   5   6
ENDBRANCH   3   5
ENDBRANCH   1   3
BRANCH   1  12
HETATM   12  C9  UNL     1      24.259  64.539  -5.526  1.00  0.00     0.144 C 
BRANCH  12  13
HETATM   13  N2  UNL     1      24.669  65.204  -6.725  1.00  0.00    -0.388 N 
ATOM     14  H2  UNL     1      25.665  65.169  -6.945  1.00  0.00     0.159 HD
BRANCH  13  15
HETATM   15  C10 UNL     1      23.854  65.901  -7.633  1.00  0.00     0.028 A 
HETATM   16  C11 UNL     1      23.951  67.289  -7.764  1.00  0.00     0.029 A 
HETATM   17  C12 UNL     1      23.180  68.011  -8.644  1.00  0.00     0.002 A 
HETATM   18  C13 UNL     1      22.270  67.353  -9.438  1.00  0.00     0.000 A 
HETATM   19  C14 UNL     1      22.137  65.985  -9.345  1.00  0.00     0.002 A 
HETATM   20  C15 UNL     1      22.938  65.279  -8.437  1.00  0.00     0.029 A 
ENDBRANCH  13  15
ENDBRANCH  12  13
ENDBRANCH   1  12
TORSDOF 9
ENDMDL
