MODEL 1
REMARK VINA RESULT: -6.012880876      0.000      0.000
REMARK  10 active torsions:
REMARK  status: ('A' for Active; 'I' for Inactive)
REMARK    1  A    between atoms: O1_2  and  C2_3 
REMARK    2  A    between atoms: C2_3  and  C3_4 
REMARK    3  A    between atoms: C2_3  and  C5_10 
REMARK    4  A    between atoms: C3_4  and  C4_5 
REMARK    5  A    between atoms: C4_5  and  N1_6 
REMARK    6  A    between atoms: C5_10  and  C6_11 
REMARK    7  A    between atoms: C6_11  and  C7_12 
REMARK    8  A    between atoms: C6_11  and  C9_15 
REMARK    9  A    between atoms: C7_12  and  C8_13 
REMARK   10  A    between atoms: C9_15  and  C10_16 
ROOT
HETATM    1  C5  UNL     1      22.271  69.596  -5.393  1.00  0.00     0.036 C 
ENDROOT
BRANCH   1   2
HETATM    2  C2  UNL     1      22.362  71.051  -5.185  1.00  0.00     0.122 C 
BRANCH   2   3
HETATM    3  O1  UNL     1      23.499  71.418  -4.468  1.00  0.00    -0.391 OA
HETATM    4  C1  UNL     1      24.171  72.473  -5.108  1.00  0.00     0.202 C 
ENDBRANCH   2   3
BRANCH   2   5
HETATM    5  C3  UNL     1      21.137  71.452  -4.308  1.00  0.00     0.059 C 
BRANCH   5   6
HETATM    6  C4  UNL     1      21.019  70.643  -3.057  1.00  0.00     0.232 C 
BRANCH   6   7
HETATM    7  N1  UNL     1      19.555  70.582  -2.790  1.00  0.00    -0.079 N 
ATOM      8  H13 UNL     1      18.977  70.615  -3.630  1.00  0.00     0.274 HD
ATOM      9  H12 UNL     1      19.229  69.673  -2.463  1.00  0.00     0.274 HD
ATOM     10  H11 UNL     1      19.384  71.347  -2.136  1.00  0.00     0.274 HD
ENDBRANCH   6   7
ENDBRANCH   5   6
ENDBRANCH   2   5
ENDBRANCH   1   2
BRANCH   1  11
HETATM   11  C6  UNL     1      23.485  68.763  -5.450  1.00  0.00    -0.011 C 
BRANCH  11  12
HETATM   12  C7  UNL     1      23.481  67.454  -4.726  1.00  0.00     0.015 C 
BRANCH  12  13
HETATM   13  C8  UNL     1      23.245  67.632  -3.221  1.00  0.00     0.086 C 
HETATM   14  S1  UNL     1      23.938  66.156  -2.415  1.00  0.00    -0.098 SA
ENDBRANCH  12  13
ENDBRANCH  11  12
BRANCH  11  15
HETATM   15  C9  UNL     1      23.819  68.440  -6.913  1.00  0.00     0.009 C 
BRANCH  15  16
HETATM   16  C10 UNL     1      23.082  67.255  -7.440  1.00  0.00    -0.014 C 
HETATM   17  C11 UNL     1      22.141  67.609  -8.573  1.00  0.00     0.005 C 
HETATM   18  C12 UNL     1      22.008  66.299  -9.302  1.00  0.00     0.000 C 
HETATM   19  C13 UNL     1      23.289  65.537  -9.072  1.00  0.00     0.000 C 
HETATM   20  C14 UNL     1      24.127  66.435  -8.220  1.00  0.00     0.005 C 
ENDBRANCH  15  16
ENDBRANCH  11  15
ENDBRANCH   1  11
TORSDOF 10
ENDMDL
MODEL 2
REMARK VINA RESULT: -5.975314104      1.161      1.323
REMARK  10 active torsions:
REMARK  status: ('A' for Active; 'I' for Inactive)
REMARK    1  A    between atoms: O1_2  and  C2_3 
REMARK    2  A    between atoms: C2_3  and  C3_4 
REMARK    3  A    between atoms: C2_3  and  C5_10 
REMARK    4  A    between atoms: C3_4  and  C4_5 
REMARK    5  A    between atoms: C4_5  and  N1_6 
REMARK    6  A    between atoms: C5_10  and  C6_11 
REMARK    7  A    between atoms: C6_11  and  C7_12 
REMARK    8  A    between atoms: C6_11  and  C9_15 
REMARK    9  A    between atoms: C7_12  and  C8_13 
REMARK   10  A    between atoms: C9_15  and  C10_16 
ROOT
HETATM    1  C5  UNL     1      22.121  69.056  -5.071  1.00  0.00     0.036 C 
ENDROOT
BRANCH   1   2
HETATM    2  C2  UNL     1      22.048  70.182  -4.125  1.00  0.00     0.122 C 
BRANCH   2   3
HETATM    3  O1  UNL     1      23.156  71.023  -4.208  1.00  0.00    -0.391 OA
HETATM    4  C1  UNL     1      22.965  72.001  -5.197  1.00  0.00     0.202 C 
ENDBRANCH   2   3
BRANCH   2   5
HETATM    5  C3  UNL     1      22.068  69.562  -2.695  1.00  0.00     0.059 C 
BRANCH   5   6
HETATM    6  C4  UNL     1      21.079  70.190  -1.767  1.00  0.00     0.232 C 
BRANCH   6   7
HETATM    7  N1  UNL     1      20.351  71.176  -2.613  1.00  0.00    -0.079 N 
ATOM      8  H13 UNL     1      20.947  71.896  -3.020  1.00  0.00     0.274 HD
ATOM      9  H12 UNL     1      20.011  70.797  -3.497  1.00  0.00     0.274 HD
ATOM     10  H11 UNL     1      19.616  71.539  -2.005  1.00  0.00     0.274 HD
ENDBRANCH   6   7
ENDBRANCH   5   6
ENDBRANCH   2   5
ENDBRANCH   1   2
BRANCH   1  11
HETATM   11  C6  UNL     1      23.334  68.225  -5.167  1.00  0.00    -0.011 C 
BRANCH  11  12
HETATM   12  C7  UNL     1      23.278  66.826  -4.642  1.00  0.00     0.015 C 
BRANCH  12  13
HETATM   13  C8  UNL     1      24.660  66.316  -4.217  1.00  0.00     0.086 C 
HETATM   14  S1  UNL     1      24.846  64.662  -4.951  1.00  0.00    -0.098 SA
ENDBRANCH  12  13
ENDBRANCH  11  12
BRANCH  11  15
HETATM   15  C9  UNL     1      23.765  68.113  -6.636  1.00  0.00     0.009 C 
BRANCH  15  16
HETATM   16  C10 UNL     1      23.025  67.060  -7.391  1.00  0.00    -0.014 C 
HETATM   17  C11 UNL     1      22.139  67.635  -8.476  1.00  0.00     0.005 C 
HETATM   18  C12 UNL     1      22.008  66.478  -9.430  1.00  0.00     0.000 C 
HETATM   19  C13 UNL     1      23.262  65.653  -9.293  1.00  0.00     0.000 C 
HETATM   20  C14 UNL     1      24.083  66.362  -8.266  1.00  0.00     0.005 C 
ENDBRANCH  15  16
ENDBRANCH  11  15
ENDBRANCH   1  11
TORSDOF 10
ENDMDL
MODEL 3
REMARK VINA RESULT: -5.864250996      2.501      4.238
REMARK  10 active torsions:
REMARK  status: ('A' for Active; 'I' for Inactive)
REMARK    1  A    between atoms: O1_2  and  C2_3 
REMARK    2  A    between atoms: C2_3  and  C3_4 
REMARK    3  A    between atoms: C2_3  and  C5_10 
REMARK    4  A    between atoms: C3_4  and  C4_5 
REMARK    5  A    between atoms: C4_5  and  N1_6 
REMARK    6  A    between atoms: C5_10  and  C6_11 
REMARK    7  A    between atoms: C6_11  and  C7_12 
REMARK    8  A    between atoms: C6_11  and  C9_15 
REMARK    9  A    between atoms: C7_12  and  C8_13 
REMARK   10  A    between atoms: C9_15  and  C10_16 
ROOT
HETATM    1  C5  UNL     1      23.150  69.168  -4.754  1.00  0.00     0.036 C 
ENDROOT
BRANCH   1   2
HETATM    2  C2  UNL     1      22.187  70.068  -4.098  1.00  0.00     0.122 C 
BRANCH   2   3
HETATM    3  O1  UNL     1      22.663  71.372  -3.988  1.00  0.00    -0.391 OA
HETATM    4  C1  UNL     1      23.099  71.850  -5.234  1.00  0.00     0.202 C 
ENDBRANCH   2   3
BRANCH   2   5
HETATM    5  C3  UNL     1      22.004  69.538  -2.643  1.00  0.00     0.059 C 
BRANCH   5   6
HETATM    6  C4  UNL     1      20.953  70.274  -1.877  1.00  0.00     0.232 C 
BRANCH   6   7
HETATM    7  N1  UNL     1      19.908  70.591  -2.889  1.00  0.00    -0.079 N 
ATOM      8  H13 UNL     1      20.024  71.500  -3.336  1.00  0.00     0.274 HD
ATOM      9  H12 UNL     1      19.973  70.036  -3.743  1.00  0.00     0.274 HD
ATOM     10  H11 UNL     1      19.026  70.483  -2.388  1.00  0.00     0.274 HD
ENDBRANCH   6   7
ENDBRANCH   5   6
ENDBRANCH   2   5
ENDBRANCH   1   2
BRANCH   1  11
HETATM   11  C6  UNL     1      22.712  67.886  -5.336  1.00  0.00    -0.011 C 
BRANCH  11  12
HETATM   12  C7  UNL     1      22.747  67.734  -6.823  1.00  0.00     0.015 C 
BRANCH  12  13
HETATM   13  C8  UNL     1      22.211  68.979  -7.540  1.00  0.00     0.086 C 
HETATM   14  S1  UNL     1      21.490  68.399  -9.106  1.00  0.00    -0.098 SA
ENDBRANCH  12  13
ENDBRANCH  11  12
BRANCH  11  15
HETATM   15  C9  UNL     1      23.570  66.746  -4.770  1.00  0.00     0.009 C 
BRANCH  15  16
HETATM   16  C10 UNL     1      23.002  66.135  -3.534  1.00  0.00    -0.014 C 
HETATM   17  C11 UNL     1      22.940  64.623  -3.605  1.00  0.00     0.005 C 
HETATM   18  C12 UNL     1      22.942  64.233  -2.151  1.00  0.00     0.000 C 
HETATM   19  C13 UNL     1      23.683  65.316  -1.408  1.00  0.00     0.000 C 
HETATM   20  C14 UNL     1      24.092  66.298  -2.457  1.00  0.00     0.005 C 
ENDBRANCH  15  16
ENDBRANCH  11  15
ENDBRANCH   1  11
TORSDOF 10
ENDMDL
MODEL 4
REMARK VINA RESULT: -5.803248990      2.968      4.392
REMARK  10 active torsions:
REMARK  status: ('A' for Active; 'I' for Inactive)
REMARK    1  A    between atoms: O1_2  and  C2_3 
REMARK    2  A    between atoms: C2_3  and  C3_4 
REMARK    3  A    between atoms: C2_3  and  C5_10 
REMARK    4  A    between atoms: C3_4  and  C4_5 
REMARK    5  A    between atoms: C4_5  and  N1_6 
REMARK    6  A    between atoms: C5_10  and  C6_11 
REMARK    7  A    between atoms: C6_11  and  C7_12 
REMARK    8  A    between atoms: C6_11  and  C9_15 
REMARK    9  A    between atoms: C7_12  and  C8_13 
REMARK   10  A    between atoms: C9_15  and  C10_16 
ROOT
HETATM    1  C5  UNL     1      24.556  67.171  -4.483  1.00  0.00     0.036 C 
ENDROOT
BRANCH   1   2
HETATM    2  C2  UNL     1      24.355  65.946  -3.691  1.00  0.00     0.122 C 
BRANCH   2   3
HETATM    3  O1  UNL     1      23.254  65.208  -4.119  1.00  0.00    -0.391 OA
HETATM    4  C1  UNL     1      23.663  64.096  -4.873  1.00  0.00     0.202 C 
ENDBRANCH   2   3
BRANCH   2   5
HETATM    5  C3  UNL     1      24.042  66.404  -2.234  1.00  0.00     0.059 C 
BRANCH   5   6
HETATM    6  C4  UNL     1      24.049  65.280  -1.250  1.00  0.00     0.232 C 
BRANCH   6   7
HETATM    7  N1  UNL     1      22.620  64.879  -1.134  1.00  0.00    -0.079 N 
ATOM      8  H13 UNL     1      22.059  65.095  -1.958  1.00  0.00     0.274 HD
ATOM      9  H12 UNL     1      22.468  63.870  -1.155  1.00  0.00     0.274 HD
ATOM     10  H11 UNL     1      22.296  65.331  -0.279  1.00  0.00     0.274 HD
ENDBRANCH   6   7
ENDBRANCH   5   6
ENDBRANCH   2   5
ENDBRANCH   1   2
BRANCH   1  11
HETATM   11  C6  UNL     1      23.414  67.871  -5.097  1.00  0.00    -0.011 C 
BRANCH  11  12
HETATM   12  C7  UNL     1      23.090  69.252  -4.624  1.00  0.00     0.015 C 
BRANCH  12  13
HETATM   13  C8  UNL     1      21.866  69.833  -5.342  1.00  0.00     0.086 C 
HETATM   14  S1  UNL     1      21.043  70.931  -4.147  1.00  0.00    -0.098 SA
ENDBRANCH  12  13
ENDBRANCH  11  12
BRANCH  11  15
HETATM   15  C9  UNL     1      23.634  67.980  -6.613  1.00  0.00     0.009 C 
BRANCH  15  16
HETATM   16  C10 UNL     1      22.926  66.923  -7.391  1.00  0.00    -0.014 C 
HETATM   17  C11 UNL     1      22.173  67.480  -8.581  1.00  0.00     0.005 C 
HETATM   18  C12 UNL     1      22.086  66.286  -9.494  1.00  0.00     0.000 C 
HETATM   19  C13 UNL     1      23.285  65.421  -9.201  1.00  0.00     0.000 C 
HETATM   20  C14 UNL     1      24.033  66.146  -8.129  1.00  0.00     0.005 C 
ENDBRANCH  15  16
ENDBRANCH  11  15
ENDBRANCH   1  11
TORSDOF 10
ENDMDL
MODEL 5
REMARK VINA RESULT: -5.748997802      2.987      4.480
REMARK  10 active torsions:
REMARK  status: ('A' for Active; 'I' for Inactive)
REMARK    1  A    between atoms: O1_2  and  C2_3 
REMARK    2  A    between atoms: C2_3  and  C3_4 
REMARK    3  A    between atoms: C2_3  and  C5_10 
REMARK    4  A    between atoms: C3_4  and  C4_5 
REMARK    5  A    between atoms: C4_5  and  N1_6 
REMARK    6  A    between atoms: C5_10  and  C6_11 
REMARK    7  A    between atoms: C6_11  and  C7_12 
REMARK    8  A    between atoms: C6_11  and  C9_15 
REMARK    9  A    between atoms: C7_12  and  C8_13 
REMARK   10  A    between atoms: C9_15  and  C10_16 
ROOT
HETATM    1  C5  UNL     1      24.461  67.119  -4.630  1.00  0.00     0.036 C 
ENDROOT
BRANCH   1   2
HETATM    2  C2  UNL     1      24.428  65.925  -3.770  1.00  0.00     0.122 C 
BRANCH   2   3
HETATM    3  O1  UNL     1      23.456  65.008  -4.165  1.00  0.00    -0.391 OA
HETATM    4  C1  UNL     1      24.050  63.836  -4.662  1.00  0.00     0.202 C 
ENDBRANCH   2   3
BRANCH   2   5
HETATM    5  C3  UNL     1      24.025  66.413  -2.346  1.00  0.00     0.059 C 
BRANCH   5   6
HETATM    6  C4  UNL     1      24.054  65.326  -1.321  1.00  0.00     0.232 C 
BRANCH   6   7
HETATM    7  N1  UNL     1      22.627  64.935  -1.153  1.00  0.00    -0.079 N 
ATOM      8  H13 UNL     1      22.353  64.767  -0.185  1.00  0.00     0.274 HD
ATOM      9  H12 UNL     1      21.964  65.691  -1.328  1.00  0.00     0.274 HD
ATOM     10  H11 UNL     1      22.510  64.128  -1.765  1.00  0.00     0.274 HD
ENDBRANCH   6   7
ENDBRANCH   5   6
ENDBRANCH   2   5
ENDBRANCH   1   2
BRANCH   1  11
HETATM   11  C6  UNL     1      23.351  67.417  -5.553  1.00  0.00    -0.011 C 
BRANCH  11  12
HETATM   12  C7  UNL     1      22.256  68.317  -5.076  1.00  0.00     0.015 C 
BRANCH  12  13
HETATM   13  C8  UNL     1      22.695  69.787  -5.040  1.00  0.00     0.086 C 
HETATM   14  S1  UNL     1      21.386  70.692  -4.160  1.00  0.00    -0.098 SA
ENDBRANCH  12  13
ENDBRANCH  11  12
BRANCH  11  15
HETATM   15  C9  UNL     1      23.905  68.061  -6.832  1.00  0.00     0.009 C 
BRANCH  15  16
HETATM   16  C10 UNL     1      23.645  67.254  -8.060  1.00  0.00    -0.014 C 
HETATM   17  C11 UNL     1      23.487  65.777  -7.764  1.00  0.00     0.005 C 
HETATM   18  C12 UNL     1      22.671  65.301  -8.936  1.00  0.00     0.000 C 
HETATM   19  C13 UNL     1      21.840  66.472  -9.397  1.00  0.00     0.000 C 
HETATM   20  C14 UNL     1      22.199  67.590  -8.473  1.00  0.00     0.005 C 
ENDBRANCH  15  16
ENDBRANCH  11  15
ENDBRANCH   1  11
TORSDOF 10
ENDMDL
