MODEL 1
REMARK VINA RESULT: -6.661125332      0.000      0.000
REMARK  11 active torsions:
REMARK  status: ('A' for Active; 'I' for Inactive)
REMARK    1  A    between atoms: C2_2  and  C3_3 
REMARK    2  A    between atoms: C3_3  and  C4_4 
REMARK    3  A    between atoms: C4_4  and  C5_5 
REMARK    4  A    between atoms: C6_6  and  C7_7 
REMARK    5  A    between atoms: C7_7  and  O1_8 
REMARK    6  A    between atoms: O1_8  and  C8_9 
REMARK    7  A    between atoms: C8_9  and  C9_10 
REMARK    8  A    between atoms: C9_10  and  C10_11 
REMARK    9  A    between atoms: C10_11  and  C11_12 
REMARK   10  A    between atoms: C11_12  and  O2_13 
REMARK   11  A    between atoms: N1_15  and  O3_17 
ROOT
HETATM    1  C9  UNL     1      22.677  69.605  -6.003  1.00  0.00     0.009 A 
HETATM    2  C12 UNL     1      22.469  68.315  -5.364  1.00  0.00    -0.018 A 
HETATM    3  C13 UNL     1      23.728  68.073  -5.092  1.00  0.00    -0.029 A 
HETATM    4  C14 UNL     1      24.124  69.347  -5.703  1.00  0.00     0.043 A 
ENDROOT
BRANCH   1   5
HETATM    5  C8  UNL     1      22.487  69.644  -7.531  1.00  0.00     0.182 C 
BRANCH   5   6
HETATM    6  O1  UNL     1      21.446  68.857  -7.924  1.00  0.00    -0.386 OA
BRANCH   6   7
HETATM    7  C7  UNL     1      21.717  68.335  -9.201  1.00  0.00     0.194 C 
BRANCH   7   8
HETATM    8  C6  UNL     1      21.721  66.882  -9.282  1.00  0.00    -0.005 C 
HETATM    9  C5  UNL     1      22.727  66.093  -9.065  1.00  0.00    -0.028 C 
BRANCH   9  10
HETATM   10  C4  UNL     1      24.068  66.530  -8.689  1.00  0.00     0.030 C 
BRANCH  10  11
HETATM   11  C3  UNL     1      24.691  65.630  -7.630  1.00  0.00     0.030 C 
BRANCH  11  12
HETATM   12  C2  UNL     1      23.644  64.937  -6.832  1.00  0.00    -0.037 C 
HETATM   13  C1  UNL     1      23.904  64.383  -5.657  1.00  0.00     0.007 C 
ENDBRANCH  11  12
ENDBRANCH  10  11
ENDBRANCH   9  10
ENDBRANCH   7   8
ENDBRANCH   6   7
ENDBRANCH   5   6
ENDBRANCH   1   5
BRANCH   1  14
HETATM   14  C10 UNL     1      22.063  70.799  -5.378  1.00  0.00     0.102 C 
BRANCH  14  15
HETATM   15  C11 UNL     1      21.409  70.651  -4.086  1.00  0.00     0.136 C 
HETATM   16  N1  UNL     1      20.121  70.628  -3.934  1.00  0.00    -0.251 N 
ATOM     17  H1  UNL     1      19.499  70.717  -4.738  1.00  0.00     0.196 HD
BRANCH  15  18
HETATM   18  O2  UNL     1      22.169  70.523  -2.935  1.00  0.00    -0.348 OA
ATOM     19  H2  UNL     1      22.790  69.808  -2.851  1.00  0.00     0.219 HD
ENDBRANCH  15  18
BRANCH  16  20
HETATM   20  O3  UNL     1      19.617  70.484  -2.675  1.00  0.00    -0.288 OA
ATOM     21  H3  UNL     1      19.590  69.614  -2.295  1.00  0.00     0.244 HD
ENDBRANCH  16  20
ENDBRANCH  14  15
ENDBRANCH   1  14
TORSDOF 11
ENDMDL
MODEL 2
REMARK VINA RESULT: -6.372656737      2.943      4.437
REMARK  11 active torsions:
REMARK  status: ('A' for Active; 'I' for Inactive)
REMARK    1  A    between atoms: C2_2  and  C3_3 
REMARK    2  A    between atoms: C3_3  and  C4_4 
REMARK    3  A    between atoms: C4_4  and  C5_5 
REMARK    4  A    between atoms: C6_6  and  C7_7 
REMARK    5  A    between atoms: C7_7  and  O1_8 
REMARK    6  A    between atoms: O1_8  and  C8_9 
REMARK    7  A    between atoms: C8_9  and  C9_10 
REMARK    8  A    between atoms: C9_10  and  C10_11 
REMARK    9  A    between atoms: C10_11  and  C11_12 
REMARK   10  A    between atoms: C11_12  and  O2_13 
REMARK   11  A    between atoms: N1_15  and  O3_17 
ROOT
HETATM    1  C9  UNL     1      23.956  66.036  -4.495  1.00  0.00     0.009 A 
HETATM    2  C12 UNL     1      23.591  65.400  -5.751  1.00  0.00    -0.018 A 
HETATM    3  C13 UNL     1      24.606  64.572  -5.805  1.00  0.00    -0.029 A 
HETATM    4  C14 UNL     1      25.125  65.098  -4.537  1.00  0.00     0.043 A 
ENDROOT
BRANCH   1   5
HETATM    5  C8  UNL     1      24.477  67.482  -4.592  1.00  0.00     0.182 C 
BRANCH   5   6
HETATM    6  O1  UNL     1      23.523  68.382  -4.222  1.00  0.00    -0.386 OA
BRANCH   6   7
HETATM    7  C7  UNL     1      23.290  69.273  -5.284  1.00  0.00     0.194 C 
BRANCH   7   8
HETATM    8  C6  UNL     1      22.210  68.890  -6.181  1.00  0.00    -0.005 C 
HETATM    9  C5  UNL     1      22.323  68.508  -7.415  1.00  0.00    -0.028 C 
BRANCH   9  10
HETATM   10  C4  UNL     1      23.582  68.388  -8.143  1.00  0.00     0.030 C 
BRANCH  10  11
HETATM   11  C3  UNL     1      23.464  67.464  -9.349  1.00  0.00     0.030 C 
BRANCH  11  12
HETATM   12  C2  UNL     1      22.473  66.383  -9.100  1.00  0.00    -0.037 C 
HETATM   13  C1  UNL     1      22.749  65.107  -9.329  1.00  0.00     0.007 C 
ENDBRANCH  11  12
ENDBRANCH  10  11
ENDBRANCH   9  10
ENDBRANCH   7   8
ENDBRANCH   6   7
ENDBRANCH   5   6
ENDBRANCH   1   5
BRANCH   1  14
HETATM   14  C10 UNL     1      23.026  65.900  -3.350  1.00  0.00     0.102 C 
BRANCH  14  15
HETATM   15  C11 UNL     1      23.550  66.070  -2.003  1.00  0.00     0.136 C 
HETATM   16  N1  UNL     1      23.822  65.080  -1.209  1.00  0.00    -0.251 N 
ATOM     17  H1  UNL     1      23.673  64.116  -1.507  1.00  0.00     0.196 HD
BRANCH  15  18
HETATM   18  O2  UNL     1      23.786  67.342  -1.506  1.00  0.00    -0.348 OA
ATOM     19  H2  UNL     1      24.323  67.458  -0.730  1.00  0.00     0.219 HD
ENDBRANCH  15  18
BRANCH  16  20
HETATM   20  O3  UNL     1      24.310  65.358   0.034  1.00  0.00    -0.288 OA
ATOM     21  H3  UNL     1      23.992  64.849   0.770  1.00  0.00     0.244 HD
ENDBRANCH  16  20
ENDBRANCH  14  15
ENDBRANCH   1  14
TORSDOF 11
ENDMDL
MODEL 3
REMARK VINA RESULT: -6.357257526      2.979      4.384
REMARK  11 active torsions:
REMARK  status: ('A' for Active; 'I' for Inactive)
REMARK    1  A    between atoms: C2_2  and  C3_3 
REMARK    2  A    between atoms: C3_3  and  C4_4 
REMARK    3  A    between atoms: C4_4  and  C5_5 
REMARK    4  A    between atoms: C6_6  and  C7_7 
REMARK    5  A    between atoms: C7_7  and  O1_8 
REMARK    6  A    between atoms: O1_8  and  C8_9 
REMARK    7  A    between atoms: C8_9  and  C9_10 
REMARK    8  A    between atoms: C9_10  and  C10_11 
REMARK    9  A    between atoms: C10_11  and  C11_12 
REMARK   10  A    between atoms: C11_12  and  O2_13 
REMARK   11  A    between atoms: N1_15  and  O3_17 
ROOT
HETATM    1  C9  UNL     1      23.414  65.646  -4.512  1.00  0.00     0.009 A 
HETATM    2  C12 UNL     1      23.542  64.470  -5.358  1.00  0.00    -0.018 A 
HETATM    3  C13 UNL     1      24.850  64.396  -5.321  1.00  0.00    -0.029 A 
HETATM    4  C14 UNL     1      24.911  65.581  -4.457  1.00  0.00     0.043 A 
ENDROOT
BRANCH   1   5
HETATM    5  C8  UNL     1      23.000  66.950  -5.220  1.00  0.00     0.182 C 
BRANCH   5   6
HETATM    6  O1  UNL     1      24.054  67.803  -5.348  1.00  0.00    -0.386 OA
BRANCH   6   7
HETATM    7  C7  UNL     1      23.916  68.533  -6.542  1.00  0.00     0.194 C 
BRANCH   7   8
HETATM    8  C6  UNL     1      22.554  68.933  -6.863  1.00  0.00    -0.005 C 
HETATM    9  C5  UNL     1      21.918  68.710  -7.971  1.00  0.00    -0.028 C 
BRANCH   9  10
HETATM   10  C4  UNL     1      22.465  67.997  -9.121  1.00  0.00     0.030 C 
BRANCH  10  11
HETATM   11  C3  UNL     1      21.746  66.679  -9.378  1.00  0.00     0.030 C 
BRANCH  11  12
HETATM   12  C2  UNL     1      22.612  65.520  -9.032  1.00  0.00    -0.037 C 
HETATM   13  C1  UNL     1      23.909  65.655  -8.794  1.00  0.00     0.007 C 
ENDBRANCH  11  12
ENDBRANCH  10  11
ENDBRANCH   9  10
ENDBRANCH   7   8
ENDBRANCH   6   7
ENDBRANCH   5   6
ENDBRANCH   1   5
BRANCH   1  14
HETATM   14  C10 UNL     1      22.688  65.505  -3.228  1.00  0.00     0.102 C 
BRANCH  14  15
HETATM   15  C11 UNL     1      23.372  65.872  -1.997  1.00  0.00     0.136 C 
HETATM   16  N1  UNL     1      23.697  65.018  -1.076  1.00  0.00    -0.251 N 
ATOM     17  H1  UNL     1      23.478  64.027  -1.182  1.00  0.00     0.196 HD
BRANCH  15  18
HETATM   18  O2  UNL     1      23.712  67.194  -1.760  1.00  0.00    -0.348 OA
ATOM     19  H2  UNL     1      24.368  67.407  -1.106  1.00  0.00     0.219 HD
ENDBRANCH  15  18
BRANCH  16  20
HETATM   20  O3  UNL     1      24.337  65.475   0.039  1.00  0.00    -0.288 OA
ATOM     21  H3  UNL     1      23.813  65.805   0.759  1.00  0.00     0.244 HD
ENDBRANCH  16  20
ENDBRANCH  14  15
ENDBRANCH   1  14
TORSDOF 11
ENDMDL
MODEL 4
REMARK VINA RESULT: -6.263855940      1.482      2.923
REMARK  11 active torsions:
REMARK  status: ('A' for Active; 'I' for Inactive)
REMARK    1  A    between atoms: C2_2  and  C3_3 
REMARK    2  A    between atoms: C3_3  and  C4_4 
REMARK    3  A    between atoms: C4_4  and  C5_5 
REMARK    4  A    between atoms: C6_6  and  C7_7 
REMARK    5  A    between atoms: C7_7  and  O1_8 
REMARK    6  A    between atoms: O1_8  and  C8_9 
REMARK    7  A    between atoms: C8_9  and  C9_10 
REMARK    8  A    between atoms: C9_10  and  C10_11 
REMARK    9  A    between atoms: C10_11  and  C11_12 
REMARK   10  A    between atoms: C11_12  and  O2_13 
REMARK   11  A    between atoms: N1_15  and  O3_17 
ROOT
HETATM    1  C9  UNL     1      22.709  69.303  -5.875  1.00  0.00     0.009 A 
HETATM    2  C12 UNL     1      23.987  69.424  -6.558  1.00  0.00    -0.018 A 
HETATM    3  C13 UNL     1      23.601  68.908  -7.699  1.00  0.00    -0.029 A 
HETATM    4  C14 UNL     1      22.247  68.707  -7.172  1.00  0.00     0.043 A 
ENDROOT
BRANCH   1   5
HETATM    5  C8  UNL     1      22.625  68.225  -4.777  1.00  0.00     0.182 C 
BRANCH   5   6
HETATM    6  O1  UNL     1      23.749  68.212  -4.006  1.00  0.00    -0.386 OA
BRANCH   6   7
HETATM    7  C7  UNL     1      24.311  66.923  -4.030  1.00  0.00     0.194 C 
BRANCH   7   8
HETATM    8  C6  UNL     1      23.418  65.872  -4.492  1.00  0.00    -0.005 C 
HETATM    9  C5  UNL     1      23.647  65.017  -5.441  1.00  0.00    -0.028 C 
BRANCH   9  10
HETATM   10  C4  UNL     1      24.871  64.953  -6.232  1.00  0.00     0.030 C 
BRANCH  10  11
HETATM   11  C3  UNL     1      24.683  65.524  -7.632  1.00  0.00     0.030 C 
BRANCH  11  12
HETATM   12  C2  UNL     1      23.308  65.260  -8.136  1.00  0.00    -0.037 C 
HETATM   13  C1  UNL     1      23.021  65.256  -9.430  1.00  0.00     0.007 C 
ENDBRANCH  11  12
ENDBRANCH  10  11
ENDBRANCH   9  10
ENDBRANCH   7   8
ENDBRANCH   6   7
ENDBRANCH   5   6
ENDBRANCH   1   5
BRANCH   1  14
HETATM   14  C10 UNL     1      22.036  70.545  -5.429  1.00  0.00     0.102 C 
BRANCH  14  15
HETATM   15  C11 UNL     1      21.400  70.561  -4.120  1.00  0.00     0.136 C 
HETATM   16  N1  UNL     1      20.114  70.534  -3.948  1.00  0.00    -0.251 N 
ATOM     17  H1  UNL     1      19.481  70.499  -4.748  1.00  0.00     0.196 HD
BRANCH  15  18
HETATM   18  O2  UNL     1      22.175  70.608  -2.972  1.00  0.00    -0.348 OA
ATOM     19  H2  UNL     1      21.765  70.742  -2.126  1.00  0.00     0.219 HD
ENDBRANCH  15  18
BRANCH  16  20
HETATM   20  O3  UNL     1      19.628  70.553  -2.674  1.00  0.00    -0.288 OA
ATOM     21  H3  UNL     1      18.847  71.063  -2.495  1.00  0.00     0.244 HD
ENDBRANCH  16  20
ENDBRANCH  14  15
ENDBRANCH   1  14
TORSDOF 11
ENDMDL
MODEL 5
REMARK VINA RESULT: -6.080766050      1.211      1.724
REMARK  11 active torsions:
REMARK  status: ('A' for Active; 'I' for Inactive)
REMARK    1  A    between atoms: C2_2  and  C3_3 
REMARK    2  A    between atoms: C3_3  and  C4_4 
REMARK    3  A    between atoms: C4_4  and  C5_5 
REMARK    4  A    between atoms: C6_6  and  C7_7 
REMARK    5  A    between atoms: C7_7  and  O1_8 
REMARK    6  A    between atoms: O1_8  and  C8_9 
REMARK    7  A    between atoms: C8_9  and  C9_10 
REMARK    8  A    between atoms: C9_10  and  C10_11 
REMARK    9  A    between atoms: C10_11  and  C11_12 
REMARK   10  A    between atoms: C11_12  and  O2_13 
REMARK   11  A    between atoms: N1_15  and  O3_17 
ROOT
HETATM    1  C9  UNL     1      22.782  70.317  -6.033  1.00  0.00     0.009 A 
HETATM    2  C12 UNL     1      24.197  70.467  -5.731  1.00  0.00    -0.018 A 
HETATM    3  C13 UNL     1      24.169  71.756  -5.497  1.00  0.00    -0.029 A 
HETATM    4  C14 UNL     1      22.728  71.793  -5.772  1.00  0.00     0.043 A 
ENDROOT
BRANCH   1   5
HETATM    5  C8  UNL     1      22.427  70.062  -7.509  1.00  0.00     0.182 C 
BRANCH   5   6
HETATM    6  O1  UNL     1      21.622  68.971  -7.647  1.00  0.00    -0.386 OA
BRANCH   6   7
HETATM    7  C7  UNL     1      21.530  68.633  -9.008  1.00  0.00     0.194 C 
BRANCH   7   8
HETATM    8  C6  UNL     1      21.445  67.207  -9.283  1.00  0.00    -0.005 C 
HETATM    9  C5  UNL     1      22.429  66.361  -9.320  1.00  0.00    -0.028 C 
BRANCH   9  10
HETATM   10  C4  UNL     1      23.830  66.697  -9.085  1.00  0.00     0.030 C 
BRANCH  10  11
HETATM   11  C3  UNL     1      24.395  65.983  -7.863  1.00  0.00     0.030 C 
BRANCH  11  12
HETATM   12  C2  UNL     1      24.111  66.746  -6.618  1.00  0.00    -0.037 C 
HETATM   13  C1  UNL     1      23.714  66.151  -5.502  1.00  0.00     0.007 C 
ENDBRANCH  11  12
ENDBRANCH  10  11
ENDBRANCH   9  10
ENDBRANCH   7   8
ENDBRANCH   6   7
ENDBRANCH   5   6
ENDBRANCH   1   5
BRANCH   1  14
HETATM   14  C10 UNL     1      21.969  69.449  -5.150  1.00  0.00     0.102 C 
BRANCH  14  15
HETATM   15  C11 UNL     1      21.228  70.063  -4.060  1.00  0.00     0.136 C 
HETATM   16  N1  UNL     1      21.713  70.229  -2.867  1.00  0.00    -0.251 N 
ATOM     17  H1  UNL     1      22.660  69.925  -2.642  1.00  0.00     0.196 HD
BRANCH  15  18
HETATM   18  O2  UNL     1      19.932  70.509  -4.266  1.00  0.00    -0.348 OA
ATOM     19  H2  UNL     1      19.570  71.192  -3.714  1.00  0.00     0.219 HD
ENDBRANCH  15  18
BRANCH  16  20
HETATM   20  O3  UNL     1      20.926  70.818  -1.921  1.00  0.00    -0.288 OA
ATOM     21  H3  UNL     1      20.757  70.346  -1.114  1.00  0.00     0.244 HD
ENDBRANCH  16  20
ENDBRANCH  14  15
ENDBRANCH   1  14
TORSDOF 11
ENDMDL
