MODEL 1
REMARK VINA RESULT: -5.973690595      0.000      0.000
REMARK  8 active torsions:
REMARK  status: ('A' for Active; 'I' for Inactive)
REMARK    1  A    between atoms: S1_2  and  C2_3 
REMARK    2  A    between atoms: C2_3  and  C3_4 
REMARK    3  A    between atoms: C3_4  and  C4_5 
REMARK    4  A    between atoms: C4_5  and  N1_6 
REMARK    5  A    between atoms: N1_6  and  C5_8 
REMARK    6  A    between atoms: C5_8  and  C7_10 
REMARK    7  A    between atoms: N2_11  and  C8_13 
REMARK    8  A    between atoms: C8_13  and  C9_14 
ROOT
HETATM    1  C7  UNL     1      22.538  71.061  -5.962  1.00  0.00     0.080 C 
HETATM    2  N2  UNL     1      22.720  70.347  -7.095  1.00  0.00    -0.400 N 
ATOM      3  H2  UNL     1      22.030  70.475  -7.834  1.00  0.00     0.158 HD
ENDROOT
BRANCH   1   4
HETATM    4  C5  UNL     1      22.169  70.470  -4.630  1.00  0.00     0.114 C 
HETATM    5  C6  UNL     1      20.905  70.922  -4.007  1.00  0.00     0.038 C 
BRANCH   4   6
HETATM    6  N1  UNL     1      22.111  69.040  -4.867  1.00  0.00    -0.394 N 
ATOM      7  H1  UNL     1      21.463  68.667  -5.561  1.00  0.00     0.159 HD
BRANCH   6   8
HETATM    8  C4  UNL     1      22.931  68.177  -4.155  1.00  0.00     0.057 C 
BRANCH   8   9
HETATM    9  C3  UNL     1      23.134  66.764  -4.541  1.00  0.00     0.054 C 
BRANCH   9  10
HETATM   10  C2  UNL     1      24.454  66.229  -3.956  1.00  0.00     0.078 C 
BRANCH  10  11
HETATM   11  S1  UNL     1      24.127  64.749  -2.940  1.00  0.00    -0.173 SA
HETATM   12  C1  UNL     1      24.037  65.290  -1.193  1.00  0.00     0.089 C 
ENDBRANCH  10  11
ENDBRANCH   9  10
ENDBRANCH   8   9
ENDBRANCH   6   8
ENDBRANCH   4   6
ENDBRANCH   1   4
BRANCH   2  13
HETATM   13  C8  UNL     1      23.744  69.464  -7.350  1.00  0.00     0.123 C 
BRANCH  13  14
HETATM   14  C9  UNL     1      23.314  68.319  -8.299  1.00  0.00     0.003 C 
HETATM   15  C10 UNL     1      23.969  67.038  -7.930  1.00  0.00     0.006 C 
HETATM   16  C11 UNL     1      23.677  66.019  -8.982  1.00  0.00     0.000 C 
HETATM   17  C12 UNL     1      22.205  65.869  -9.270  1.00  0.00     0.000 C 
HETATM   18  C13 UNL     1      21.513  67.196  -9.467  1.00  0.00     0.000 C 
HETATM   19  C14 UNL     1      21.837  68.136  -8.324  1.00  0.00     0.006 C 
ENDBRANCH  13  14
ENDBRANCH   2  13
TORSDOF 8
ENDMDL
MODEL 2
REMARK VINA RESULT: -5.955707472      0.741      1.074
REMARK  8 active torsions:
REMARK  status: ('A' for Active; 'I' for Inactive)
REMARK    1  A    between atoms: S1_2  and  C2_3 
REMARK    2  A    between atoms: C2_3  and  C3_4 
REMARK    3  A    between atoms: C3_4  and  C4_5 
REMARK    4  A    between atoms: C4_5  and  N1_6 
REMARK    5  A    between atoms: N1_6  and  C5_8 
REMARK    6  A    between atoms: C5_8  and  C7_10 
REMARK    7  A    between atoms: N2_11  and  C8_13 
REMARK    8  A    between atoms: C8_13  and  C9_14 
ROOT
HETATM    1  C7  UNL     1      22.321  70.901  -5.888  1.00  0.00     0.080 C 
HETATM    2  N2  UNL     1      22.525  70.140  -6.987  1.00  0.00    -0.400 N 
ATOM      3  H2  UNL     1      21.774  70.119  -7.677  1.00  0.00     0.158 HD
ENDROOT
BRANCH   1   4
HETATM    4  C5  UNL     1      22.132  70.360  -4.499  1.00  0.00     0.114 C 
HETATM    5  C6  UNL     1      20.923  70.785  -3.757  1.00  0.00     0.038 C 
BRANCH   4   6
HETATM    6  N1  UNL     1      22.119  68.920  -4.664  1.00  0.00    -0.394 N 
ATOM      7  H1  UNL     1      21.459  68.489  -5.312  1.00  0.00     0.159 HD
BRANCH   6   8
HETATM    8  C4  UNL     1      23.000  68.123  -3.948  1.00  0.00     0.057 C 
BRANCH   8   9
HETATM    9  C3  UNL     1      23.166  66.677  -4.207  1.00  0.00     0.054 C 
BRANCH   9  10
HETATM   10  C2  UNL     1      24.154  66.057  -3.203  1.00  0.00     0.078 C 
BRANCH  10  11
HETATM   11  S1  UNL     1      24.114  64.237  -3.335  1.00  0.00    -0.173 SA
HETATM   12  C1  UNL     1      24.077  63.816  -5.116  1.00  0.00     0.089 C 
ENDBRANCH  10  11
ENDBRANCH   9  10
ENDBRANCH   8   9
ENDBRANCH   6   8
ENDBRANCH   4   6
ENDBRANCH   1   4
BRANCH   2  13
HETATM   13  C8  UNL     1      23.645  69.391  -7.267  1.00  0.00     0.123 C 
BRANCH  13  14
HETATM   14  C9  UNL     1      23.337  68.192  -8.195  1.00  0.00     0.003 C 
HETATM   15  C10 UNL     1      24.000  66.953  -7.715  1.00  0.00     0.006 C 
HETATM   16  C11 UNL     1      23.833  65.880  -8.741  1.00  0.00     0.000 C 
HETATM   17  C12 UNL     1      22.396  65.664  -9.145  1.00  0.00     0.000 C 
HETATM   18  C13 UNL     1      21.681  66.955  -9.460  1.00  0.00     0.000 C 
HETATM   19  C14 UNL     1      21.874  67.954  -8.338  1.00  0.00     0.006 C 
ENDBRANCH  13  14
ENDBRANCH   2  13
TORSDOF 8
ENDMDL
MODEL 3
REMARK VINA RESULT: -5.930228770      1.903      4.772
REMARK  8 active torsions:
REMARK  status: ('A' for Active; 'I' for Inactive)
REMARK    1  A    between atoms: S1_2  and  C2_3 
REMARK    2  A    between atoms: C2_3  and  C3_4 
REMARK    3  A    between atoms: C3_4  and  C4_5 
REMARK    4  A    between atoms: C4_5  and  N1_6 
REMARK    5  A    between atoms: N1_6  and  C5_8 
REMARK    6  A    between atoms: C5_8  and  C7_10 
REMARK    7  A    between atoms: N2_11  and  C8_13 
REMARK    8  A    between atoms: C8_13  and  C9_14 
ROOT
HETATM    1  C7  UNL     1      23.359  67.420  -9.165  1.00  0.00     0.080 C 
HETATM    2  N2  UNL     1      23.386  68.515  -8.374  1.00  0.00    -0.400 N 
ATOM      3  H2  UNL     1      24.246  69.063  -8.378  1.00  0.00     0.158 HD
ENDROOT
BRANCH   1   4
HETATM    4  C5  UNL     1      23.326  66.004  -8.661  1.00  0.00     0.114 C 
HETATM    5  C6  UNL     1      22.957  64.943  -9.625  1.00  0.00     0.038 C 
BRANCH   4   6
HETATM    6  N1  UNL     1      24.665  65.762  -8.160  1.00  0.00    -0.394 N 
ATOM      7  H1  UNL     1      25.467  65.881  -8.779  1.00  0.00     0.159 HD
BRANCH   6   8
HETATM    8  C4  UNL     1      24.862  65.370  -6.845  1.00  0.00     0.057 C 
BRANCH   8   9
HETATM    9  C3  UNL     1      24.199  66.035  -5.702  1.00  0.00     0.054 C 
BRANCH   9  10
HETATM   10  C2  UNL     1      24.798  65.547  -4.371  1.00  0.00     0.078 C 
BRANCH  10  11
HETATM   11  S1  UNL     1      24.047  66.461  -2.981  1.00  0.00    -0.173 SA
HETATM   12  C1  UNL     1      23.995  65.328  -1.543  1.00  0.00     0.089 C 
ENDBRANCH  10  11
ENDBRANCH   9  10
ENDBRANCH   8   9
ENDBRANCH   6   8
ENDBRANCH   4   6
ENDBRANCH   1   4
BRANCH   2  13
HETATM   13  C8  UNL     1      22.369  68.965  -7.563  1.00  0.00     0.123 C 
BRANCH  13  14
HETATM   14  C9  UNL     1      22.682  70.344  -6.934  1.00  0.00     0.003 C 
HETATM   15  C10 UNL     1      22.197  70.419  -5.532  1.00  0.00     0.006 C 
HETATM   16  C11 UNL     1      22.346  71.822  -5.038  1.00  0.00     0.000 C 
HETATM   17  C12 UNL     1      23.742  72.366  -5.212  1.00  0.00     0.000 C 
HETATM   18  C13 UNL     1      24.292  72.123  -6.596  1.00  0.00     0.000 C 
HETATM   19  C14 UNL     1      24.135  70.666  -6.979  1.00  0.00     0.006 C 
ENDBRANCH  13  14
ENDBRANCH   2  13
TORSDOF 8
ENDMDL
MODEL 4
REMARK VINA RESULT: -5.896910343      1.322      2.078
REMARK  8 active torsions:
REMARK  status: ('A' for Active; 'I' for Inactive)
REMARK    1  A    between atoms: S1_2  and  C2_3 
REMARK    2  A    between atoms: C2_3  and  C3_4 
REMARK    3  A    between atoms: C3_4  and  C4_5 
REMARK    4  A    between atoms: C4_5  and  N1_6 
REMARK    5  A    between atoms: N1_6  and  C5_8 
REMARK    6  A    between atoms: C5_8  and  C7_10 
REMARK    7  A    between atoms: N2_11  and  C8_13 
REMARK    8  A    between atoms: C8_13  and  C9_14 
ROOT
HETATM    1  C7  UNL     1      22.979  71.638  -6.727  1.00  0.00     0.080 C 
HETATM    2  N2  UNL     1      22.821  70.396  -7.237  1.00  0.00    -0.400 N 
ATOM      3  H2  UNL     1      21.878  70.133  -7.521  1.00  0.00     0.158 HD
ENDROOT
BRANCH   1   4
HETATM    4  C5  UNL     1      23.319  71.935  -5.294  1.00  0.00     0.114 C 
HETATM    5  C6  UNL     1      24.033  73.200  -5.007  1.00  0.00     0.038 C 
BRANCH   4   6
HETATM    6  N1  UNL     1      22.043  71.930  -4.606  1.00  0.00    -0.394 N 
ATOM      7  H1  UNL     1      21.560  72.810  -4.426  1.00  0.00     0.159 HD
BRANCH   6   8
HETATM    8  C4  UNL     1      21.474  70.736  -4.190  1.00  0.00     0.057 C 
BRANCH   8   9
HETATM    9  C3  UNL     1      22.140  69.819  -3.240  1.00  0.00     0.054 C 
BRANCH   9  10
HETATM   10  C2  UNL     1      22.788  68.640  -3.989  1.00  0.00     0.078 C 
BRANCH  10  11
HETATM   11  S1  UNL     1      23.293  67.350  -2.801  1.00  0.00    -0.173 SA
HETATM   12  C1  UNL     1      24.396  66.189  -3.687  1.00  0.00     0.089 C 
ENDBRANCH  10  11
ENDBRANCH   9  10
ENDBRANCH   8   9
ENDBRANCH   6   8
ENDBRANCH   4   6
ENDBRANCH   1   4
BRANCH   2  13
HETATM   13  C8  UNL     1      23.806  69.451  -7.411  1.00  0.00     0.123 C 
BRANCH  13  14
HETATM   14  C9  UNL     1      23.353  68.285  -8.322  1.00  0.00     0.003 C 
HETATM   15  C10 UNL     1      23.962  67.000  -7.897  1.00  0.00     0.006 C 
HETATM   16  C11 UNL     1      23.651  65.951  -8.915  1.00  0.00     0.000 C 
HETATM   17  C12 UNL     1      22.178  65.837  -9.217  1.00  0.00     0.000 C 
HETATM   18  C13 UNL     1      21.532  67.176  -9.473  1.00  0.00     0.000 C 
HETATM   19  C14 UNL     1      21.870  68.148  -8.362  1.00  0.00     0.006 C 
ENDBRANCH  13  14
ENDBRANCH   2  13
TORSDOF 8
ENDMDL
MODEL 5
REMARK VINA RESULT: -5.892995256      0.969      1.561
REMARK  8 active torsions:
REMARK  status: ('A' for Active; 'I' for Inactive)
REMARK    1  A    between atoms: S1_2  and  C2_3 
REMARK    2  A    between atoms: C2_3  and  C3_4 
REMARK    3  A    between atoms: C3_4  and  C4_5 
REMARK    4  A    between atoms: C4_5  and  N1_6 
REMARK    5  A    between atoms: N1_6  and  C5_8 
REMARK    6  A    between atoms: C5_8  and  C7_10 
REMARK    7  A    between atoms: N2_11  and  C8_13 
REMARK    8  A    between atoms: C8_13  and  C9_14 
ROOT
HETATM    1  C7  UNL     1      22.353  70.269  -5.671  1.00  0.00     0.080 C 
HETATM    2  N2  UNL     1      22.300  69.631  -6.861  1.00  0.00    -0.400 N 
ATOM      3  H2  UNL     1      21.393  69.606  -7.328  1.00  0.00     0.158 HD
ENDROOT
BRANCH   1   4
HETATM    4  C5  UNL     1      22.581  69.592  -4.348  1.00  0.00     0.114 C 
HETATM    5  C6  UNL     1      21.856  70.125  -3.173  1.00  0.00     0.038 C 
BRANCH   4   6
HETATM    6  N1  UNL     1      22.196  68.212  -4.572  1.00  0.00    -0.394 N 
ATOM      7  H1  UNL     1      21.336  68.001  -5.079  1.00  0.00     0.159 HD
BRANCH   6   8
HETATM    8  C4  UNL     1      22.989  67.177  -4.101  1.00  0.00     0.057 C 
BRANCH   8   9
HETATM    9  C3  UNL     1      24.425  67.052  -4.432  1.00  0.00     0.054 C 
BRANCH   9  10
HETATM   10  C2  UNL     1      24.842  65.572  -4.484  1.00  0.00     0.078 C 
BRANCH  10  11
HETATM   11  S1  UNL     1      23.537  64.533  -3.743  1.00  0.00    -0.173 SA
HETATM   12  C1  UNL     1      24.082  64.086  -2.053  1.00  0.00     0.089 C 
ENDBRANCH  10  11
ENDBRANCH   9  10
ENDBRANCH   8   9
ENDBRANCH   6   8
ENDBRANCH   4   6
ENDBRANCH   1   4
BRANCH   2  13
HETATM   13  C8  UNL     1      23.346  69.012  -7.505  1.00  0.00     0.123 C 
BRANCH  13  14
HETATM   14  C9  UNL     1      23.004  67.564  -7.931  1.00  0.00     0.003 C 
HETATM   15  C10 UNL     1      22.270  67.540  -9.221  1.00  0.00     0.006 C 
HETATM   16  C11 UNL     1      21.796  66.149  -9.489  1.00  0.00     0.000 C 
HETATM   17  C12 UNL     1      22.900  65.123  -9.417  1.00  0.00     0.000 C 
HETATM   18  C13 UNL     1      23.753  65.273  -8.182  1.00  0.00     0.000 C 
HETATM   19  C14 UNL     1      24.218  66.707  -8.031  1.00  0.00     0.006 C 
ENDBRANCH  13  14
ENDBRANCH   2  13
TORSDOF 8
ENDMDL
