MODEL 1
REMARK VINA RESULT: -6.846199962      0.000      0.000
REMARK  9 active torsions:
REMARK  status: ('A' for Active; 'I' for Inactive)
REMARK    1  A    between atoms: C2_2  and  C4_4 
REMARK    2  A    between atoms: C4_4  and  C5_5 
REMARK    3  A    between atoms: C5_5  and  C6_6 
REMARK    4  A    between atoms: C6_6  and  N1_8 
REMARK    5  A    between atoms: N1_8  and  C8_10 
REMARK    6  A    between atoms: C8_10  and  C9_11 
REMARK    7  A    between atoms: C9_11  and  C11_13 
REMARK    8  A    between atoms: C11_13  and  O1_14 
REMARK    9  A    between atoms: O1_14  and  C12_15 
ROOT
HETATM    1  C9  UNL     1      23.644  66.272  -2.254  1.00  0.00     0.044 C 
HETATM    2  C10 UNL     1      22.317  65.586  -1.905  1.00  0.00     0.017 C 
ENDROOT
BRANCH   1   3
HETATM    3  C8  UNL     1      24.424  65.319  -3.106  1.00  0.00     0.062 C 
BRANCH   3   4
HETATM    4  N1  UNL     1      24.932  65.765  -4.320  1.00  0.00    -0.398 N 
ATOM      5  H1  UNL     1      25.562  66.567  -4.329  1.00  0.00     0.159 HD
BRANCH   4   6
HETATM    6  C6  UNL     1      24.602  65.144  -5.537  1.00  0.00     0.076 C 
HETATM    7  C7  UNL     1      23.626  64.002  -5.489  1.00  0.00     0.032 C 
BRANCH   6   8
HETATM    8  C5  UNL     1      24.149  66.174  -6.583  1.00  0.00     0.025 C 
BRANCH   8   9
HETATM    9  C4  UNL     1      24.711  65.790  -7.917  1.00  0.00     0.006 C 
BRANCH   9  10
HETATM   10  C2  UNL     1      23.768  66.119  -9.051  1.00  0.00    -0.023 C 
HETATM   11  C1  UNL     1      22.526  65.292  -9.060  1.00  0.00     0.009 C 
HETATM   12  C3  UNL     1      23.450  67.599  -9.068  1.00  0.00     0.009 C 
ENDBRANCH   9  10
ENDBRANCH   8   9
ENDBRANCH   6   8
ENDBRANCH   4   6
ENDBRANCH   3   4
ENDBRANCH   1   3
BRANCH   1  13
HETATM   13  C11 UNL     1      23.246  67.518  -3.021  1.00  0.00     0.185 C 
BRANCH  13  14
HETATM   14  O1  UNL     1      22.823  68.498  -2.096  1.00  0.00    -0.348 OA
BRANCH  14  15
HETATM   15  C12 UNL     1      22.001  69.562  -2.522  1.00  0.00     0.102 A 
HETATM   16  C13 UNL     1      21.984  70.225  -3.722  1.00  0.00     0.145 A 
HETATM   17  N2  UNL     1      21.021  71.153  -3.639  1.00  0.00    -0.309 N 
HETATM   18  N3  UNL     1      20.439  71.110  -2.465  1.00  0.00    -0.309 N 
ATOM     19  H2  UNL     1      20.776  71.803  -4.386  1.00  0.00     0.186 HD
HETATM   20  C14 UNL     1      21.012  70.141  -1.742  1.00  0.00     0.145 A 
ATOM     21  H3  UNL     1      19.676  71.713  -2.155  1.00  0.00     0.186 HD
ENDBRANCH  14  15
ENDBRANCH  13  14
ENDBRANCH   1  13
TORSDOF 9
ENDMDL
MODEL 2
REMARK VINA RESULT: -6.734953009      1.555      2.659
REMARK  9 active torsions:
REMARK  status: ('A' for Active; 'I' for Inactive)
REMARK    1  A    between atoms: C2_2  and  C4_4 
REMARK    2  A    between atoms: C4_4  and  C5_5 
REMARK    3  A    between atoms: C5_5  and  C6_6 
REMARK    4  A    between atoms: C6_6  and  N1_8 
REMARK    5  A    between atoms: N1_8  and  C8_10 
REMARK    6  A    between atoms: C8_10  and  C9_11 
REMARK    7  A    between atoms: C9_11  and  C11_13 
REMARK    8  A    between atoms: C11_13  and  O1_14 
REMARK    9  A    between atoms: O1_14  and  C12_15 
ROOT
HETATM    1  C9  UNL     1      23.729  67.147  -3.689  1.00  0.00     0.044 C 
HETATM    2  C10 UNL     1      22.924  65.841  -3.708  1.00  0.00     0.017 C 
ENDROOT
BRANCH   1   3
HETATM    3  C8  UNL     1      23.846  67.616  -5.105  1.00  0.00     0.062 C 
BRANCH   3   4
HETATM    4  N1  UNL     1      22.698  67.695  -5.884  1.00  0.00    -0.398 N 
ATOM      5  H1  UNL     1      21.927  67.055  -5.696  1.00  0.00     0.159 HD
BRANCH   4   6
HETATM    6  C6  UNL     1      22.568  68.632  -6.924  1.00  0.00     0.076 C 
HETATM    7  C7  UNL     1      23.718  69.571  -7.158  1.00  0.00     0.032 C 
BRANCH   6   8
HETATM    8  C5  UNL     1      22.176  67.948  -8.243  1.00  0.00     0.025 C 
BRANCH   8   9
HETATM    9  C4  UNL     1      23.416  67.692  -9.043  1.00  0.00     0.006 C 
BRANCH   9  10
HETATM   10  C2  UNL     1      23.725  66.218  -9.162  1.00  0.00    -0.023 C 
HETATM   11  C1  UNL     1      24.651  65.711  -8.108  1.00  0.00     0.009 C 
HETATM   12  C3  UNL     1      22.447  65.407  -9.216  1.00  0.00     0.009 C 
ENDBRANCH   9  10
ENDBRANCH   8   9
ENDBRANCH   6   8
ENDBRANCH   4   6
ENDBRANCH   3   4
ENDBRANCH   1   3
BRANCH   1  13
HETATM   13  C11 UNL     1      22.901  68.099  -2.846  1.00  0.00     0.185 C 
BRANCH  13  14
HETATM   14  O1  UNL     1      22.922  69.372  -3.457  1.00  0.00    -0.348 OA
BRANCH  14  15
HETATM   15  C12 UNL     1      21.779  70.198  -3.404  1.00  0.00     0.102 A 
HETATM   16  C13 UNL     1      20.849  70.338  -2.407  1.00  0.00     0.145 A 
HETATM   17  N2  UNL     1      19.959  71.244  -2.832  1.00  0.00    -0.309 N 
HETATM   18  N3  UNL     1      20.275  71.676  -4.029  1.00  0.00    -0.309 N 
ATOM     19  H2  UNL     1      19.147  71.555  -2.298  1.00  0.00     0.186 HD
HETATM   20  C14 UNL     1      21.393  71.056  -4.422  1.00  0.00     0.145 A 
ATOM     21  H3  UNL     1      19.756  72.368  -4.570  1.00  0.00     0.186 HD
ENDBRANCH  14  15
ENDBRANCH  13  14
ENDBRANCH   1  13
TORSDOF 9
ENDMDL
MODEL 3
REMARK VINA RESULT: -6.706038789      1.856      2.414
REMARK  9 active torsions:
REMARK  status: ('A' for Active; 'I' for Inactive)
REMARK    1  A    between atoms: C2_2  and  C4_4 
REMARK    2  A    between atoms: C4_4  and  C5_5 
REMARK    3  A    between atoms: C5_5  and  C6_6 
REMARK    4  A    between atoms: C6_6  and  N1_8 
REMARK    5  A    between atoms: N1_8  and  C8_10 
REMARK    6  A    between atoms: C8_10  and  C9_11 
REMARK    7  A    between atoms: C9_11  and  C11_13 
REMARK    8  A    between atoms: C11_13  and  O1_14 
REMARK    9  A    between atoms: O1_14  and  C12_15 
ROOT
HETATM    1  C9  UNL     1      22.889  68.803  -5.562  1.00  0.00     0.044 C 
HETATM    2  C10 UNL     1      22.231  68.709  -6.945  1.00  0.00     0.017 C 
ENDROOT
BRANCH   1   3
HETATM    3  C8  UNL     1      24.077  67.892  -5.575  1.00  0.00     0.062 C 
BRANCH   3   4
HETATM    4  N1  UNL     1      23.961  66.627  -5.012  1.00  0.00    -0.398 N 
ATOM      5  H1  UNL     1      23.534  66.533  -4.091  1.00  0.00     0.159 HD
BRANCH   4   6
HETATM    6  C6  UNL     1      24.413  65.473  -5.675  1.00  0.00     0.076 C 
HETATM    7  C7  UNL     1      23.658  64.196  -5.433  1.00  0.00     0.032 C 
BRANCH   6   8
HETATM    8  C5  UNL     1      24.553  65.719  -7.186  1.00  0.00     0.025 C 
BRANCH   8   9
HETATM    9  C4  UNL     1      23.346  65.169  -7.880  1.00  0.00     0.006 C 
BRANCH   9  10
HETATM   10  C2  UNL     1      23.131  65.798  -9.237  1.00  0.00    -0.023 C 
HETATM   11  C1  UNL     1      21.721  66.218  -9.489  1.00  0.00     0.009 C 
HETATM   12  C3  UNL     1      24.098  66.943  -9.453  1.00  0.00     0.009 C 
ENDBRANCH   9  10
ENDBRANCH   8   9
ENDBRANCH   6   8
ENDBRANCH   4   6
ENDBRANCH   3   4
ENDBRANCH   1   3
BRANCH   1  13
HETATM   13  C11 UNL     1      23.295  70.257  -5.425  1.00  0.00     0.185 C 
BRANCH  13  14
HETATM   14  O1  UNL     1      23.136  70.642  -4.074  1.00  0.00    -0.348 OA
BRANCH  14  15
HETATM   15  C12 UNL     1      21.865  70.571  -3.467  1.00  0.00     0.102 A 
HETATM   16  C13 UNL     1      20.648  70.992  -3.937  1.00  0.00     0.145 A 
HETATM   17  N2  UNL     1      19.745  70.701  -2.991  1.00  0.00    -0.309 N 
HETATM   18  N3  UNL     1      20.322  70.127  -1.963  1.00  0.00    -0.309 N 
ATOM     19  H2  UNL     1      18.747  70.898  -3.061  1.00  0.00     0.186 HD
HETATM   20  C14 UNL     1      21.633  70.027  -2.214  1.00  0.00     0.145 A 
ATOM     21  H3  UNL     1      19.851  69.810  -1.115  1.00  0.00     0.186 HD
ENDBRANCH  14  15
ENDBRANCH  13  14
ENDBRANCH   1  13
TORSDOF 9
ENDMDL
MODEL 4
REMARK VINA RESULT: -6.684991407      2.730      4.233
REMARK  9 active torsions:
REMARK  status: ('A' for Active; 'I' for Inactive)
REMARK    1  A    between atoms: C2_2  and  C4_4 
REMARK    2  A    between atoms: C4_4  and  C5_5 
REMARK    3  A    between atoms: C5_5  and  C6_6 
REMARK    4  A    between atoms: C6_6  and  N1_8 
REMARK    5  A    between atoms: N1_8  and  C8_10 
REMARK    6  A    between atoms: C8_10  and  C9_11 
REMARK    7  A    between atoms: C9_11  and  C11_13 
REMARK    8  A    between atoms: C11_13  and  O1_14 
REMARK    9  A    between atoms: O1_14  and  C12_15 
ROOT
HETATM    1  C9  UNL     1      24.263  71.765  -6.306  1.00  0.00     0.044 C 
HETATM    2  C10 UNL     1      25.722  71.681  -5.839  1.00  0.00     0.017 C 
ENDROOT
BRANCH   1   3
HETATM    3  C8  UNL     1      23.926  70.453  -6.942  1.00  0.00     0.062 C 
BRANCH   3   4
HETATM    4  N1  UNL     1      22.649  70.265  -7.459  1.00  0.00    -0.398 N 
ATOM      5  H1  UNL     1      22.060  71.079  -7.630  1.00  0.00     0.159 HD
BRANCH   4   6
HETATM    6  C6  UNL     1      22.147  68.986  -7.753  1.00  0.00     0.076 C 
HETATM    7  C7  UNL     1      21.416  68.812  -9.055  1.00  0.00     0.032 C 
BRANCH   6   8
HETATM    8  C5  UNL     1      23.241  67.915  -7.621  1.00  0.00     0.025 C 
BRANCH   8   9
HETATM    9  C4  UNL     1      23.577  67.395  -8.985  1.00  0.00     0.006 C 
BRANCH   9  10
HETATM   10  C2  UNL     1      23.950  65.931  -8.963  1.00  0.00    -0.023 C 
HETATM   11  C1  UNL     1      24.659  65.509  -7.719  1.00  0.00     0.009 C 
HETATM   12  C3  UNL     1      22.736  65.066  -9.230  1.00  0.00     0.009 C 
ENDBRANCH   9  10
ENDBRANCH   8   9
ENDBRANCH   6   8
ENDBRANCH   4   6
ENDBRANCH   3   4
ENDBRANCH   1   3
BRANCH   1  13
HETATM   13  C11 UNL     1      23.464  72.000  -5.038  1.00  0.00     0.185 C 
BRANCH  13  14
HETATM   14  O1  UNL     1      23.083  70.746  -4.510  1.00  0.00    -0.348 OA
BRANCH  14  15
HETATM   15  C12 UNL     1      21.887  70.626  -3.772  1.00  0.00     0.102 A 
HETATM   16  C13 UNL     1      20.622  71.051  -4.085  1.00  0.00     0.145 A 
HETATM   17  N2  UNL     1      19.831  70.700  -3.062  1.00  0.00    -0.309 N 
HETATM   18  N3  UNL     1      20.522  70.085  -2.134  1.00  0.00    -0.309 N 
ATOM     19  H2  UNL     1      18.829  70.886  -3.013  1.00  0.00     0.186 HD
HETATM   20  C14 UNL     1      21.798  70.017  -2.530  1.00  0.00     0.145 A 
ATOM     21  H3  UNL     1      20.150  69.720  -1.257  1.00  0.00     0.186 HD
ENDBRANCH  14  15
ENDBRANCH  13  14
ENDBRANCH   1  13
TORSDOF 9
ENDMDL
MODEL 5
REMARK VINA RESULT: -6.608711400      2.171      3.511
REMARK  9 active torsions:
REMARK  status: ('A' for Active; 'I' for Inactive)
REMARK    1  A    between atoms: C2_2  and  C4_4 
REMARK    2  A    between atoms: C4_4  and  C5_5 
REMARK    3  A    between atoms: C5_5  and  C6_6 
REMARK    4  A    between atoms: C6_6  and  N1_8 
REMARK    5  A    between atoms: N1_8  and  C8_10 
REMARK    6  A    between atoms: C8_10  and  C9_11 
REMARK    7  A    between atoms: C9_11  and  C11_13 
REMARK    8  A    between atoms: C11_13  and  O1_14 
REMARK    9  A    between atoms: O1_14  and  C12_15 
ROOT
HETATM    1  C9  UNL     1      24.034  71.376  -6.322  1.00  0.00     0.044 C 
HETATM    2  C10 UNL     1      25.442  71.622  -5.766  1.00  0.00     0.017 C 
ENDROOT
BRANCH   1   3
HETATM    3  C8  UNL     1      23.894  69.901  -6.535  1.00  0.00     0.062 C 
BRANCH   3   4
HETATM    4  N1  UNL     1      24.520  69.032  -5.650  1.00  0.00    -0.398 N 
ATOM      5  H1  UNL     1      25.305  69.371  -5.095  1.00  0.00     0.159 HD
BRANCH   4   6
HETATM    6  C6  UNL     1      24.104  67.699  -5.496  1.00  0.00     0.076 C 
HETATM    7  C7  UNL     1      23.338  67.351  -4.250  1.00  0.00     0.032 C 
BRANCH   6   8
HETATM    8  C5  UNL     1      23.335  67.210  -6.734  1.00  0.00     0.025 C 
BRANCH   8   9
HETATM    9  C4  UNL     1      24.186  66.226  -7.476  1.00  0.00     0.006 C 
BRANCH   9  10
HETATM   10  C2  UNL     1      23.911  66.238  -8.962  1.00  0.00    -0.023 C 
HETATM   11  C1  UNL     1      22.949  65.188  -9.405  1.00  0.00     0.009 C 
HETATM   12  C3  UNL     1      23.475  67.617  -9.412  1.00  0.00     0.009 C 
ENDBRANCH   9  10
ENDBRANCH   8   9
ENDBRANCH   6   8
ENDBRANCH   4   6
ENDBRANCH   3   4
ENDBRANCH   1   3
BRANCH   1  13
HETATM   13  C11 UNL     1      23.097  71.882  -5.242  1.00  0.00     0.185 C 
BRANCH  13  14
HETATM   14  O1  UNL     1      23.073  70.938  -4.191  1.00  0.00    -0.348 OA
BRANCH  14  15
HETATM   15  C12 UNL     1      21.873  70.693  -3.492  1.00  0.00     0.102 A 
HETATM   16  C13 UNL     1      21.681  70.102  -2.270  1.00  0.00     0.145 A 
HETATM   17  N2  UNL     1      20.360  70.104  -2.042  1.00  0.00    -0.309 N 
HETATM   18  N3  UNL     1      19.720  70.657  -3.043  1.00  0.00    -0.309 N 
ATOM     19  H2  UNL     1      19.916  69.727  -1.205  1.00  0.00     0.186 HD
HETATM   20  C14 UNL     1      20.616  71.036  -3.962  1.00  0.00     0.145 A 
ATOM     21  H3  UNL     1      18.709  70.779  -3.110  1.00  0.00     0.186 HD
ENDBRANCH  14  15
ENDBRANCH  13  14
ENDBRANCH   1  13
TORSDOF 9
ENDMDL
