MODEL 1
REMARK VINA RESULT: -5.601362394      0.000      0.000
REMARK  3 active torsions:
REMARK  status: ('A' for Active; 'I' for Inactive)
REMARK    1  A    between atoms: C1_1  and  C7_10 
REMARK    2  A    between atoms: C2_2  and  C3_3 
REMARK    3  A    between atoms: C7_10  and  N2_11 
ROOT
HETATM    1  C1  UNL     1       9.244 -49.219  35.721  1.00  0.00    -0.001 C 
HETATM    2  C2  UNL     1       9.274 -50.061  34.700  1.00  0.00    -0.023 C 
ENDROOT
BRANCH   2   3
HETATM    3  C3  UNL     1      10.560 -50.479  34.049  1.00  0.00     0.035 C 
HETATM    4  C4  UNL     1      10.617 -51.997  34.017  1.00  0.00     0.037 C 
HETATM    5  C5  UNL     1      11.852 -52.385  34.779  1.00  0.00     0.233 C 
HETATM    6  N1  UNL     1      12.691 -51.210  34.810  1.00  0.00    -0.074 N 
HETATM    7  C6  UNL     1      11.742 -50.095  34.881  1.00  0.00     0.240 C 
ATOM      8  H12 UNL     1      13.389 -51.213  35.553  1.00  0.00     0.277 HD
ATOM      9  H11 UNL     1      13.353 -51.147  34.036  1.00  0.00     0.277 HD
ENDBRANCH   2   3
BRANCH   1  10
HETATM   10  C7  UNL     1       7.981 -48.802  36.369  1.00  0.00     0.299 C 
BRANCH  10  11
HETATM   11  N2  UNL     1       8.086 -49.105  37.789  1.00  0.00     0.091 N 
HETATM   12  C8  UNL     1       7.119 -50.107  38.184  1.00  0.00     0.273 C 
HETATM   13  C9  UNL     1       7.839 -51.110  39.023  1.00  0.00     0.032 C 
HETATM   14  C10 UNL     1       9.210 -51.133  38.376  1.00  0.00     0.032 C 
HETATM   15  C11 UNL     1       9.400 -49.639  38.106  1.00  0.00     0.273 C 
ENDBRANCH  10  11
ENDBRANCH   1  10
TORSDOF 3
ENDMDL
MODEL 2
REMARK VINA RESULT: -5.585204346      1.252      2.150
REMARK  3 active torsions:
REMARK  status: ('A' for Active; 'I' for Inactive)
REMARK    1  A    between atoms: C1_1  and  C7_10 
REMARK    2  A    between atoms: C2_2  and  C3_3 
REMARK    3  A    between atoms: C7_10  and  N2_11 
ROOT
HETATM    1  C1  UNL     1      10.147 -50.592  36.498  1.00  0.00    -0.001 C 
HETATM    2  C2  UNL     1      11.083 -49.851  35.925  1.00  0.00    -0.023 C 
ENDROOT
BRANCH   2   3
HETATM    3  C3  UNL     1      11.719 -50.236  34.622  1.00  0.00     0.035 C 
HETATM    4  C4  UNL     1      10.702 -50.045  33.509  1.00  0.00     0.037 C 
HETATM    5  C5  UNL     1      10.532 -51.389  32.863  1.00  0.00     0.233 C 
HETATM    6  N1  UNL     1      11.698 -52.161  33.225  1.00  0.00    -0.074 N 
HETATM    7  C6  UNL     1      12.025 -51.700  34.577  1.00  0.00     0.240 C 
ATOM      8  H12 UNL     1      11.574 -53.170  33.146  1.00  0.00     0.277 HD
ATOM      9  H11 UNL     1      12.469 -52.091  32.561  1.00  0.00     0.277 HD
ENDBRANCH   2   3
BRANCH   1  10
HETATM   10  C7  UNL     1       9.515 -50.218  37.783  1.00  0.00     0.299 C 
BRANCH  10  11
HETATM   11  N2  UNL     1       8.071 -50.247  37.595  1.00  0.00     0.091 N 
HETATM   12  C8  UNL     1       7.381 -50.374  38.860  1.00  0.00     0.273 C 
HETATM   13  C9  UNL     1       6.272 -49.374  38.862  1.00  0.00     0.032 C 
HETATM   14  C10 UNL     1       6.883 -48.228  38.079  1.00  0.00     0.032 C 
HETATM   15  C11 UNL     1       7.607 -49.013  36.984  1.00  0.00     0.273 C 
ENDBRANCH  10  11
ENDBRANCH   1  10
TORSDOF 3
ENDMDL
MODEL 3
REMARK VINA RESULT: -5.571006250      1.355      5.275
REMARK  3 active torsions:
REMARK  status: ('A' for Active; 'I' for Inactive)
REMARK    1  A    between atoms: C1_1  and  C7_10 
REMARK    2  A    between atoms: C2_2  and  C3_3 
REMARK    3  A    between atoms: C7_10  and  N2_11 
ROOT
HETATM    1  C1  UNL     1       9.775 -49.013  35.722  1.00  0.00    -0.001 C 
HETATM    2  C2  UNL     1       8.468 -49.189  35.847  1.00  0.00    -0.023 C 
ENDROOT
BRANCH   2   3
HETATM    3  C3  UNL     1       7.695 -48.632  37.007  1.00  0.00     0.035 C 
HETATM    4  C4  UNL     1       8.156 -49.328  38.277  1.00  0.00     0.037 C 
HETATM    5  C5  UNL     1       6.938 -49.984  38.859  1.00  0.00     0.233 C 
HETATM    6  N1  UNL     1       5.800 -49.315  38.270  1.00  0.00    -0.074 N 
HETATM    7  C6  UNL     1       6.245 -48.984  36.914  1.00  0.00     0.240 C 
ATOM      8  H12 UNL     1       4.934 -49.852  38.307  1.00  0.00     0.277 HD
ATOM      9  H11 UNL     1       5.460 -48.517  38.806  1.00  0.00     0.277 HD
ENDBRANCH   2   3
BRANCH   1  10
HETATM   10  C7  UNL     1      10.543 -49.559  34.582  1.00  0.00     0.299 C 
BRANCH  10  11
HETATM   11  N2  UNL     1      11.623 -50.374  35.121  1.00  0.00     0.091 N 
HETATM   12  C8  UNL     1      11.194 -51.739  35.332  1.00  0.00     0.273 C 
HETATM   13  C9  UNL     1      12.256 -52.629  34.776  1.00  0.00     0.032 C 
HETATM   14  C10 UNL     1      12.745 -51.825  33.586  1.00  0.00     0.032 C 
HETATM   15  C11 UNL     1      12.743 -50.422  34.196  1.00  0.00     0.273 C 
ENDBRANCH  10  11
ENDBRANCH   1  10
TORSDOF 3
ENDMDL
MODEL 4
REMARK VINA RESULT: -5.454150099      1.215      1.873
REMARK  3 active torsions:
REMARK  status: ('A' for Active; 'I' for Inactive)
REMARK    1  A    between atoms: C1_1  and  C7_10 
REMARK    2  A    between atoms: C2_2  and  C3_3 
REMARK    3  A    between atoms: C7_10  and  N2_11 
ROOT
HETATM    1  C1  UNL     1      10.439 -50.363  36.367  1.00  0.00    -0.001 C 
HETATM    2  C2  UNL     1      11.158 -49.786  35.416  1.00  0.00    -0.023 C 
ENDROOT
BRANCH   2   3
HETATM    3  C3  UNL     1      11.868 -50.582  34.360  1.00  0.00     0.035 C 
HETATM    4  C4  UNL     1      11.542 -52.052  34.559  1.00  0.00     0.037 C 
HETATM    5  C5  UNL     1      12.856 -52.746  34.778  1.00  0.00     0.233 C 
HETATM    6  N1  UNL     1      13.870 -51.859  34.255  1.00  0.00    -0.074 N 
HETATM    7  C6  UNL     1      13.352 -50.518  34.537  1.00  0.00     0.240 C 
ATOM      8  H12 UNL     1      14.806 -52.032  34.622  1.00  0.00     0.277 HD
ATOM      9  H11 UNL     1      14.103 -52.021  33.276  1.00  0.00     0.277 HD
ENDBRANCH   2   3
BRANCH   1  10
HETATM   10  C7  UNL     1       9.736 -49.585  37.412  1.00  0.00     0.299 C 
BRANCH  10  11
HETATM   11  N2  UNL     1       8.320 -49.916  37.338  1.00  0.00     0.091 N 
HETATM   12  C8  UNL     1       7.832 -50.419  38.604  1.00  0.00     0.273 C 
HETATM   13  C9  UNL     1       6.544 -49.722  38.891  1.00  0.00     0.032 C 
HETATM   14  C10 UNL     1       6.796 -48.347  38.303  1.00  0.00     0.032 C 
HETATM   15  C11 UNL     1       7.531 -48.738  37.020  1.00  0.00     0.273 C 
ENDBRANCH  10  11
ENDBRANCH   1  10
TORSDOF 3
ENDMDL
MODEL 5
REMARK VINA RESULT: -5.426822782      1.421      1.995
REMARK  3 active torsions:
REMARK  status: ('A' for Active; 'I' for Inactive)
REMARK    1  A    between atoms: C1_1  and  C7_10 
REMARK    2  A    between atoms: C2_2  and  C3_3 
REMARK    3  A    between atoms: C7_10  and  N2_11 
ROOT
HETATM    1  C1  UNL     1       9.791 -50.086  35.817  1.00  0.00    -0.001 C 
HETATM    2  C2  UNL     1       9.907 -49.275  34.776  1.00  0.00    -0.023 C 
ENDROOT
BRANCH   2   3
HETATM    3  C3  UNL     1      10.323 -49.770  33.422  1.00  0.00     0.035 C 
HETATM    4  C4  UNL     1       9.385 -50.891  33.006  1.00  0.00     0.037 C 
HETATM    5  C5  UNL     1      10.250 -52.100  32.788  1.00  0.00     0.233 C 
HETATM    6  N1  UNL     1      11.594 -51.604  32.601  1.00  0.00    -0.074 N 
HETATM    7  C6  UNL     1      11.665 -50.428  33.472  1.00  0.00     0.240 C 
ATOM      8  H12 UNL     1      12.323 -52.297  32.772  1.00  0.00     0.277 HD
ATOM      9  H11 UNL     1      11.841 -51.421  31.628  1.00  0.00     0.277 HD
ENDBRANCH   2   3
BRANCH   1  10
HETATM   10  C7  UNL     1       9.381 -49.605  37.155  1.00  0.00     0.299 C 
BRANCH  10  11
HETATM   11  N2  UNL     1       7.932 -49.718  37.246  1.00  0.00     0.091 N 
HETATM   12  C8  UNL     1       7.533 -50.368  38.476  1.00  0.00     0.273 C 
HETATM   13  C9  UNL     1       6.422 -49.562  39.062  1.00  0.00     0.032 C 
HETATM   14  C10 UNL     1       6.817 -48.152  38.668  1.00  0.00     0.032 C 
HETATM   15  C11 UNL     1       7.312 -48.404  37.242  1.00  0.00     0.273 C 
ENDBRANCH  10  11
ENDBRANCH   1  10
TORSDOF 3
ENDMDL
