MODEL 1
REMARK VINA RESULT: -5.914342102      0.000      0.000
REMARK  3 active torsions:
REMARK  status: ('A' for Active; 'I' for Inactive)
REMARK    1  A    between atoms: C2_2  and  C3_3 
REMARK    2  A    between atoms: C3_3  and  C4_4 
REMARK    3  A    between atoms: C11_14  and  N2_15 
ROOT
HETATM    1  C4  UNL     1       8.500 -49.416  38.112  1.00  0.00     0.222 C 
HETATM    2  N1  UNL     1       9.394 -50.342  38.787  1.00  0.00    -0.068 N 
ATOM      3  H11 UNL     1       9.166 -50.526  39.763  1.00  0.00     0.277 HD
ATOM      4  H12 UNL     1      10.330 -49.979  38.971  1.00  0.00     0.277 HD
HETATM    5  C5  UNL     1       9.349 -51.494  37.927  1.00  0.00     0.240 C 
HETATM    6  C6  UNL     1       9.238 -50.978  36.502  1.00  0.00     0.049 C 
HETATM    7  C7  UNL     1      10.629 -51.061  35.902  1.00  0.00     0.009 C 
HETATM    8  C8  UNL     1      10.605 -50.392  34.550  1.00  0.00     0.001 C 
HETATM    9  C9  UNL     1      10.134 -48.972  34.704  1.00  0.00     0.002 C 
HETATM   10  C10 UNL     1       9.866 -48.627  36.156  1.00  0.00     0.041 C 
HETATM   11  C11 UNL     1       8.802 -49.562  36.637  1.00  0.00     0.157 C 
ENDROOT
BRANCH  11  12
HETATM   12  N2  UNL     1       7.580 -49.255  35.917  1.00  0.00    -0.068 N 
ATOM     13  H23 UNL     1       6.903 -50.017  35.934  1.00  0.00     0.275 HD
ATOM     14  H22 UNL     1       7.003 -48.558  36.388  1.00  0.00     0.275 HD
ATOM     15  H21 UNL     1       7.849 -48.979  34.973  1.00  0.00     0.275 HD
ENDBRANCH  11  12
BRANCH   1  16
HETATM   16  C3  UNL     1       7.092 -49.933  38.321  1.00  0.00     0.035 C 
BRANCH  16  17
HETATM   17  C2  UNL     1       6.264 -49.023  39.191  1.00  0.00    -0.002 C 
HETATM   18  C1  UNL     1       6.902 -47.660  39.253  1.00  0.00     0.005 C 
ENDBRANCH  16  17
ENDBRANCH   1  16
TORSDOF 3
ENDMDL
MODEL 2
REMARK VINA RESULT: -5.792116319      1.562      4.678
REMARK  3 active torsions:
REMARK  status: ('A' for Active; 'I' for Inactive)
REMARK    1  A    between atoms: C2_2  and  C3_3 
REMARK    2  A    between atoms: C3_3  and  C4_4 
REMARK    3  A    between atoms: C11_14  and  N2_15 
ROOT
HETATM    1  C4  UNL     1      10.805 -49.666  36.461  1.00  0.00     0.222 C 
HETATM    2  N1  UNL     1      10.566 -48.415  35.758  1.00  0.00    -0.068 N 
ATOM      3  H11 UNL     1      11.325 -48.113  35.148  1.00  0.00     0.277 HD
ATOM      4  H12 UNL     1      10.576 -47.582  36.347  1.00  0.00     0.277 HD
HETATM    5  C5  UNL     1       9.319 -48.671  35.091  1.00  0.00     0.240 C 
HETATM    6  C6  UNL     1       8.488 -49.536  36.025  1.00  0.00     0.049 C 
HETATM    7  C7  UNL     1       7.495 -48.611  36.703  1.00  0.00     0.009 C 
HETATM    8  C8  UNL     1       6.771 -49.392  37.772  1.00  0.00     0.001 C 
HETATM    9  C9  UNL     1       7.771 -49.963  38.738  1.00  0.00     0.002 C 
HETATM   10  C10 UNL     1       9.187 -49.558  38.380  1.00  0.00     0.041 C 
HETATM   11  C11 UNL     1       9.459 -50.086  37.007  1.00  0.00     0.157 C 
ENDROOT
BRANCH  11  12
HETATM   12  N2  UNL     1       9.461 -51.535  37.081  1.00  0.00    -0.068 N 
ATOM     13  H23 UNL     1       9.740 -51.980  36.206  1.00  0.00     0.275 HD
ATOM     14  H22 UNL     1      10.214 -51.905  37.661  1.00  0.00     0.275 HD
ATOM     15  H21 UNL     1       8.535 -51.821  37.397  1.00  0.00     0.275 HD
ENDBRANCH  11  12
BRANCH   1  16
HETATM   16  C3  UNL     1      11.191 -50.691  35.415  1.00  0.00     0.035 C 
BRANCH  16  17
HETATM   17  C2  UNL     1      12.472 -50.341  34.706  1.00  0.00    -0.002 C 
HETATM   18  C1  UNL     1      12.327 -50.612  33.231  1.00  0.00     0.005 C 
ENDBRANCH  16  17
ENDBRANCH   1  16
TORSDOF 3
ENDMDL
MODEL 3
REMARK VINA RESULT: -5.487304766      0.987      1.160
REMARK  3 active torsions:
REMARK  status: ('A' for Active; 'I' for Inactive)
REMARK    1  A    between atoms: C2_2  and  C3_3 
REMARK    2  A    between atoms: C3_3  and  C4_4 
REMARK    3  A    between atoms: C11_14  and  N2_15 
ROOT
HETATM    1  C4  UNL     1       9.115 -49.126  37.776  1.00  0.00     0.222 C 
HETATM    2  N1  UNL     1       9.231 -50.316  38.604  1.00  0.00    -0.068 N 
ATOM      3  H11 UNL     1       8.695 -50.291  39.471  1.00  0.00     0.277 HD
ATOM      4  H12 UNL     1      10.138 -50.441  39.053  1.00  0.00     0.277 HD
HETATM    5  C5  UNL     1       8.857 -51.363  37.692  1.00  0.00     0.240 C 
HETATM    6  C6  UNL     1       9.390 -50.968  36.324  1.00  0.00     0.049 C 
HETATM    7  C7  UNL     1      10.664 -51.762  36.111  1.00  0.00     0.009 C 
HETATM    8  C8  UNL     1      11.325 -51.271  34.847  1.00  0.00     0.001 C 
HETATM    9  C9  UNL     1      11.585 -49.795  34.960  1.00  0.00     0.002 C 
HETATM   10  C10 UNL     1      11.150 -49.253  36.308  1.00  0.00     0.041 C 
HETATM   11  C11 UNL     1       9.682 -49.514  36.429  1.00  0.00     0.157 C 
ENDROOT
BRANCH  11  12
HETATM   12  N2  UNL     1       9.003 -48.707  35.432  1.00  0.00    -0.068 N 
ATOM     13  H23 UNL     1       8.346 -49.242  34.863  1.00  0.00     0.275 HD
ATOM     14  H22 UNL     1       8.327 -48.058  35.835  1.00  0.00     0.275 HD
ATOM     15  H21 UNL     1       9.724 -48.243  34.880  1.00  0.00     0.275 HD
ENDBRANCH  11  12
BRANCH   1  16
HETATM   16  C3  UNL     1       7.635 -48.876  37.572  1.00  0.00     0.035 C 
BRANCH  16  17
HETATM   17  C2  UNL     1       7.003 -48.156  38.734  1.00  0.00    -0.002 C 
HETATM   18  C1  UNL     1       5.959 -49.036  39.370  1.00  0.00     0.005 C 
ENDBRANCH  16  17
ENDBRANCH   1  16
TORSDOF 3
ENDMDL
MODEL 4
REMARK VINA RESULT: -5.066125759      1.691      4.566
REMARK  3 active torsions:
REMARK  status: ('A' for Active; 'I' for Inactive)
REMARK    1  A    between atoms: C2_2  and  C3_3 
REMARK    2  A    between atoms: C3_3  and  C4_4 
REMARK    3  A    between atoms: C11_14  and  N2_15 
ROOT
HETATM    1  C4  UNL     1       9.519 -50.226  34.661  1.00  0.00     0.222 C 
HETATM    2  N1  UNL     1       9.690 -51.535  35.271  1.00  0.00    -0.068 N 
ATOM      3  H11 UNL     1      10.213 -52.206  34.710  1.00  0.00     0.277 HD
ATOM      4  H12 UNL     1       8.841 -52.097  35.330  1.00  0.00     0.277 HD
HETATM    5  C5  UNL     1      10.288 -51.208  36.537  1.00  0.00     0.240 C 
HETATM    6  C6  UNL     1       9.665 -49.899  36.995  1.00  0.00     0.049 C 
HETATM    7  C7  UNL     1       8.608 -50.259  38.021  1.00  0.00     0.009 C 
HETATM    8  C8  UNL     1       7.839 -49.009  38.371  1.00  0.00     0.001 C 
HETATM    9  C9  UNL     1       7.244 -48.423  37.121  1.00  0.00     0.002 C 
HETATM   10  C10 UNL     1       7.555 -49.271  35.903  1.00  0.00     0.041 C 
HETATM   11  C11 UNL     1       9.045 -49.319  35.774  1.00  0.00     0.157 C 
ENDROOT
BRANCH  11  12
HETATM   12  N2  UNL     1       9.508 -47.980  35.462  1.00  0.00    -0.068 N 
ATOM     13  H23 UNL     1       9.924 -47.504  36.262  1.00  0.00     0.275 HD
ATOM     14  H22 UNL     1      10.333 -47.973  34.862  1.00  0.00     0.275 HD
ATOM     15  H21 UNL     1       8.718 -47.475  35.062  1.00  0.00     0.275 HD
ENDBRANCH  11  12
BRANCH   1  16
HETATM   16  C3  UNL     1      10.898 -49.744  34.263  1.00  0.00     0.035 C 
BRANCH  16  17
HETATM   17  C2  UNL     1      11.478 -50.528  33.115  1.00  0.00    -0.002 C 
HETATM   18  C1  UNL     1      12.979 -50.563  33.230  1.00  0.00     0.005 C 
ENDBRANCH  16  17
ENDBRANCH   1  16
TORSDOF 3
ENDMDL
MODEL 5
REMARK VINA RESULT: -5.046859861      1.439      4.217
REMARK  3 active torsions:
REMARK  status: ('A' for Active; 'I' for Inactive)
REMARK    1  A    between atoms: C2_2  and  C3_3 
REMARK    2  A    between atoms: C3_3  and  C4_4 
REMARK    3  A    between atoms: C11_14  and  N2_15 
ROOT
HETATM    1  C4  UNL     1       9.755 -50.363  35.793  1.00  0.00     0.222 C 
HETATM    2  N1  UNL     1       9.643 -51.591  36.564  1.00  0.00    -0.068 N 
ATOM      3  H11 UNL     1      10.302 -52.324  36.305  1.00  0.00     0.277 HD
ATOM      4  H12 UNL     1       8.805 -52.142  36.377  1.00  0.00     0.277 HD
HETATM    5  C5  UNL     1       9.765 -51.116  37.916  1.00  0.00     0.240 C 
HETATM    6  C6  UNL     1       9.076 -49.762  37.973  1.00  0.00     0.049 C 
HETATM    7  C7  UNL     1       7.710 -49.998  38.587  1.00  0.00     0.009 C 
HETATM    8  C8  UNL     1       6.920 -48.716  38.497  1.00  0.00     0.001 C 
HETATM    9  C9  UNL     1       6.833 -48.281  37.061  1.00  0.00     0.002 C 
HETATM   10  C10 UNL     1       7.520 -49.268  36.137  1.00  0.00     0.041 C 
HETATM   11  C11 UNL     1       8.955 -49.331  36.555  1.00  0.00     0.157 C 
ENDROOT
BRANCH  11  12
HETATM   12  N2  UNL     1       9.555 -48.038  36.283  1.00  0.00    -0.068 N 
ATOM     13  H23 UNL     1      10.339 -48.090  35.631  1.00  0.00     0.275 HD
ATOM     14  H22 UNL     1       8.959 -47.431  35.721  1.00  0.00     0.275 HD
ATOM     15  H21 UNL     1       9.809 -47.630  37.182  1.00  0.00     0.275 HD
ENDBRANCH  11  12
BRANCH   1  16
HETATM   16  C3  UNL     1      11.205 -49.931  35.863  1.00  0.00     0.035 C 
BRANCH  16  17
HETATM   17  C2  UNL     1      11.967 -50.252  34.604  1.00  0.00    -0.002 C 
HETATM   18  C1  UNL     1      11.045 -50.166  33.416  1.00  0.00     0.005 C 
ENDBRANCH  16  17
ENDBRANCH   1  16
TORSDOF 3
ENDMDL
