MODEL 1
REMARK VINA RESULT: -6.305868186      0.000      0.000
REMARK  3 active torsions:
REMARK  status: ('A' for Active; 'I' for Inactive)
REMARK    1  A    between atoms: N1_2  and  C2_5 
REMARK    2  A    between atoms: C2_5  and  C3_6 
REMARK    3  A    between atoms: C3_6  and  C4_7 
ROOT
HETATM    1  C4  UNL     1       9.395 -50.941  36.734  1.00  0.00     0.018 C 
HETATM    2  C5  UNL     1       9.384 -51.596  38.116  1.00  0.00     0.009 C 
HETATM    3  C6  UNL     1       7.976 -51.339  38.656  1.00  0.00     0.033 C 
HETATM    4  C7  UNL     1       7.789 -49.867  38.844  1.00  0.00     0.186 C 
HETATM    5  C8  UNL     1       6.458 -49.426  38.282  1.00  0.00     0.033 C 
HETATM    6  C9  UNL     1       6.760 -48.471  37.122  1.00  0.00     0.004 C 
HETATM    7  C10 UNL     1       7.743 -49.135  36.197  1.00  0.00     0.033 C 
HETATM    8  C11 UNL     1       9.041 -49.490  36.860  1.00  0.00     0.190 C 
HETATM    9  N2  UNL     1       8.906 -49.145  38.279  1.00  0.00    -0.066 N 
ATOM     10  H21 UNL     1       9.770 -49.302  38.798  1.00  0.00     0.278 HD
ATOM     11  H22 UNL     1       8.829 -48.139  38.426  1.00  0.00     0.278 HD
ENDROOT
BRANCH   1  12
HETATM   12  C3  UNL     1      10.682 -51.202  35.999  1.00  0.00     0.034 C 
BRANCH  12  13
HETATM   13  C2  UNL     1      11.383 -49.954  35.567  1.00  0.00     0.232 C 
BRANCH  13  14
HETATM   14  N1  UNL     1      12.677 -50.274  35.008  1.00  0.00    -0.079 N 
HETATM   15  C1  UNL     1      12.664 -50.556  33.603  1.00  0.00     0.266 C 
ATOM     16  H12 UNL     1      13.104 -51.044  35.521  1.00  0.00     0.276 HD
ATOM     17  H11 UNL     1      13.346 -49.532  35.216  1.00  0.00     0.276 HD
ENDBRANCH  13  14
ENDBRANCH  12  13
ENDBRANCH   1  12
TORSDOF 3
ENDMDL
MODEL 2
REMARK VINA RESULT: -5.921405915      1.278      1.352
REMARK  3 active torsions:
REMARK  status: ('A' for Active; 'I' for Inactive)
REMARK    1  A    between atoms: N1_2  and  C2_5 
REMARK    2  A    between atoms: C2_5  and  C3_6 
REMARK    3  A    between atoms: C3_6  and  C4_7 
ROOT
HETATM    1  C4  UNL     1       9.443 -50.622  36.700  1.00  0.00     0.018 C 
HETATM    2  C5  UNL     1       9.508 -51.409  38.009  1.00  0.00     0.009 C 
HETATM    3  C6  UNL     1       8.071 -51.414  38.531  1.00  0.00     0.033 C 
HETATM    4  C7  UNL     1       7.668 -50.011  38.859  1.00  0.00     0.186 C 
HETATM    5  C8  UNL     1       6.295 -49.711  38.306  1.00  0.00     0.033 C 
HETATM    6  C9  UNL     1       6.470 -48.609  37.255  1.00  0.00     0.004 C 
HETATM    7  C10 UNL     1       7.553 -49.027  36.298  1.00  0.00     0.033 C 
HETATM    8  C11 UNL     1       8.879 -49.257  36.959  1.00  0.00     0.190 C 
HETATM    9  N2  UNL     1       8.675 -49.082  38.400  1.00  0.00    -0.066 N 
ATOM     10  H21 UNL     1       9.546 -49.166  38.926  1.00  0.00     0.278 HD
ATOM     11  H22 UNL     1       8.450 -48.118  38.644  1.00  0.00     0.278 HD
ENDROOT
BRANCH   1  12
HETATM   12  C3  UNL     1      10.764 -50.618  35.980  1.00  0.00     0.034 C 
BRANCH  12  13
HETATM   13  C2  UNL     1      10.947 -51.789  35.068  1.00  0.00     0.232 C 
BRANCH  13  14
HETATM   14  N1  UNL     1       9.868 -51.849  34.108  1.00  0.00    -0.079 N 
HETATM   15  C1  UNL     1       9.958 -50.886  33.050  1.00  0.00     0.266 C 
ATOM     16  H12 UNL     1       8.968 -51.773  34.581  1.00  0.00     0.276 HD
ATOM     17  H11 UNL     1       9.785 -52.791  33.725  1.00  0.00     0.276 HD
ENDBRANCH  13  14
ENDBRANCH  12  13
ENDBRANCH   1  12
TORSDOF 3
ENDMDL
MODEL 3
REMARK VINA RESULT: -5.744178835      1.831      2.162
REMARK  3 active torsions:
REMARK  status: ('A' for Active; 'I' for Inactive)
REMARK    1  A    between atoms: N1_2  and  C2_5 
REMARK    2  A    between atoms: C2_5  and  C3_6 
REMARK    3  A    between atoms: C3_6  and  C4_7 
ROOT
HETATM    1  C4  UNL     1       9.304 -49.788  35.758  1.00  0.00     0.018 C 
HETATM    2  C5  UNL     1      10.296 -50.703  36.478  1.00  0.00     0.009 C 
HETATM    3  C6  UNL     1       9.461 -51.420  37.540  1.00  0.00     0.033 C 
HETATM    4  C7  UNL     1       8.963 -50.415  38.529  1.00  0.00     0.186 C 
HETATM    5  C8  UNL     1       7.496 -50.634  38.814  1.00  0.00     0.033 C 
HETATM    6  C9  UNL     1       6.756 -49.387  38.316  1.00  0.00     0.004 C 
HETATM    7  C10 UNL     1       7.177 -49.113  36.899  1.00  0.00     0.033 C 
HETATM    8  C11 UNL     1       8.650 -48.873  36.749  1.00  0.00     0.190 C 
HETATM    9  N2  UNL     1       9.254 -49.076  38.070  1.00  0.00    -0.066 N 
ATOM     10  H21 UNL     1      10.254 -48.876  38.071  1.00  0.00     0.278 HD
ATOM     11  H22 UNL     1       8.962 -48.366  38.741  1.00  0.00     0.278 HD
ENDROOT
BRANCH   1  12
HETATM   12  C3  UNL     1       9.936 -49.084  34.589  1.00  0.00     0.034 C 
BRANCH  12  13
HETATM   13  C2  UNL     1      10.266 -49.999  33.453  1.00  0.00     0.232 C 
BRANCH  13  14
HETATM   14  N1  UNL     1       9.143 -50.861  33.162  1.00  0.00    -0.079 N 
HETATM   15  C1  UNL     1       9.482 -52.243  32.991  1.00  0.00     0.266 C 
ATOM     16  H12 UNL     1       8.633 -50.517  32.348  1.00  0.00     0.276 HD
ATOM     17  H11 UNL     1       8.421 -50.758  33.876  1.00  0.00     0.276 HD
ENDBRANCH  13  14
ENDBRANCH  12  13
ENDBRANCH   1  12
TORSDOF 3
ENDMDL
MODEL 4
REMARK VINA RESULT: -5.430784237      1.417      1.657
REMARK  3 active torsions:
REMARK  status: ('A' for Active; 'I' for Inactive)
REMARK    1  A    between atoms: N1_2  and  C2_5 
REMARK    2  A    between atoms: C2_5  and  C3_6 
REMARK    3  A    between atoms: C3_6  and  C4_7 
ROOT
HETATM    1  C4  UNL     1       9.123 -50.222  35.608  1.00  0.00     0.018 C 
HETATM    2  C5  UNL     1      10.038 -51.103  36.458  1.00  0.00     0.009 C 
HETATM    3  C6  UNL     1       9.194 -51.480  37.676  1.00  0.00     0.033 C 
HETATM    4  C7  UNL     1       8.892 -50.243  38.461  1.00  0.00     0.186 C 
HETATM    5  C8  UNL     1       7.431 -50.201  38.843  1.00  0.00     0.033 C 
HETATM    6  C9  UNL     1       6.821 -48.987  38.134  1.00  0.00     0.004 C 
HETATM    7  C10 UNL     1       7.178 -49.054  36.674  1.00  0.00     0.033 C 
HETATM    8  C11 UNL     1       8.656 -49.050  36.419  1.00  0.00     0.190 C 
HETATM    9  N2  UNL     1       9.317 -49.072  37.728  1.00  0.00    -0.066 N 
ATOM     10  H21 UNL     1      10.332 -49.013  37.649  1.00  0.00     0.278 HD
ATOM     11  H22 UNL     1       9.161 -48.212  38.253  1.00  0.00     0.278 HD
ENDROOT
BRANCH   1  12
HETATM   12  C3  UNL     1       9.759 -49.852  34.296  1.00  0.00     0.034 C 
BRANCH  12  13
HETATM   13  C2  UNL     1       9.864 -50.999  33.343  1.00  0.00     0.232 C 
BRANCH  13  14
HETATM   14  N1  UNL     1      11.212 -51.103  32.832  1.00  0.00    -0.079 N 
HETATM   15  C1  UNL     1      12.198 -50.408  33.607  1.00  0.00     0.266 C 
ATOM     16  H12 UNL     1      11.247 -50.800  31.859  1.00  0.00     0.276 HD
ATOM     17  H11 UNL     1      11.475 -52.083  32.720  1.00  0.00     0.276 HD
ENDBRANCH  13  14
ENDBRANCH  12  13
ENDBRANCH   1  12
TORSDOF 3
ENDMDL
MODEL 5
REMARK VINA RESULT: -5.387030633      1.617      5.299
REMARK  3 active torsions:
REMARK  status: ('A' for Active; 'I' for Inactive)
REMARK    1  A    between atoms: N1_2  and  C2_5 
REMARK    2  A    between atoms: C2_5  and  C3_6 
REMARK    3  A    between atoms: C3_6  and  C4_7 
ROOT
HETATM    1  C4  UNL     1       9.002 -49.591  36.198  1.00  0.00     0.018 C 
HETATM    2  C5  UNL     1       9.432 -48.384  35.363  1.00  0.00     0.009 C 
HETATM    3  C6  UNL     1      10.192 -48.983  34.178  1.00  0.00     0.033 C 
HETATM    4  C7  UNL     1      11.429 -49.656  34.683  1.00  0.00     0.186 C 
HETATM    5  C8  UNL     1      11.586 -51.019  34.052  1.00  0.00     0.033 C 
HETATM    6  C9  UNL     1      11.478 -52.047  35.182  1.00  0.00     0.004 C 
HETATM    7  C10 UNL     1      10.230 -51.764  35.972  1.00  0.00     0.033 C 
HETATM    8  C11 UNL     1      10.208 -50.394  36.583  1.00  0.00     0.190 C 
HETATM    9  N2  UNL     1      11.417 -49.702  36.127  1.00  0.00    -0.066 N 
ATOM     10  H21 UNL     1      11.512 -48.776  36.544  1.00  0.00     0.278 HD
ATOM     11  H22 UNL     1      12.267 -50.120  36.506  1.00  0.00     0.278 HD
ENDROOT
BRANCH   1  12
HETATM   12  C3  UNL     1       8.129 -49.190  37.356  1.00  0.00     0.034 C 
BRANCH  12  13
HETATM   13  C2  UNL     1       6.728 -48.859  36.957  1.00  0.00     0.232 C 
BRANCH  13  14
HETATM   14  N1  UNL     1       5.798 -49.320  37.963  1.00  0.00    -0.079 N 
HETATM   15  C1  UNL     1       6.153 -48.970  39.307  1.00  0.00     0.266 C 
ATOM     16  H12 UNL     1       5.660 -50.327  37.883  1.00  0.00     0.276 HD
ATOM     17  H11 UNL     1       4.854 -48.997  37.749  1.00  0.00     0.276 HD
ENDBRANCH  13  14
ENDBRANCH  12  13
ENDBRANCH   1  12
TORSDOF 3
ENDMDL
