MODEL 1
REMARK VINA RESULT: -8.070708422      0.000      0.000
REMARK  12 active torsions:
REMARK  status: ('A' for Active; 'I' for Inactive)
REMARK    1  A    between atoms: N1_1  and  N2_4 
REMARK    2  A    between atoms: N2_4  and  N3_6 
REMARK    3  A    between atoms: C1_9  and  C2_10 
REMARK       I    between atoms: C2_10  and  N5_12 
REMARK    4  A    between atoms: N5_12  and  N6_14 
REMARK    5  A    between atoms: C3_16  and  C4_17 
REMARK    6  A    between atoms: C4_17  and  O2_18 
REMARK    7  A    between atoms: N7_20  and  N8_22 
REMARK    8  A    between atoms: N8_22  and  C5_24 
REMARK    9  A    between atoms: C7_28  and  N10_29 
REMARK   10  A    between atoms: C8_32  and  O5_33 
REMARK   11  A    between atoms: C10_37  and  O6_38 
REMARK   12  A    between atoms: C11_40  and  O7_41 
ROOT
HETATM    1  N6  UNL     1      11.066  -4.188  -2.430  1.00  0.00    -0.305 N 
ATOM      2  H6  UNL     1      10.497  -3.727  -1.721  1.00  0.00     0.186 HD
HETATM    3  C3  UNL     1      12.157  -3.641  -2.827  1.00  0.00     0.164 C 
ENDROOT
BRANCH   1   4
HETATM    4  N5  UNL     1      10.645  -5.434  -2.974  1.00  0.00    -0.265 N 
HETATM    5  C2  UNL     1      11.087  -6.628  -2.379  1.00  0.00     0.291 C 
HETATM    6  O1  UNL     1      11.853  -6.543  -1.360  1.00  0.00    -0.264 OA
ATOM      7  H5  UNL     1      10.029  -5.460  -3.785  1.00  0.00     0.190 HD
BRANCH   5   8
HETATM    8  C1  UNL     1      10.706  -7.942  -2.885  1.00  0.00     0.157 A 
HETATM    9  N4  UNL     1       9.667  -8.184  -3.737  1.00  0.00    -0.268 N 
HETATM   10  N3  UNL     1       9.580  -9.467  -3.988  1.00  0.00    -0.155 N 
ATOM     11  H4  UNL     1       9.049  -7.471  -4.123  1.00  0.00     0.189 HD
HETATM   12  C11 UNL     1      10.544 -10.119  -3.324  1.00  0.00     0.217 A 
HETATM   13  C10 UNL     1      11.272  -9.158  -2.614  1.00  0.00     0.154 A 
BRANCH  10  14
HETATM   14  N2  UNL     1       8.620 -10.077  -4.817  1.00  0.00    -0.226 N 
ATOM     15  H2  UNL     1       8.254  -9.566  -5.620  1.00  0.00     0.210 HD
BRANCH  14  16
HETATM   16  N1  UNL     1       8.159 -11.372  -4.557  1.00  0.00    -0.329 N 
ATOM     17  H12 UNL     1       7.501 -11.509  -3.790  1.00  0.00     0.178 HD
ATOM     18  H11 UNL     1       8.469 -12.164  -5.119  1.00  0.00     0.178 HD
ENDBRANCH  14  16
ENDBRANCH  10  14
BRANCH  12  19
HETATM   19  O7  UNL     1      10.792 -11.477  -3.323  1.00  0.00    -0.342 OA
ATOM     20  H7  UNL     1      11.350 -11.963  -2.727  1.00  0.00     0.219 HD
ENDBRANCH  12  19
BRANCH  13  21
HETATM   21  O6  UNL     1      12.358  -9.464  -1.804  1.00  0.00    -0.355 OA
ATOM     22  H6  UNL     1      12.414 -10.068  -1.073  1.00  0.00     0.218 HD
ENDBRANCH  13  21
ENDBRANCH   5   8
ENDBRANCH   1   4
BRANCH   3  23
HETATM   23  C4  UNL     1      12.601  -2.386  -2.295  1.00  0.00     0.172 C 
HETATM   24  N7  UNL     1      13.783  -2.042  -1.993  1.00  0.00    -0.278 N 
ATOM     25  H7  UNL     1      13.889  -1.097  -1.626  1.00  0.00     0.189 HD
BRANCH  23  26
HETATM   26  O2  UNL     1      11.593  -1.412  -2.083  1.00  0.00    -0.344 OA
ATOM     27  H2  UNL     1      11.859  -0.508  -2.200  1.00  0.00     0.219 HD
ENDBRANCH  23  26
BRANCH  24  28
HETATM   28  N8  UNL     1      14.950  -2.782  -2.098  1.00  0.00    -0.287 N 
ATOM     29  H8  UNL     1      15.217  -3.407  -1.338  1.00  0.00     0.188 HD
BRANCH  28  30
HETATM   30  C5  UNL     1      15.787  -2.686  -3.257  1.00  0.00     0.095 C 
HETATM   31  N9  UNL     1      15.492  -1.871  -4.184  1.00  0.00    -0.376 N 
HETATM   32  C6  UNL     1      16.260  -1.690  -5.389  1.00  0.00     0.156 C 
ATOM     33  H9  UNL     1      14.653  -1.305  -4.067  1.00  0.00     0.160 HD
HETATM   34  C7  UNL     1      17.600  -2.348  -5.388  1.00  0.00     0.219 C 
HETATM   35  C8  UNL     1      17.455  -3.740  -4.760  1.00  0.00     0.150 C 
HETATM   36  S1  UNL     1      19.021  -4.621  -4.706  1.00  0.00    -0.053 SA
HETATM   37  C9  UNL     1      16.976  -3.534  -3.347  1.00  0.00     0.130 C 
BRANCH  34  38
HETATM   38  N10 UNL     1      18.105  -2.471  -6.746  1.00  0.00    -0.145 N 
HETATM   39  O3  UNL     1      17.377  -2.922  -7.647  1.00  0.00    -0.536 OA
HETATM   40  O4  UNL     1      19.386  -2.094  -7.076  1.00  0.00    -0.536 OA
ENDBRANCH  34  38
BRANCH  35  41
HETATM   41  O5  UNL     1      16.509  -4.402  -5.542  1.00  0.00    -0.376 OA
ATOM     42  H5  UNL     1      15.666  -4.079  -5.245  1.00  0.00     0.211 HD
ENDBRANCH  35  41
ENDBRANCH  28  30
ENDBRANCH  24  28
ENDBRANCH   3  23
TORSDOF 12
ENDMDL
MODEL 2
REMARK VINA RESULT: -8.032221071      1.939      2.192
REMARK  12 active torsions:
REMARK  status: ('A' for Active; 'I' for Inactive)
REMARK    1  A    between atoms: N1_1  and  N2_4 
REMARK    2  A    between atoms: N2_4  and  N3_6 
REMARK    3  A    between atoms: C1_9  and  C2_10 
REMARK       I    between atoms: C2_10  and  N5_12 
REMARK    4  A    between atoms: N5_12  and  N6_14 
REMARK    5  A    between atoms: C3_16  and  C4_17 
REMARK    6  A    between atoms: C4_17  and  O2_18 
REMARK    7  A    between atoms: N7_20  and  N8_22 
REMARK    8  A    between atoms: N8_22  and  C5_24 
REMARK    9  A    between atoms: C7_28  and  N10_29 
REMARK   10  A    between atoms: C8_32  and  O5_33 
REMARK   11  A    between atoms: C10_37  and  O6_38 
REMARK   12  A    between atoms: C11_40  and  O7_41 
ROOT
HETATM    1  N6  UNL     1      11.122  -3.529  -2.302  1.00  0.00    -0.305 N 
ATOM      2  H6  UNL     1      10.851  -3.281  -1.351  1.00  0.00     0.186 HD
HETATM    3  C3  UNL     1      11.841  -2.721  -2.991  1.00  0.00     0.164 C 
ENDROOT
BRANCH   1   4
HETATM    4  N5  UNL     1      10.700  -4.770  -2.856  1.00  0.00    -0.265 N 
HETATM    5  C2  UNL     1      11.167  -5.969  -2.291  1.00  0.00     0.291 C 
HETATM    6  O1  UNL     1      11.956  -5.893  -1.289  1.00  0.00    -0.264 OA
ATOM      7  H5  UNL     1      10.066  -4.790  -3.654  1.00  0.00     0.190 HD
BRANCH   5   8
HETATM    8  C1  UNL     1      10.788  -7.279  -2.810  1.00  0.00     0.157 A 
HETATM    9  N4  UNL     1      11.366  -8.462  -2.454  1.00  0.00    -0.268 N 
HETATM   10  N3  UNL     1      10.810  -9.451  -3.108  1.00  0.00    -0.155 N 
ATOM     11  H4  UNL     1      12.122  -8.562  -1.776  1.00  0.00     0.189 HD
HETATM   12  C11 UNL     1       9.852  -8.972  -3.914  1.00  0.00     0.217 A 
HETATM   13  C10 UNL     1       9.825  -7.584  -3.735  1.00  0.00     0.154 A 
BRANCH  10  14
HETATM   14  N2  UNL     1      11.164 -10.809  -2.998  1.00  0.00    -0.226 N 
ATOM     15  H2  UNL     1      12.148 -11.068  -2.942  1.00  0.00     0.210 HD
BRANCH  14  16
HETATM   16  N1  UNL     1      10.186 -11.810  -2.963  1.00  0.00    -0.329 N 
ATOM     17  H12 UNL     1       9.442 -11.787  -3.661  1.00  0.00     0.178 HD
ATOM     18  H11 UNL     1      10.213 -12.547  -2.260  1.00  0.00     0.178 HD
ENDBRANCH  14  16
ENDBRANCH  10  14
BRANCH  12  19
HETATM   19  O7  UNL     1       9.035  -9.688  -4.766  1.00  0.00    -0.342 OA
ATOM     20  H7  UNL     1       8.120  -9.909  -4.639  1.00  0.00     0.219 HD
ENDBRANCH  12  19
BRANCH  13  21
HETATM   21  O6  UNL     1       8.952  -6.742  -4.410  1.00  0.00    -0.355 OA
ATOM     22  H6  UNL     1       8.003  -6.767  -4.455  1.00  0.00     0.218 HD
ENDBRANCH  13  21
ENDBRANCH   5   8
ENDBRANCH   1   4
BRANCH   3  23
HETATM   23  C4  UNL     1      12.277  -1.464  -2.454  1.00  0.00     0.172 C 
HETATM   24  N7  UNL     1      13.052  -0.616  -2.988  1.00  0.00    -0.278 N 
ATOM     25  H7  UNL     1      13.240   0.222  -2.437  1.00  0.00     0.189 HD
BRANCH  23  26
HETATM   26  O2  UNL     1      11.777  -1.133  -1.170  1.00  0.00    -0.344 OA
ATOM     27  H2  UNL     1      12.030  -0.281  -0.833  1.00  0.00     0.219 HD
ENDBRANCH  23  26
BRANCH  24  28
HETATM   28  N8  UNL     1      13.678  -0.677  -4.224  1.00  0.00    -0.287 N 
ATOM     29  H8  UNL     1      13.236  -0.239  -5.032  1.00  0.00     0.188 HD
BRANCH  28  30
HETATM   30  C5  UNL     1      14.935  -1.346  -4.385  1.00  0.00     0.095 C 
HETATM   31  N9  UNL     1      15.289  -1.758  -5.530  1.00  0.00    -0.376 N 
HETATM   32  C6  UNL     1      16.528  -2.440  -5.808  1.00  0.00     0.156 C 
ATOM     33  H9  UNL     1      14.653  -1.595  -6.310  1.00  0.00     0.160 HD
HETATM   34  C7  UNL     1      17.522  -2.420  -4.696  1.00  0.00     0.219 C 
HETATM   35  C8  UNL     1      16.777  -2.666  -3.377  1.00  0.00     0.150 C 
HETATM   36  S1  UNL     1      17.888  -2.658  -1.964  1.00  0.00    -0.053 SA
HETATM   37  C9  UNL     1      15.792  -1.539  -3.214  1.00  0.00     0.130 C 
BRANCH  34  38
HETATM   38  N10 UNL     1      18.526  -3.453  -4.894  1.00  0.00    -0.145 N 
HETATM   39  O3  UNL     1      18.182  -4.622  -5.141  1.00  0.00    -0.536 OA
HETATM   40  O4  UNL     1      19.871  -3.176  -4.819  1.00  0.00    -0.536 OA
ENDBRANCH  34  38
BRANCH  35  41
HETATM   41  O5  UNL     1      16.142  -3.898  -3.536  1.00  0.00    -0.376 OA
ATOM     42  H5  UNL     1      16.791  -4.466  -3.934  1.00  0.00     0.211 HD
ENDBRANCH  35  41
ENDBRANCH  28  30
ENDBRANCH  24  28
ENDBRANCH   3  23
TORSDOF 12
ENDMDL
MODEL 3
REMARK VINA RESULT: -7.991477934      1.913      2.339
REMARK  12 active torsions:
REMARK  status: ('A' for Active; 'I' for Inactive)
REMARK    1  A    between atoms: N1_1  and  N2_4 
REMARK    2  A    between atoms: N2_4  and  N3_6 
REMARK    3  A    between atoms: C1_9  and  C2_10 
REMARK       I    between atoms: C2_10  and  N5_12 
REMARK    4  A    between atoms: N5_12  and  N6_14 
REMARK    5  A    between atoms: C3_16  and  C4_17 
REMARK    6  A    between atoms: C4_17  and  O2_18 
REMARK    7  A    between atoms: N7_20  and  N8_22 
REMARK    8  A    between atoms: N8_22  and  C5_24 
REMARK    9  A    between atoms: C7_28  and  N10_29 
REMARK   10  A    between atoms: C8_32  and  O5_33 
REMARK   11  A    between atoms: C10_37  and  O6_38 
REMARK   12  A    between atoms: C11_40  and  O7_41 
ROOT
HETATM    1  N6  UNL     1      11.055  -3.411  -2.274  1.00  0.00    -0.305 N 
ATOM      2  H6  UNL     1      10.643  -3.098  -1.395  1.00  0.00     0.186 HD
HETATM    3  C3  UNL     1      11.918  -2.674  -2.871  1.00  0.00     0.164 C 
ENDROOT
BRANCH   1   4
HETATM    4  N5  UNL     1      10.667  -4.662  -2.830  1.00  0.00    -0.265 N 
HETATM    5  C2  UNL     1      11.167  -5.848  -2.268  1.00  0.00     0.291 C 
HETATM    6  O1  UNL     1      11.954  -5.752  -1.265  1.00  0.00    -0.264 OA
ATOM      7  H5  UNL     1      10.033  -4.697  -3.628  1.00  0.00     0.190 HD
BRANCH   5   8
HETATM    8  C1  UNL     1      10.823  -7.167  -2.789  1.00  0.00     0.157 A 
HETATM    9  N4  UNL     1      11.411  -8.339  -2.409  1.00  0.00    -0.268 N 
HETATM   10  N3  UNL     1      10.890  -9.341  -3.072  1.00  0.00    -0.155 N 
ATOM     11  H4  UNL     1      12.149  -8.422  -1.710  1.00  0.00     0.189 HD
HETATM   12  C11 UNL     1       9.947  -8.882  -3.907  1.00  0.00     0.217 A 
HETATM   13  C10 UNL     1       9.893  -7.494  -3.738  1.00  0.00     0.154 A 
BRANCH  10  14
HETATM   14  N2  UNL     1      11.262 -10.692  -2.943  1.00  0.00    -0.226 N 
ATOM     15  H2  UNL     1      12.245 -10.931  -2.814  1.00  0.00     0.210 HD
BRANCH  14  16
HETATM   16  N1  UNL     1      10.306 -11.712  -2.990  1.00  0.00    -0.329 N 
ATOM     17  H12 UNL     1       9.360 -11.507  -2.668  1.00  0.00     0.178 HD
ATOM     18  H11 UNL     1      10.544 -12.641  -3.336  1.00  0.00     0.178 HD
ENDBRANCH  14  16
ENDBRANCH  10  14
BRANCH  12  19
HETATM   19  O7  UNL     1       9.166  -9.616  -4.777  1.00  0.00    -0.342 OA
ATOM     20  H7  UNL     1       8.522 -10.279  -4.557  1.00  0.00     0.219 HD
ENDBRANCH  12  19
BRANCH  13  21
HETATM   21  O6  UNL     1       9.025  -6.670  -4.442  1.00  0.00    -0.355 OA
ATOM     22  H6  UNL     1       9.215  -5.900  -4.966  1.00  0.00     0.218 HD
ENDBRANCH  13  21
ENDBRANCH   5   8
ENDBRANCH   1   4
BRANCH   3  23
HETATM   23  C4  UNL     1      12.324  -1.408  -2.330  1.00  0.00     0.172 C 
HETATM   24  N7  UNL     1      13.110  -0.558  -2.843  1.00  0.00    -0.278 N 
ATOM     25  H7  UNL     1      13.271   0.286  -2.294  1.00  0.00     0.189 HD
BRANCH  23  26
HETATM   26  O2  UNL     1      11.773  -1.070  -1.069  1.00  0.00    -0.344 OA
ATOM     27  H2  UNL     1      12.202  -1.452  -0.313  1.00  0.00     0.219 HD
ENDBRANCH  23  26
BRANCH  24  28
HETATM   28  N8  UNL     1      13.782  -0.625  -4.054  1.00  0.00    -0.287 N 
ATOM     29  H8  UNL     1      13.459  -0.061  -4.839  1.00  0.00     0.188 HD
BRANCH  28  30
HETATM   30  C5  UNL     1      14.924  -1.475  -4.221  1.00  0.00     0.095 C 
HETATM   31  N9  UNL     1      15.828  -1.501  -3.332  1.00  0.00    -0.376 N 
HETATM   32  C6  UNL     1      17.015  -2.315  -3.396  1.00  0.00     0.156 C 
ATOM     33  H9  UNL     1      15.706  -0.904  -2.515  1.00  0.00     0.160 HD
HETATM   34  C7  UNL     1      17.015  -3.348  -4.473  1.00  0.00     0.219 C 
HETATM   35  C8  UNL     1      16.434  -2.719  -5.746  1.00  0.00     0.150 C 
HETATM   36  S1  UNL     1      16.385  -3.886  -7.112  1.00  0.00    -0.053 SA
HETATM   37  C9  UNL     1      15.023  -2.303  -5.424  1.00  0.00     0.130 C 
BRANCH  34  38
HETATM   38  N10 UNL     1      18.367  -3.815  -4.728  1.00  0.00    -0.145 N 
HETATM   39  O3  UNL     1      18.634  -5.028  -4.663  1.00  0.00    -0.536 OA
HETATM   40  O4  UNL     1      19.384  -2.945  -5.049  1.00  0.00    -0.536 OA
ENDBRANCH  34  38
BRANCH  35  41
HETATM   41  O5  UNL     1      17.253  -1.623  -6.023  1.00  0.00    -0.376 OA
ATOM     42  H5  UNL     1      16.800  -1.136  -6.702  1.00  0.00     0.211 HD
ENDBRANCH  35  41
ENDBRANCH  28  30
ENDBRANCH  24  28
ENDBRANCH   3  23
TORSDOF 12
ENDMDL
MODEL 4
REMARK VINA RESULT: -7.923798620      1.445      1.582
REMARK  12 active torsions:
REMARK  status: ('A' for Active; 'I' for Inactive)
REMARK    1  A    between atoms: N1_1  and  N2_4 
REMARK    2  A    between atoms: N2_4  and  N3_6 
REMARK    3  A    between atoms: C1_9  and  C2_10 
REMARK       I    between atoms: C2_10  and  N5_12 
REMARK    4  A    between atoms: N5_12  and  N6_14 
REMARK    5  A    between atoms: C3_16  and  C4_17 
REMARK    6  A    between atoms: C4_17  and  O2_18 
REMARK    7  A    between atoms: N7_20  and  N8_22 
REMARK    8  A    between atoms: N8_22  and  C5_24 
REMARK    9  A    between atoms: C7_28  and  N10_29 
REMARK   10  A    between atoms: C8_32  and  O5_33 
REMARK   11  A    between atoms: C10_37  and  O6_38 
REMARK   12  A    between atoms: C11_40  and  O7_41 
ROOT
HETATM    1  N6  UNL     1      11.044  -3.656  -2.341  1.00  0.00    -0.305 N 
ATOM      2  H6  UNL     1      10.754  -3.397  -1.397  1.00  0.00     0.186 HD
HETATM    3  C3  UNL     1      11.768  -2.850  -3.027  1.00  0.00     0.164 C 
ENDROOT
BRANCH   1   4
HETATM    4  N5  UNL     1      10.641  -4.907  -2.885  1.00  0.00    -0.265 N 
HETATM    5  C2  UNL     1      11.097  -6.094  -2.288  1.00  0.00     0.291 C 
HETATM    6  O1  UNL     1      11.857  -5.999  -1.266  1.00  0.00    -0.264 OA
ATOM      7  H5  UNL     1      10.030  -4.942  -3.700  1.00  0.00     0.190 HD
BRANCH   5   8
HETATM    8  C1  UNL     1      10.735  -7.414  -2.796  1.00  0.00     0.157 A 
HETATM    9  N4  UNL     1       9.763  -7.660  -3.721  1.00  0.00    -0.268 N 
HETATM   10  N3  UNL     1       9.675  -8.946  -3.952  1.00  0.00    -0.155 N 
ATOM     11  H4  UNL     1       9.188  -6.946  -4.168  1.00  0.00     0.189 HD
HETATM   12  C11 UNL     1      10.574  -9.598  -3.201  1.00  0.00     0.217 A 
HETATM   13  C10 UNL     1      11.260  -8.632  -2.456  1.00  0.00     0.154 A 
BRANCH  10  14
HETATM   14  N2  UNL     1       8.773  -9.560  -4.841  1.00  0.00    -0.226 N 
ATOM     15  H2  UNL     1       8.457  -9.051  -5.666  1.00  0.00     0.210 HD
BRANCH  14  16
HETATM   16  N1  UNL     1       8.303 -10.858  -4.612  1.00  0.00    -0.329 N 
ATOM     17  H12 UNL     1       8.604 -11.342  -3.766  1.00  0.00     0.178 HD
ATOM     18  H11 UNL     1       7.673 -11.314  -5.271  1.00  0.00     0.178 HD
ENDBRANCH  14  16
ENDBRANCH  10  14
BRANCH  12  19
HETATM   19  O7  UNL     1      10.799 -10.959  -3.153  1.00  0.00    -0.342 OA
ATOM     20  H7  UNL     1      10.550 -11.562  -2.462  1.00  0.00     0.219 HD
ENDBRANCH  12  19
BRANCH  13  21
HETATM   21  O6  UNL     1      12.274  -8.936  -1.558  1.00  0.00    -0.355 OA
ATOM     22  H6  UNL     1      12.507  -9.771  -1.171  1.00  0.00     0.218 HD
ENDBRANCH  13  21
ENDBRANCH   5   8
ENDBRANCH   1   4
BRANCH   3  23
HETATM   23  C4  UNL     1      12.185  -1.583  -2.500  1.00  0.00     0.172 C 
HETATM   24  N7  UNL     1      12.940  -0.723  -3.044  1.00  0.00    -0.278 N 
ATOM     25  H7  UNL     1      13.116   0.120  -2.498  1.00  0.00     0.189 HD
BRANCH  23  26
HETATM   26  O2  UNL     1      11.688  -1.255  -1.214  1.00  0.00    -0.344 OA
ATOM     27  H2  UNL     1      12.121  -0.533  -0.773  1.00  0.00     0.219 HD
ENDBRANCH  23  26
BRANCH  24  28
HETATM   28  N8  UNL     1      13.558  -0.779  -4.283  1.00  0.00    -0.287 N 
ATOM     29  H8  UNL     1      13.096  -0.365  -5.093  1.00  0.00     0.188 HD
BRANCH  28  30
HETATM   30  C5  UNL     1      14.834  -1.409  -4.447  1.00  0.00     0.095 C 
HETATM   31  N9  UNL     1      15.206  -1.795  -5.597  1.00  0.00    -0.376 N 
HETATM   32  C6  UNL     1      16.464  -2.437  -5.878  1.00  0.00     0.156 C 
ATOM     33  H9  UNL     1      14.568  -1.639  -6.378  1.00  0.00     0.160 HD
HETATM   34  C7  UNL     1      17.452  -2.404  -4.760  1.00  0.00     0.219 C 
HETATM   35  C8  UNL     1      16.709  -2.690  -3.448  1.00  0.00     0.150 C 
HETATM   36  S1  UNL     1      17.812  -2.670  -2.030  1.00  0.00    -0.053 SA
HETATM   37  C9  UNL     1      15.691  -1.594  -3.276  1.00  0.00     0.130 C 
BRANCH  34  38
HETATM   38  N10 UNL     1      18.486  -3.405  -4.967  1.00  0.00    -0.145 N 
HETATM   39  O3  UNL     1      18.177  -4.580  -5.233  1.00  0.00    -0.536 OA
HETATM   40  O4  UNL     1      19.823  -3.090  -4.882  1.00  0.00    -0.536 OA
ENDBRANCH  34  38
BRANCH  35  41
HETATM   41  O5  UNL     1      16.109  -3.937  -3.628  1.00  0.00    -0.376 OA
ATOM     42  H5  UNL     1      15.182  -3.758  -3.733  1.00  0.00     0.211 HD
ENDBRANCH  35  41
ENDBRANCH  28  30
ENDBRANCH  24  28
ENDBRANCH   3  23
TORSDOF 12
ENDMDL
MODEL 5
REMARK VINA RESULT: -7.860474547      1.424      1.776
REMARK  12 active torsions:
REMARK  status: ('A' for Active; 'I' for Inactive)
REMARK    1  A    between atoms: N1_1  and  N2_4 
REMARK    2  A    between atoms: N2_4  and  N3_6 
REMARK    3  A    between atoms: C1_9  and  C2_10 
REMARK       I    between atoms: C2_10  and  N5_12 
REMARK    4  A    between atoms: N5_12  and  N6_14 
REMARK    5  A    between atoms: C3_16  and  C4_17 
REMARK    6  A    between atoms: C4_17  and  O2_18 
REMARK    7  A    between atoms: N7_20  and  N8_22 
REMARK    8  A    between atoms: N8_22  and  C5_24 
REMARK    9  A    between atoms: C7_28  and  N10_29 
REMARK   10  A    between atoms: C8_32  and  O5_33 
REMARK   11  A    between atoms: C10_37  and  O6_38 
REMARK   12  A    between atoms: C11_40  and  O7_41 
ROOT
HETATM    1  N6  UNL     1      11.060  -3.569  -2.236  1.00  0.00    -0.305 N 
ATOM      2  H6  UNL     1      10.675  -3.287  -1.335  1.00  0.00     0.186 HD
HETATM    3  C3  UNL     1      11.893  -2.804  -2.841  1.00  0.00     0.164 C 
ENDROOT
BRANCH   1   4
HETATM    4  N5  UNL     1      10.670  -4.810  -2.814  1.00  0.00    -0.265 N 
HETATM    5  C2  UNL     1      11.135  -6.008  -2.247  1.00  0.00     0.291 C 
HETATM    6  O1  UNL     1      11.894  -5.933  -1.222  1.00  0.00    -0.264 OA
ATOM      7  H5  UNL     1      10.059  -4.829  -3.630  1.00  0.00     0.190 HD
BRANCH   5   8
HETATM    8  C1  UNL     1      10.786  -7.317  -2.789  1.00  0.00     0.157 A 
HETATM    9  N4  UNL     1       9.865  -7.540  -3.771  1.00  0.00    -0.268 N 
HETATM   10  N3  UNL     1       9.774  -8.823  -4.021  1.00  0.00    -0.155 N 
ATOM     11  H4  UNL     1       9.325  -6.814  -4.242  1.00  0.00     0.189 HD
HETATM   12  C11 UNL     1      10.620  -9.494  -3.227  1.00  0.00     0.217 A 
HETATM   13  C10 UNL     1      11.275  -8.545  -2.434  1.00  0.00     0.154 A 
BRANCH  10  14
HETATM   14  N2  UNL     1       8.916  -9.415  -4.966  1.00  0.00    -0.226 N 
ATOM     15  H2  UNL     1       8.731  -8.935  -5.846  1.00  0.00     0.210 HD
BRANCH  14  16
HETATM   16  N1  UNL     1       8.311 -10.652  -4.718  1.00  0.00    -0.329 N 
ATOM     17  H12 UNL     1       7.701 -10.741  -3.906  1.00  0.00     0.178 HD
ATOM     18  H11 UNL     1       8.474 -11.450  -5.332  1.00  0.00     0.178 HD
ENDBRANCH  14  16
ENDBRANCH  10  14
BRANCH  12  19
HETATM   19  O7  UNL     1      10.825 -10.859  -3.182  1.00  0.00    -0.342 OA
ATOM     20  H7  UNL     1      11.561 -11.320  -2.798  1.00  0.00     0.219 HD
ENDBRANCH  12  19
BRANCH  13  21
HETATM   21  O6  UNL     1      12.233  -8.872  -1.483  1.00  0.00    -0.355 OA
ATOM     22  H6  UNL     1      12.962  -8.357  -1.160  1.00  0.00     0.218 HD
ENDBRANCH  13  21
ENDBRANCH   5   8
ENDBRANCH   1   4
BRANCH   3  23
HETATM   23  C4  UNL     1      12.301  -1.549  -2.279  1.00  0.00     0.172 C 
HETATM   24  N7  UNL     1      13.083  -0.688  -2.781  1.00  0.00    -0.278 N 
ATOM     25  H7  UNL     1      13.246   0.145  -2.216  1.00  0.00     0.189 HD
BRANCH  23  26
HETATM   26  O2  UNL     1      11.758  -1.235  -1.008  1.00  0.00    -0.344 OA
ATOM     27  H2  UNL     1      12.348  -0.805  -0.399  1.00  0.00     0.219 HD
ENDBRANCH  23  26
BRANCH  24  28
HETATM   28  N8  UNL     1      13.748  -0.732  -3.996  1.00  0.00    -0.287 N 
ATOM     29  H8  UNL     1      13.408  -0.166  -4.774  1.00  0.00     0.188 HD
BRANCH  28  30
HETATM   30  C5  UNL     1      14.904  -1.557  -4.180  1.00  0.00     0.095 C 
HETATM   31  N9  UNL     1      15.816  -1.573  -3.298  1.00  0.00    -0.376 N 
HETATM   32  C6  UNL     1      17.018  -2.363  -3.377  1.00  0.00     0.156 C 
ATOM     33  H9  UNL     1      15.689  -0.984  -2.475  1.00  0.00     0.160 HD
HETATM   34  C7  UNL     1      17.029  -3.387  -4.462  1.00  0.00     0.219 C 
HETATM   35  C8  UNL     1      16.426  -2.760  -5.726  1.00  0.00     0.150 C 
HETATM   36  S1  UNL     1      16.388  -3.917  -7.101  1.00  0.00    -0.053 SA
HETATM   37  C9  UNL     1      15.010  -2.374  -5.389  1.00  0.00     0.130 C 
BRANCH  34  38
HETATM   38  N10 UNL     1      18.388  -3.826  -4.731  1.00  0.00    -0.145 N 
HETATM   39  O3  UNL     1      18.679  -5.034  -4.679  1.00  0.00    -0.536 OA
HETATM   40  O4  UNL     1      19.385  -2.934  -5.054  1.00  0.00    -0.536 OA
ENDBRANCH  34  38
BRANCH  35  41
HETATM   41  O5  UNL     1      17.221  -1.646  -6.001  1.00  0.00    -0.376 OA
ATOM     42  H5  UNL     1      17.171  -1.103  -5.223  1.00  0.00     0.211 HD
ENDBRANCH  35  41
ENDBRANCH  28  30
ENDBRANCH  24  28
ENDBRANCH   3  23
TORSDOF 12
ENDMDL
