MODEL 1
REMARK VINA RESULT: -8.228765928      0.000      0.000
REMARK  9 active torsions:
REMARK  status: ('A' for Active; 'I' for Inactive)
REMARK    1  A    between atoms: C4_8  and  N3_9 
REMARK    2  A    between atoms: C7_19  and  N6_20 
REMARK    3  A    between atoms: N6_20  and  N7_22 
REMARK    4  A    between atoms: C8_25  and  N8_26 
REMARK    5  A    between atoms: C9_31  and  N11_32 
REMARK       I    between atoms: N11_32  and  C10_34 
REMARK    6  A    between atoms: C10_34  and  C11_36 
REMARK    7  A    between atoms: C11_36  and  C13_38 
REMARK    8  A    between atoms: C13_38  and  N12_39 
REMARK    9  A    between atoms: C14_47  and  O2_48 
ROOT
HETATM    1  C1  UNL     1      11.738  -1.023  -6.144  1.00  0.00     0.070 C 
HETATM    2  C2  UNL     1      13.199  -1.120  -6.471  1.00  0.00     0.038 A 
HETATM    3  N1  UNL     1      13.802  -0.198  -7.255  1.00  0.00    -0.343 N 
ATOM      4  H1  UNL     1      13.246   0.573  -7.624  1.00  0.00     0.167 HD
HETATM    5  C3  UNL     1      15.120  -0.259  -7.568  1.00  0.00     0.137 A 
HETATM    6  N2  UNL     1      15.678   0.693  -8.354  1.00  0.00    -0.176 N 
ATOM      7  H2  UNL     1      15.100   1.454  -8.712  1.00  0.00     0.186 HD
HETATM    8  C4  UNL     1      16.986   0.647  -8.669  1.00  0.00     0.679 A 
HETATM    9  N4  UNL     1      17.717  -0.353  -8.190  1.00  0.00    -0.176 N 
ATOM     10  H4  UNL     1      18.708  -0.384  -8.431  1.00  0.00     0.186 HD
HETATM   11  C5  UNL     1      17.208  -1.357  -7.381  1.00  0.00     0.131 A 
HETATM   12  N5  UNL     1      17.936  -2.238  -6.963  1.00  0.00    -0.384 N 
ATOM     13  H51 UNL     1      17.562  -2.977  -6.368  1.00  0.00     0.157 HD
ATOM     14  H52 UNL     1      18.927  -2.277  -7.198  1.00  0.00     0.157 HD
HETATM   15  C6  UNL     1      15.851  -1.304  -7.059  1.00  0.00     0.083 A 
HETATM   16  C7  UNL     1      15.246  -2.255  -6.257  1.00  0.00     0.096 A 
HETATM   17  C8  UNL     1      13.894  -2.184  -5.940  1.00  0.00     0.112 A 
ENDROOT
BRANCH  17  18
HETATM   18  N8  UNL     1      13.223  -3.128  -5.121  1.00  0.00    -0.212 N 
HETATM   19  N9  UNL     1      13.063  -3.056  -3.789  1.00  0.00    -0.232 N 
HETATM   20  N10 UNL     1      12.400  -4.077  -3.334  1.00  0.00    -0.267 N 
ATOM     21  H9  UNL     1      13.418  -2.296  -3.208  1.00  0.00     0.209 HD
HETATM   22  C9  UNL     1      12.091  -4.875  -4.370  1.00  0.00     0.177 A 
ATOM     23  H10 UNL     1      12.156  -4.244  -2.358  1.00  0.00     0.190 HD
HETATM   24  C14 UNL     1      12.615  -4.266  -5.488  1.00  0.00     0.210 A 
BRANCH  22  25
HETATM   25  N11 UNL     1      11.370  -6.109  -4.321  1.00  0.00    -0.308 N 
HETATM   26  C10 UNL     1       9.963  -6.151  -4.325  1.00  0.00     0.228 C 
HETATM   27  O1  UNL     1       9.327  -5.071  -4.382  1.00  0.00    -0.273 OA
ATOM     28  H11 UNL     1      11.891  -6.985  -4.282  1.00  0.00     0.170 HD
BRANCH  26  29
HETATM   29  C11 UNL     1       9.185  -7.411  -4.267  1.00  0.00     0.095 C 
HETATM   30  C12 UNL     1       7.972  -7.253  -5.153  1.00  0.00     0.021 C 
BRANCH  29  31
HETATM   31  C13 UNL     1      10.034  -8.595  -4.678  1.00  0.00     0.182 C 
BRANCH  31  32
HETATM   32  N12 UNL     1      10.927  -8.990  -3.591  1.00  0.00    -0.200 N 
HETATM   33  N13 UNL     1      10.972  -8.522  -2.351  1.00  0.00     0.014 NA
HETATM   34  N14 UNL     1      11.934  -9.150  -1.683  1.00  0.00    -0.209 N 
HETATM   35  N15 UNL     1      12.503 -10.015  -2.492  1.00  0.00    -0.214 N 
ATOM     36  H14 UNL     1      12.187  -8.988  -0.709  1.00  0.00     0.207 HD
HETATM   37  N16 UNL     1      11.885  -9.907  -3.640  1.00  0.00    -0.212 N 
ATOM     38  H15 UNL     1      13.273 -10.646  -2.269  1.00  0.00     0.211 HD
ATOM     39  H16 UNL     1      12.111 -10.458  -4.469  1.00  0.00     0.211 HD
ENDBRANCH  31  32
ENDBRANCH  29  31
ENDBRANCH  26  29
ENDBRANCH  22  25
BRANCH  24  40
HETATM   40  O2  UNL     1      12.504  -4.785  -6.769  1.00  0.00    -0.342 OA
ATOM     41  H2  UNL     1      11.723  -5.131  -7.185  1.00  0.00     0.219 HD
ENDBRANCH  24  40
ENDBRANCH  17  18
BRANCH  16  42
HETATM   42  N6  UNL     1      15.955  -3.357  -5.742  1.00  0.00    -0.304 N 
ATOM     43  H6  UNL     1      16.534  -3.260  -4.909  1.00  0.00     0.186 HD
BRANCH  42  44
HETATM   44  N7  UNL     1      15.844  -4.599  -6.401  1.00  0.00    -0.345 N 
ATOM     45  H72 UNL     1      16.599  -4.919  -7.009  1.00  0.00     0.176 HD
ATOM     46  H71 UNL     1      15.003  -5.157  -6.255  1.00  0.00     0.176 HD
ENDBRANCH  42  44
ENDBRANCH  16  42
BRANCH   8  47
HETATM   47  N3  UNL     1      17.515   1.564  -9.425  1.00  0.00    -0.234 N 
ATOM     48  H32 UNL     1      16.996   1.968 -10.205  1.00  0.00     0.174 HD
ATOM     49  H31 UNL     1      18.463   1.896  -9.249  1.00  0.00     0.174 HD
ENDBRANCH   8  47
TORSDOF 9
ENDMDL
MODEL 2
REMARK VINA RESULT: -8.032465664      2.571      9.257
REMARK  9 active torsions:
REMARK  status: ('A' for Active; 'I' for Inactive)
REMARK    1  A    between atoms: C4_8  and  N3_9 
REMARK    2  A    between atoms: C7_19  and  N6_20 
REMARK    3  A    between atoms: N6_20  and  N7_22 
REMARK    4  A    between atoms: C8_25  and  N8_26 
REMARK    5  A    between atoms: C9_31  and  N11_32 
REMARK       I    between atoms: N11_32  and  C10_34 
REMARK    6  A    between atoms: C10_34  and  C11_36 
REMARK    7  A    between atoms: C11_36  and  C13_38 
REMARK    8  A    between atoms: C13_38  and  N12_39 
REMARK    9  A    between atoms: C14_47  and  O2_48 
ROOT
HETATM    1  C1  UNL     1       8.582  -5.176  -5.035  1.00  0.00     0.070 C 
HETATM    2  C2  UNL     1       8.771  -6.662  -5.083  1.00  0.00     0.038 A 
HETATM    3  N1  UNL     1       7.717  -7.498  -5.222  1.00  0.00    -0.343 N 
ATOM      4  H1  UNL     1       6.781  -7.099  -5.294  1.00  0.00     0.167 HD
HETATM    5  C3  UNL     1       7.856  -8.845  -5.268  1.00  0.00     0.137 A 
HETATM    6  N2  UNL     1       6.767  -9.638  -5.412  1.00  0.00    -0.176 N 
ATOM      7  H2  UNL     1       5.841  -9.215  -5.482  1.00  0.00     0.186 HD
HETATM    8  C4  UNL     1       6.892 -10.977  -5.463  1.00  0.00     0.679 A 
HETATM    9  N4  UNL     1       8.108 -11.504  -5.371  1.00  0.00    -0.176 N 
ATOM     10  H4  UNL     1       8.198 -12.519  -5.411  1.00  0.00     0.186 HD
HETATM   11  C5  UNL     1       9.261 -10.750  -5.223  1.00  0.00     0.131 A 
HETATM   12  N5  UNL     1      10.348 -11.293  -5.158  1.00  0.00    -0.384 N 
ATOM     13  H51 UNL     1      11.197 -10.738  -5.049  1.00  0.00     0.157 HD
ATOM     14  H52 UNL     1      10.448 -12.307  -5.198  1.00  0.00     0.157 HD
HETATM   15  C6  UNL     1       9.125  -9.361  -5.169  1.00  0.00     0.083 A 
HETATM   16  C7  UNL     1      10.213  -8.519  -5.026  1.00  0.00     0.096 A 
HETATM   17  C8  UNL     1      10.061  -7.137  -4.980  1.00  0.00     0.112 A 
ENDROOT
BRANCH  17  18
HETATM   18  N8  UNL     1      11.139  -6.227  -4.838  1.00  0.00    -0.212 N 
HETATM   19  N9  UNL     1      11.610  -5.722  -3.687  1.00  0.00    -0.232 N 
HETATM   20  N10 UNL     1      12.609  -4.916  -3.894  1.00  0.00    -0.267 N 
ATOM     21  H9  UNL     1      11.231  -5.942  -2.765  1.00  0.00     0.209 HD
HETATM   22  C9  UNL     1      12.838  -4.860  -5.216  1.00  0.00     0.177 A 
ATOM     23  H10 UNL     1      13.129  -4.413  -3.176  1.00  0.00     0.190 HD
HETATM   24  C14 UNL     1      11.906  -5.690  -5.799  1.00  0.00     0.210 A 
BRANCH  22  25
HETATM   25  N11 UNL     1      13.842  -4.091  -5.884  1.00  0.00    -0.308 N 
HETATM   26  C10 UNL     1      15.053  -3.742  -5.259  1.00  0.00     0.228 C 
HETATM   27  O1  UNL     1      15.257  -4.127  -4.081  1.00  0.00    -0.273 OA
ATOM     28  H11 UNL     1      13.674  -3.786  -6.843  1.00  0.00     0.170 HD
BRANCH  26  29
HETATM   29  C11 UNL     1      16.110  -2.939  -5.918  1.00  0.00     0.095 C 
HETATM   30  C12 UNL     1      15.457  -1.729  -6.542  1.00  0.00     0.021 C 
BRANCH  29  31
HETATM   31  C13 UNL     1      17.193  -2.551  -4.932  1.00  0.00     0.182 C 
BRANCH  31  32
HETATM   32  N12 UNL     1      18.367  -3.405  -5.096  1.00  0.00    -0.200 N 
HETATM   33  N13 UNL     1      19.618  -3.045  -5.348  1.00  0.00     0.014 NA
HETATM   34  N14 UNL     1      20.377  -4.132  -5.425  1.00  0.00    -0.209 N 
HETATM   35  N15 UNL     1      19.616  -5.184  -5.222  1.00  0.00    -0.214 N 
ATOM     36  H14 UNL     1      21.380  -4.148  -5.608  1.00  0.00     0.207 HD
HETATM   37  N16 UNL     1      18.405  -4.730  -5.025  1.00  0.00    -0.212 N 
ATOM     38  H15 UNL     1      19.911  -6.160  -5.218  1.00  0.00     0.211 HD
ATOM     39  H16 UNL     1      17.592  -5.319  -4.841  1.00  0.00     0.211 HD
ENDBRANCH  31  32
ENDBRANCH  29  31
ENDBRANCH  26  29
ENDBRANCH  22  25
BRANCH  24  40
HETATM   40  O2  UNL     1      11.816  -5.904  -7.166  1.00  0.00    -0.342 OA
ATOM     41  H2  UNL     1      11.529  -5.286  -7.828  1.00  0.00     0.219 HD
ENDBRANCH  24  40
ENDBRANCH  17  18
BRANCH  16  42
HETATM   42  N6  UNL     1      11.525  -9.010  -4.891  1.00  0.00    -0.304 N 
ATOM     43  H6  UNL     1      12.139  -9.083  -5.701  1.00  0.00     0.186 HD
BRANCH  42  44
HETATM   44  N7  UNL     1      11.973  -9.399  -3.611  1.00  0.00    -0.345 N 
ATOM     45  H72 UNL     1      12.771  -8.925  -3.188  1.00  0.00     0.176 HD
ATOM     46  H71 UNL     1      11.483 -10.154  -3.130  1.00  0.00     0.176 HD
ENDBRANCH  42  44
ENDBRANCH  16  42
BRANCH   8  47
HETATM   47  N3  UNL     1       5.842 -11.733  -5.602  1.00  0.00    -0.234 N 
ATOM     48  H32 UNL     1       5.584 -12.413  -4.887  1.00  0.00     0.174 HD
ATOM     49  H31 UNL     1       5.256 -11.656  -6.433  1.00  0.00     0.174 HD
ENDBRANCH   8  47
TORSDOF 9
ENDMDL
MODEL 3
REMARK VINA RESULT: -8.020379677      3.053      8.613
REMARK  9 active torsions:
REMARK  status: ('A' for Active; 'I' for Inactive)
REMARK    1  A    between atoms: C4_8  and  N3_9 
REMARK    2  A    between atoms: C7_19  and  N6_20 
REMARK    3  A    between atoms: N6_20  and  N7_22 
REMARK    4  A    between atoms: C8_25  and  N8_26 
REMARK    5  A    between atoms: C9_31  and  N11_32 
REMARK       I    between atoms: N11_32  and  C10_34 
REMARK    6  A    between atoms: C10_34  and  C11_36 
REMARK    7  A    between atoms: C11_36  and  C13_38 
REMARK    8  A    between atoms: C13_38  and  N12_39 
REMARK    9  A    between atoms: C14_47  and  O2_48 
ROOT
HETATM    1  C1  UNL     1      11.061  -3.296  -6.883  1.00  0.00     0.070 C 
HETATM    2  C2  UNL     1      10.609  -4.501  -6.114  1.00  0.00     0.038 A 
HETATM    3  N1  UNL     1       9.589  -5.271  -6.556  1.00  0.00    -0.343 N 
ATOM      4  H1  UNL     1       9.126  -5.018  -7.429  1.00  0.00     0.167 HD
HETATM    5  C3  UNL     1       9.158  -6.366  -5.884  1.00  0.00     0.137 A 
HETATM    6  N2  UNL     1       8.134  -7.107  -6.371  1.00  0.00    -0.176 N 
ATOM      7  H2  UNL     1       7.687  -6.833  -7.247  1.00  0.00     0.186 HD
HETATM    8  C4  UNL     1       7.700  -8.199  -5.715  1.00  0.00     0.679 A 
HETATM    9  N4  UNL     1       8.300  -8.535  -4.579  1.00  0.00    -0.176 N 
ATOM     10  H4  UNL     1       7.968  -9.363  -4.085  1.00  0.00     0.186 HD
HETATM   11  C5  UNL     1       9.352  -7.821  -4.026  1.00  0.00     0.131 A 
HETATM   12  N5  UNL     1       9.867  -8.190  -2.988  1.00  0.00    -0.384 N 
ATOM     13  H51 UNL     1      10.642  -7.665  -2.581  1.00  0.00     0.157 HD
ATOM     14  H52 UNL     1       9.543  -9.017  -2.488  1.00  0.00     0.157 HD
HETATM   15  C6  UNL     1       9.797  -6.689  -4.711  1.00  0.00     0.083 A 
HETATM   16  C7  UNL     1      10.841  -5.910  -4.246  1.00  0.00     0.096 A 
HETATM   17  C8  UNL     1      11.277  -4.788  -4.944  1.00  0.00     0.112 A 
ENDROOT
BRANCH  17  18
HETATM   18  N8  UNL     1      12.343  -3.956  -4.517  1.00  0.00    -0.212 N 
HETATM   19  N9  UNL     1      12.237  -2.843  -3.773  1.00  0.00    -0.232 N 
HETATM   20  N10 UNL     1      13.401  -2.308  -3.548  1.00  0.00    -0.267 N 
ATOM     21  H9  UNL     1      11.355  -2.465  -3.427  1.00  0.00     0.209 HD
HETATM   22  C9  UNL     1      14.335  -3.065  -4.148  1.00  0.00     0.177 A 
ATOM     23  H10 UNL     1      13.575  -1.460  -3.010  1.00  0.00     0.190 HD
HETATM   24  C14 UNL     1      13.656  -4.098  -4.754  1.00  0.00     0.210 A 
BRANCH  22  25
HETATM   25  N11 UNL     1      15.747  -2.840  -4.161  1.00  0.00    -0.308 N 
HETATM   26  C10 UNL     1      16.565  -3.171  -3.064  1.00  0.00     0.228 C 
HETATM   27  O1  UNL     1      16.034  -3.686  -2.050  1.00  0.00    -0.273 OA
ATOM     28  H11 UNL     1      16.175  -2.427  -4.990  1.00  0.00     0.170 HD
BRANCH  26  29
HETATM   29  C11 UNL     1      18.029  -2.943  -3.040  1.00  0.00     0.095 C 
HETATM   30  C12 UNL     1      18.458  -2.814  -1.597  1.00  0.00     0.021 C 
BRANCH  29  31
HETATM   31  C13 UNL     1      18.765  -4.059  -3.750  1.00  0.00     0.182 C 
BRANCH  31  32
HETATM   32  N12 UNL     1      19.466  -3.547  -4.925  1.00  0.00    -0.200 N 
HETATM   33  N13 UNL     1      19.207  -2.451  -5.626  1.00  0.00     0.014 NA
HETATM   34  N14 UNL     1      20.083  -2.353  -6.620  1.00  0.00    -0.209 N 
HETATM   35  N15 UNL     1      20.901  -3.380  -6.556  1.00  0.00    -0.214 N 
ATOM     36  H14 UNL     1      20.117  -1.607  -7.314  1.00  0.00     0.207 HD
HETATM   37  N16 UNL     1      20.516  -4.092  -5.528  1.00  0.00    -0.212 N 
ATOM     38  H15 UNL     1      21.679  -3.581  -7.182  1.00  0.00     0.211 HD
ATOM     39  H16 UNL     1      20.965  -4.958  -5.227  1.00  0.00     0.211 HD
ENDBRANCH  31  32
ENDBRANCH  29  31
ENDBRANCH  26  29
ENDBRANCH  22  25
BRANCH  24  40
HETATM   40  O2  UNL     1      14.275  -5.103  -5.481  1.00  0.00    -0.342 OA
ATOM     41  H2  UNL     1      15.206  -5.204  -5.648  1.00  0.00     0.219 HD
ENDBRANCH  24  40
ENDBRANCH  17  18
BRANCH  16  42
HETATM   42  N6  UNL     1      11.500  -6.190  -3.034  1.00  0.00    -0.304 N 
ATOM     43  H6  UNL     1      12.221  -6.909  -2.988  1.00  0.00     0.186 HD
BRANCH  42  44
HETATM   44  N7  UNL     1      11.143  -5.453  -1.885  1.00  0.00    -0.345 N 
ATOM     45  H72 UNL     1      10.164  -5.394  -1.606  1.00  0.00     0.176 HD
ATOM     46  H71 UNL     1      11.880  -4.991  -1.353  1.00  0.00     0.176 HD
ENDBRANCH  42  44
ENDBRANCH  16  42
BRANCH   8  47
HETATM   47  N3  UNL     1       6.716  -8.905  -6.190  1.00  0.00    -0.234 N 
ATOM     48  H32 UNL     1       6.256  -8.648  -7.063  1.00  0.00     0.174 HD
ATOM     49  H31 UNL     1       6.386  -9.732  -5.693  1.00  0.00     0.174 HD
ENDBRANCH   8  47
TORSDOF 9
ENDMDL
MODEL 4
REMARK VINA RESULT: -7.992355483      2.912      8.559
REMARK  9 active torsions:
REMARK  status: ('A' for Active; 'I' for Inactive)
REMARK    1  A    between atoms: C4_8  and  N3_9 
REMARK    2  A    between atoms: C7_19  and  N6_20 
REMARK    3  A    between atoms: N6_20  and  N7_22 
REMARK    4  A    between atoms: C8_25  and  N8_26 
REMARK    5  A    between atoms: C9_31  and  N11_32 
REMARK       I    between atoms: N11_32  and  C10_34 
REMARK    6  A    between atoms: C10_34  and  C11_36 
REMARK    7  A    between atoms: C11_36  and  C13_38 
REMARK    8  A    between atoms: C13_38  and  N12_39 
REMARK    9  A    between atoms: C14_47  and  O2_48 
ROOT
HETATM    1  C1  UNL     1      10.287  -2.417  -5.870  1.00  0.00     0.070 C 
HETATM    2  C2  UNL     1       9.890  -3.810  -5.482  1.00  0.00     0.038 A 
HETATM    3  N1  UNL     1       8.708  -4.336  -5.875  1.00  0.00    -0.343 N 
ATOM      4  H1  UNL     1       8.082  -3.766  -6.444  1.00  0.00     0.167 HD
HETATM    5  C3  UNL     1       8.322  -5.591  -5.540  1.00  0.00     0.137 A 
HETATM    6  N2  UNL     1       7.128  -6.073  -5.962  1.00  0.00    -0.176 N 
ATOM      7  H2  UNL     1       6.519  -5.483  -6.531  1.00  0.00     0.186 HD
HETATM    8  C4  UNL     1       6.735  -7.319  -5.641  1.00  0.00     0.679 A 
HETATM    9  N4  UNL     1       7.545  -8.067  -4.900  1.00  0.00    -0.176 N 
ATOM     10  H4  UNL     1       7.243  -9.012  -4.660  1.00  0.00     0.186 HD
HETATM   11  C5  UNL     1       8.778  -7.636  -4.438  1.00  0.00     0.131 A 
HETATM   12  N5  UNL     1       9.480  -8.377  -3.775  1.00  0.00    -0.384 N 
ATOM     13  H51 UNL     1      10.387  -8.059  -3.434  1.00  0.00     0.157 HD
ATOM     14  H52 UNL     1       9.187  -9.322  -3.529  1.00  0.00     0.157 HD
HETATM   15  C6  UNL     1       9.179  -6.342  -4.774  1.00  0.00     0.083 A 
HETATM   16  C7  UNL     1      10.392  -5.817  -4.364  1.00  0.00     0.096 A 
HETATM   17  C8  UNL     1      10.780  -4.527  -4.713  1.00  0.00     0.112 A 
ENDROOT
BRANCH  17  18
HETATM   18  N8  UNL     1      12.011  -3.940  -4.325  1.00  0.00    -0.212 N 
HETATM   19  N9  UNL     1      12.170  -2.899  -3.491  1.00  0.00    -0.232 N 
HETATM   20  N10 UNL     1      13.426  -2.602  -3.336  1.00  0.00    -0.267 N 
ATOM     21  H9  UNL     1      11.402  -2.405  -3.036  1.00  0.00     0.209 HD
HETATM   22  C9  UNL     1      14.156  -3.452  -4.076  1.00  0.00     0.177 A 
ATOM     23  H10 UNL     1      13.795  -1.851  -2.752  1.00  0.00     0.190 HD
HETATM   24  C14 UNL     1      13.253  -4.289  -4.693  1.00  0.00     0.210 A 
BRANCH  22  25
HETATM   25  N11 UNL     1      15.580  -3.480  -4.203  1.00  0.00    -0.308 N 
HETATM   26  C10 UNL     1      16.425  -3.643  -3.090  1.00  0.00     0.228 C 
HETATM   27  O1  UNL     1      15.907  -3.776  -1.954  1.00  0.00    -0.273 OA
ATOM     28  H11 UNL     1      15.996  -3.378  -5.129  1.00  0.00     0.170 HD
BRANCH  26  29
HETATM   29  C11 UNL     1      17.904  -3.667  -3.184  1.00  0.00     0.095 C 
HETATM   30  C12 UNL     1      18.436  -4.421  -1.988  1.00  0.00     0.021 C 
BRANCH  29  31
HETATM   31  C13 UNL     1      18.356  -4.287  -4.490  1.00  0.00     0.182 C 
BRANCH  31  32
HETATM   32  N12 UNL     1      18.732  -3.250  -5.448  1.00  0.00    -0.200 N 
HETATM   33  N13 UNL     1      17.940  -2.483  -6.184  1.00  0.00     0.014 NA
HETATM   34  N14 UNL     1      18.687  -1.672  -6.926  1.00  0.00    -0.209 N 
HETATM   35  N15 UNL     1      19.951  -1.918  -6.665  1.00  0.00    -0.214 N 
ATOM     36  H14 UNL     1      18.338  -0.975  -7.585  1.00  0.00     0.207 HD
HETATM   37  N16 UNL     1      19.963  -2.873  -5.771  1.00  0.00    -0.212 N 
ATOM     38  H15 UNL     1      20.761  -1.456  -7.077  1.00  0.00     0.211 HD
ATOM     39  H16 UNL     1      20.811  -3.278  -5.373  1.00  0.00     0.211 HD
ENDBRANCH  31  32
ENDBRANCH  29  31
ENDBRANCH  26  29
ENDBRANCH  22  25
BRANCH  24  40
HETATM   40  O2  UNL     1      13.619  -5.316  -5.550  1.00  0.00    -0.342 OA
ATOM     41  H2  UNL     1      14.212  -6.036  -5.368  1.00  0.00     0.219 HD
ENDBRANCH  24  40
ENDBRANCH  17  18
BRANCH  16  42
HETATM   42  N6  UNL     1      11.285  -6.543  -3.553  1.00  0.00    -0.304 N 
ATOM     43  H6  UNL     1      11.863  -7.283  -3.949  1.00  0.00     0.186 HD
BRANCH  42  44
HETATM   44  N7  UNL     1      11.362  -6.223  -2.181  1.00  0.00    -0.345 N 
ATOM     45  H72 UNL     1      11.508  -5.256  -1.893  1.00  0.00     0.176 HD
ATOM     46  H71 UNL     1      11.271  -6.976  -1.498  1.00  0.00     0.176 HD
ENDBRANCH  42  44
ENDBRANCH  16  42
BRANCH   8  47
HETATM   47  N3  UNL     1       5.587  -7.774  -6.050  1.00  0.00    -0.234 N 
ATOM     48  H32 UNL     1       4.876  -7.148  -6.428  1.00  0.00     0.174 HD
ATOM     49  H31 UNL     1       5.377  -8.771  -5.998  1.00  0.00     0.174 HD
ENDBRANCH   8  47
TORSDOF 9
ENDMDL
MODEL 5
REMARK VINA RESULT: -7.983932324      4.629      6.658
REMARK  9 active torsions:
REMARK  status: ('A' for Active; 'I' for Inactive)
REMARK    1  A    between atoms: C4_8  and  N3_9 
REMARK    2  A    between atoms: C7_19  and  N6_20 
REMARK    3  A    between atoms: N6_20  and  N7_22 
REMARK    4  A    between atoms: C8_25  and  N8_26 
REMARK    5  A    between atoms: C9_31  and  N11_32 
REMARK       I    between atoms: N11_32  and  C10_34 
REMARK    6  A    between atoms: C10_34  and  C11_36 
REMARK    7  A    between atoms: C11_36  and  C13_38 
REMARK    8  A    between atoms: C13_38  and  N12_39 
REMARK    9  A    between atoms: C14_47  and  O2_48 
ROOT
HETATM    1  C1  UNL     1      12.792  -2.184  -6.703  1.00  0.00     0.070 C 
HETATM    2  C2  UNL     1      13.548  -1.254  -7.605  1.00  0.00     0.038 A 
HETATM    3  N1  UNL     1      12.919  -0.255  -8.265  1.00  0.00    -0.343 N 
ATOM      4  H1  UNL     1      11.913  -0.141  -8.140  1.00  0.00     0.167 HD
HETATM    5  C3  UNL     1      13.575   0.601  -9.086  1.00  0.00     0.137 A 
HETATM    6  N2  UNL     1      12.899   1.589  -9.721  1.00  0.00    -0.176 N 
ATOM      7  H2  UNL     1      11.893   1.681  -9.581  1.00  0.00     0.186 HD
HETATM    8  C4  UNL     1      13.539   2.448 -10.536  1.00  0.00     0.679 A 
HETATM    9  N4  UNL     1      14.849   2.307 -10.702  1.00  0.00    -0.176 N 
ATOM     10  H4  UNL     1      15.330   2.961 -11.319  1.00  0.00     0.186 HD
HETATM   11  C5  UNL     1      15.599   1.320 -10.081  1.00  0.00     0.131 A 
HETATM   12  N5  UNL     1      16.800   1.254 -10.264  1.00  0.00    -0.384 N 
ATOM     13  H51 UNL     1      17.352   0.527  -9.808  1.00  0.00     0.157 HD
ATOM     14  H52 UNL     1      17.290   1.903 -10.880  1.00  0.00     0.157 HD
HETATM   15  C6  UNL     1      14.929   0.431  -9.239  1.00  0.00     0.083 A 
HETATM   16  C7  UNL     1      15.585  -0.587  -8.571  1.00  0.00     0.096 A 
HETATM   17  C8  UNL     1      14.904  -1.461  -7.729  1.00  0.00     0.112 A 
ENDROOT
BRANCH  17  18
HETATM   18  N8  UNL     1      15.525  -2.518  -7.017  1.00  0.00    -0.212 N 
HETATM   19  N9  UNL     1      15.816  -3.739  -7.496  1.00  0.00    -0.232 N 
HETATM   20  N10 UNL     1      16.387  -4.481  -6.594  1.00  0.00    -0.267 N 
ATOM     21  H9  UNL     1      15.614  -4.046  -8.448  1.00  0.00     0.209 HD
HETATM   22  C9  UNL     1      16.497  -3.761  -5.465  1.00  0.00     0.177 A 
ATOM     23  H10 UNL     1      16.698  -5.443  -6.721  1.00  0.00     0.190 HD
HETATM   24  C14 UNL     1      15.951  -2.529  -5.745  1.00  0.00     0.210 A 
BRANCH  22  25
HETATM   25  N11 UNL     1      17.060  -4.190  -4.222  1.00  0.00    -0.308 N 
HETATM   26  C10 UNL     1      18.431  -4.476  -4.084  1.00  0.00     0.228 C 
HETATM   27  O1  UNL     1      19.179  -4.342  -5.084  1.00  0.00    -0.273 OA
ATOM     28  H11 UNL     1      16.450  -4.292  -3.412  1.00  0.00     0.170 HD
BRANCH  26  29
HETATM   29  C11 UNL     1      19.047  -4.931  -2.815  1.00  0.00     0.095 C 
HETATM   30  C12 UNL     1      18.099  -4.592  -1.689  1.00  0.00     0.021 C 
BRANCH  29  31
HETATM   31  C13 UNL     1      19.361  -6.411  -2.863  1.00  0.00     0.182 C 
BRANCH  31  32
HETATM   32  N12 UNL     1      20.806  -6.629  -2.892  1.00  0.00    -0.200 N 
HETATM   33  N13 UNL     1      21.465  -7.780  -2.877  1.00  0.00     0.014 NA
HETATM   34  N14 UNL     1      22.770  -7.533  -2.913  1.00  0.00    -0.209 N 
HETATM   35  N15 UNL     1      22.946  -6.231  -2.950  1.00  0.00    -0.214 N 
ATOM     36  H14 UNL     1      23.510  -8.235  -2.912  1.00  0.00     0.207 HD
HETATM   37  N16 UNL     1      21.751  -5.698  -2.937  1.00  0.00    -0.212 N 
ATOM     38  H15 UNL     1      23.836  -5.735  -2.983  1.00  0.00     0.211 HD
ATOM     39  H16 UNL     1      21.568  -4.695  -2.958  1.00  0.00     0.211 HD
ENDBRANCH  31  32
ENDBRANCH  29  31
ENDBRANCH  26  29
ENDBRANCH  22  25
BRANCH  24  40
HETATM   40  O2  UNL     1      15.877  -1.494  -4.825  1.00  0.00    -0.342 OA
ATOM     41  H2  UNL     1      15.187  -0.846  -4.740  1.00  0.00     0.219 HD
ENDBRANCH  24  40
ENDBRANCH  17  18
BRANCH  16  42
HETATM   42  N6  UNL     1      16.966  -0.813  -8.724  1.00  0.00    -0.304 N 
ATOM     43  H6  UNL     1      17.328  -1.281  -9.555  1.00  0.00     0.186 HD
BRANCH  42  44
HETATM   44  N7  UNL     1      17.839  -0.378  -7.705  1.00  0.00    -0.345 N 
ATOM     45  H72 UNL     1      17.696  -0.694  -6.746  1.00  0.00     0.176 HD
ATOM     46  H71 UNL     1      18.604   0.251  -7.952  1.00  0.00     0.176 HD
ENDBRANCH  42  44
ENDBRANCH  16  42
BRANCH   8  47
HETATM   47  N3  UNL     1      12.883   3.394 -11.143  1.00  0.00    -0.234 N 
ATOM     48  H32 UNL     1      11.880   3.513 -11.002  1.00  0.00     0.174 HD
ATOM     49  H31 UNL     1      13.364   4.035 -11.773  1.00  0.00     0.174 HD
ENDBRANCH   8  47
TORSDOF 9
ENDMDL
