MODEL 1
REMARK VINA RESULT: -8.109785110      0.000      0.000
REMARK  11 active torsions:
REMARK  status: ('A' for Active; 'I' for Inactive)
REMARK       I    between atoms: N2_3  and  C2_5 
REMARK       I    between atoms: C2_5  and  N6_15 
REMARK    1  A    between atoms: N3_6  and  C3_8 
REMARK    2  A    between atoms: N6_15  and  N7_17 
REMARK    3  A    between atoms: N8_19  and  C5_21 
REMARK    4  A    between atoms: N11_26  and  C6_27 
REMARK    5  A    between atoms: C7_33  and  N14_34 
REMARK    6  A    between atoms: C8_37  and  C9_38 
REMARK    7  A    between atoms: C9_38  and  O3_39 
REMARK    8  A    between atoms: C9_38  and  C10_41 
REMARK    9  A    between atoms: C10_41  and  O4_42 
REMARK   10  A    between atoms: C10_41  and  N15_44 
REMARK   11  A    between atoms: N15_44  and  O5_45 
ROOT
HETATM    1  N1  UNL     1       9.519  -7.277  -8.075  1.00  0.00    -0.171 NA
HETATM    2  C1  UNL     1      10.039  -6.754  -7.164  1.00  0.00     0.196 C 
HETATM    3  N2  UNL     1      10.625  -6.173  -6.093  1.00  0.00    -0.124 N 
ATOM      4  H2  UNL     1      10.590  -5.153  -6.090  1.00  0.00     0.197 HD
HETATM    5  C2  UNL     1      11.215  -6.689  -5.082  1.00  0.00     0.708 C 
HETATM    6  N3  UNL     1      11.446  -7.958  -4.734  1.00  0.00    -0.171 N 
ATOM      7  H3  UNL     1      12.364  -8.008  -4.291  1.00  0.00     0.186 HD
HETATM    8  N6  UNL     1      11.829  -5.633  -4.194  1.00  0.00    -0.117 N 
ATOM      9  H6  UNL     1      11.474  -5.446  -3.257  1.00  0.00     0.207 HD
ENDROOT
BRANCH   6  10
HETATM   10  C3  UNL     1      10.957  -9.099  -4.750  1.00  0.00     0.160 A 
HETATM   11  C4  UNL     1      10.287  -9.627  -3.619  1.00  0.00     0.167 A 
HETATM   12  N4  UNL     1       9.868 -10.854  -3.932  1.00  0.00    -0.249 N 
HETATM   13  O1  UNL     1      10.221 -11.117  -5.158  1.00  0.00    -0.156 OA
ATOM     14  H4  UNL     1       9.356 -11.483  -3.313  1.00  0.00     0.196 HD
HETATM   15  N5  UNL     1      10.868 -10.084  -5.652  1.00  0.00    -0.224 N 
ATOM     16  H5  UNL     1      11.251 -10.039  -6.596  1.00  0.00     0.198 HD
ENDBRANCH   6  10
BRANCH   8  17
HETATM   17  N7  UNL     1      12.855  -4.964  -4.700  1.00  0.00    -0.227 N 
HETATM   18  N8  UNL     1      13.388  -4.039  -5.192  1.00  0.00    -0.267 N 
ATOM     19  H8  UNL     1      12.858  -3.190  -5.392  1.00  0.00     0.190 HD
ATOM     20  H7  UNL     1      13.618  -5.635  -4.612  1.00  0.00     0.209 HD
BRANCH  18  21
HETATM   21  C5  UNL     1      14.812  -4.110  -5.518  1.00  0.00     0.169 A 
HETATM   22  N9  UNL     1      15.200  -4.897  -6.548  1.00  0.00    -0.267 N 
HETATM   23  N10 UNL     1      16.466  -4.702  -6.654  1.00  0.00    -0.232 N 
ATOM     24  H9  UNL     1      14.616  -5.510  -7.116  1.00  0.00     0.190 HD
HETATM   25  N11 UNL     1      16.953  -3.833  -5.766  1.00  0.00    -0.214 N 
ATOM     26  H10 UNL     1      17.044  -5.169  -7.352  1.00  0.00     0.209 HD
HETATM   27  C8  UNL     1      15.896  -3.455  -5.025  1.00  0.00     0.139 A 
BRANCH  25  28
HETATM   28  C6  UNL     1      18.282  -3.331  -5.868  1.00  0.00     0.196 A 
HETATM   29  N12 UNL     1      18.860  -2.254  -6.326  1.00  0.00    -0.220 N 
HETATM   30  O2  UNL     1      20.139  -2.325  -6.197  1.00  0.00    -0.153 OA
ATOM     31  H12 UNL     1      18.365  -1.461  -6.734  1.00  0.00     0.198 HD
HETATM   32  N13 UNL     1      20.477  -3.437  -5.659  1.00  0.00    -0.222 N 
HETATM   33  C7  UNL     1      19.363  -4.157  -5.405  1.00  0.00     0.169 A 
ATOM     34  H13 UNL     1      21.433  -3.730  -5.455  1.00  0.00     0.198 HD
BRANCH  33  35
HETATM   35  N14 UNL     1      19.305  -5.316  -4.885  1.00  0.00    -0.381 N 
ATOM     36 2H14 UNL     1      18.462  -5.844  -4.658  1.00  0.00     0.157 HD
ATOM     37 1H14 UNL     1      20.074  -5.917  -4.591  1.00  0.00     0.157 HD
ENDBRANCH  33  35
ENDBRANCH  25  28
BRANCH  27  38
HETATM   38  C9  UNL     1      15.817  -2.476  -3.939  1.00  0.00     0.122 C 
BRANCH  38  39
HETATM   39  O3  UNL     1      15.054  -1.390  -4.182  1.00  0.00    -0.359 OA
ATOM     40  H3  UNL     1      14.721  -0.940  -3.414  1.00  0.00     0.217 HD
ENDBRANCH  38  39
BRANCH  38  41
HETATM   41  C10 UNL     1      15.827  -3.016  -2.534  1.00  0.00     0.297 C 
BRANCH  41  42
HETATM   42  O4  UNL     1      16.751  -4.054  -2.321  1.00  0.00    -0.371 OA
ATOM     43  H4  UNL     1      17.585  -3.767  -1.969  1.00  0.00     0.212 HD
ENDBRANCH  41  42
BRANCH  41  44
HETATM   44  N15 UNL     1      14.495  -3.728  -2.329  1.00  0.00    -0.064 NA
BRANCH  44  45
HETATM   45  O5  UNL     1      13.569  -2.764  -2.394  1.00  0.00    -0.293 OA
ATOM     46  H5  UNL     1      12.823  -3.103  -1.915  1.00  0.00     0.238 HD
ENDBRANCH  44  45
ENDBRANCH  41  44
ENDBRANCH  38  41
ENDBRANCH  27  38
ENDBRANCH  18  21
ENDBRANCH   8  17
TORSDOF 11
ENDMDL
MODEL 2
REMARK VINA RESULT: -7.916856260      1.921      7.907
REMARK  11 active torsions:
REMARK  status: ('A' for Active; 'I' for Inactive)
REMARK       I    between atoms: N2_3  and  C2_5 
REMARK       I    between atoms: C2_5  and  N6_15 
REMARK    1  A    between atoms: N3_6  and  C3_8 
REMARK    2  A    between atoms: N6_15  and  N7_17 
REMARK    3  A    between atoms: N8_19  and  C5_21 
REMARK    4  A    between atoms: N11_26  and  C6_27 
REMARK    5  A    between atoms: C7_33  and  N14_34 
REMARK    6  A    between atoms: C8_37  and  C9_38 
REMARK    7  A    between atoms: C9_38  and  O3_39 
REMARK    8  A    between atoms: C9_38  and  C10_41 
REMARK    9  A    between atoms: C10_41  and  O4_42 
REMARK   10  A    between atoms: C10_41  and  N15_44 
REMARK   11  A    between atoms: N15_44  and  O5_45 
ROOT
HETATM    1  N1  UNL     1      16.653  -2.623  -2.018  1.00  0.00    -0.171 NA
HETATM    2  C1  UNL     1      16.055  -2.474  -3.014  1.00  0.00     0.196 C 
HETATM    3  N2  UNL     1      15.392  -2.295  -4.179  1.00  0.00    -0.124 N 
ATOM      4  H2  UNL     1      14.498  -1.811  -4.089  1.00  0.00     0.197 HD
HETATM    5  C2  UNL     1      15.699  -2.630  -5.374  1.00  0.00     0.708 C 
HETATM    6  N3  UNL     1      16.766  -3.255  -5.882  1.00  0.00    -0.171 N 
ATOM      7  H3  UNL     1      16.453  -3.860  -6.641  1.00  0.00     0.186 HD
HETATM    8  N6  UNL     1      14.581  -2.329  -6.344  1.00  0.00    -0.117 N 
ATOM      9  H6  UNL     1      14.669  -1.608  -7.060  1.00  0.00     0.207 HD
ENDROOT
BRANCH   6  10
HETATM   10  C3  UNL     1      17.996  -3.371  -5.770  1.00  0.00     0.160 A 
HETATM   11  C4  UNL     1      18.570  -4.452  -5.057  1.00  0.00     0.167 A 
HETATM   12  N4  UNL     1      19.896  -4.317  -5.112  1.00  0.00    -0.249 N 
HETATM   13  O1  UNL     1      20.179  -3.249  -5.801  1.00  0.00    -0.156 OA
ATOM     14  H4  UNL     1      20.576  -4.946  -4.685  1.00  0.00     0.196 HD
HETATM   15  N5  UNL     1      19.061  -2.680  -6.195  1.00  0.00    -0.224 N 
ATOM     16  H5  UNL     1      19.011  -1.826  -6.750  1.00  0.00     0.198 HD
ENDBRANCH   6  10
BRANCH   8  17
HETATM   17  N7  UNL     1      13.480  -3.053  -6.214  1.00  0.00    -0.227 N 
HETATM   18  N8  UNL     1      12.323  -3.226  -6.098  1.00  0.00    -0.267 N 
ATOM     19  H8  UNL     1      11.686  -2.428  -6.078  1.00  0.00     0.190 HD
ATOM     20  H7  UNL     1      13.843  -4.006  -6.215  1.00  0.00     0.209 HD
BRANCH  18  21
HETATM   21  C5  UNL     1      11.799  -4.586  -5.982  1.00  0.00     0.169 A 
HETATM   22  N9  UNL     1      11.390  -5.219  -7.106  1.00  0.00    -0.267 N 
HETATM   23  N10 UNL     1      11.066  -6.401  -6.721  1.00  0.00    -0.232 N 
ATOM     24  H9  UNL     1      11.348  -4.840  -8.052  1.00  0.00     0.190 HD
HETATM   25  N11 UNL     1      11.234  -6.606  -5.414  1.00  0.00    -0.214 N 
ATOM     26  H10 UNL     1      10.712  -7.116  -7.357  1.00  0.00     0.209 HD
HETATM   27  C8  UNL     1      11.697  -5.440  -4.929  1.00  0.00     0.139 A 
BRANCH  25  28
HETATM   28  C6  UNL     1      11.135  -7.909  -4.846  1.00  0.00     0.196 A 
HETATM   29  N12 UNL     1      11.871  -8.986  -4.798  1.00  0.00    -0.220 N 
HETATM   30  O2  UNL     1      11.272  -9.928  -4.159  1.00  0.00    -0.153 OA
ATOM     31  H12 UNL     1      12.799  -9.069  -5.213  1.00  0.00     0.198 HD
HETATM   32  N13 UNL     1      10.120  -9.539  -3.756  1.00  0.00    -0.222 N 
HETATM   33  C7  UNL     1       9.931  -8.258  -4.141  1.00  0.00     0.169 A 
ATOM     34  H13 UNL     1       9.453 -10.105  -3.230  1.00  0.00     0.198 HD
BRANCH  33  35
HETATM   35  N14 UNL     1       8.903  -7.541  -3.932  1.00  0.00    -0.381 N 
ATOM     36 2H14 UNL     1       8.344  -7.052  -4.631  1.00  0.00     0.157 HD
ATOM     37 1H14 UNL     1       8.461  -7.313  -3.042  1.00  0.00     0.157 HD
ENDBRANCH  33  35
ENDBRANCH  25  28
BRANCH  27  38
HETATM   38  C9  UNL     1      12.113  -5.091  -3.569  1.00  0.00     0.122 C 
BRANCH  38  39
HETATM   39  O3  UNL     1      13.269  -4.402  -3.468  1.00  0.00    -0.359 OA
ATOM     40  H3  UNL     1      13.598  -4.276  -2.586  1.00  0.00     0.217 HD
ENDBRANCH  38  39
BRANCH  38  41
HETATM   41  C10 UNL     1      11.022  -4.762  -2.587  1.00  0.00     0.297 C 
BRANCH  41  42
HETATM   42  O4  UNL     1      10.912  -3.395  -2.283  1.00  0.00    -0.371 OA
ATOM     43  H4  UNL     1      10.233  -3.189  -1.651  1.00  0.00     0.212 HD
ENDBRANCH  41  42
BRANCH  41  44
HETATM   44  N15 UNL     1      11.444  -5.355  -1.248  1.00  0.00    -0.064 NA
BRANCH  44  45
HETATM   45  O5  UNL     1      11.942  -6.562  -1.540  1.00  0.00    -0.293 OA
ATOM     46  H5  UNL     1      12.691  -6.393  -2.100  1.00  0.00     0.238 HD
ENDBRANCH  44  45
ENDBRANCH  41  44
ENDBRANCH  38  41
ENDBRANCH  27  38
ENDBRANCH  18  21
ENDBRANCH   8  17
TORSDOF 11
ENDMDL
MODEL 3
REMARK VINA RESULT: -7.851033036      3.779      8.467
REMARK  11 active torsions:
REMARK  status: ('A' for Active; 'I' for Inactive)
REMARK       I    between atoms: N2_3  and  C2_5 
REMARK       I    between atoms: C2_5  and  N6_15 
REMARK    1  A    between atoms: N3_6  and  C3_8 
REMARK    2  A    between atoms: N6_15  and  N7_17 
REMARK    3  A    between atoms: N8_19  and  C5_21 
REMARK    4  A    between atoms: N11_26  and  C6_27 
REMARK    5  A    between atoms: C7_33  and  N14_34 
REMARK    6  A    between atoms: C8_37  and  C9_38 
REMARK    7  A    between atoms: C9_38  and  O3_39 
REMARK    8  A    between atoms: C9_38  and  C10_41 
REMARK    9  A    between atoms: C10_41  and  O4_42 
REMARK   10  A    between atoms: C10_41  and  N15_44 
REMARK   11  A    between atoms: N15_44  and  O5_45 
ROOT
HETATM    1  N1  UNL     1      16.383  -3.032  -9.544  1.00  0.00    -0.171 NA
HETATM    2  C1  UNL     1      16.271  -2.417  -8.553  1.00  0.00     0.196 C 
HETATM    3  N2  UNL     1      16.163  -1.684  -7.422  1.00  0.00    -0.124 N 
ATOM      4  H2  UNL     1      16.176  -2.230  -6.560  1.00  0.00     0.197 HD
HETATM    5  C2  UNL     1      16.048  -0.422  -7.253  1.00  0.00     0.708 C 
HETATM    6  N3  UNL     1      16.004   0.596  -8.118  1.00  0.00    -0.171 N 
ATOM      7  H3  UNL     1      15.349   1.292  -7.762  1.00  0.00     0.186 HD
HETATM    8  N6  UNL     1      15.830  -0.070  -5.801  1.00  0.00    -0.117 N 
ATOM      9  H6  UNL     1      16.533   0.429  -5.257  1.00  0.00     0.207 HD
ENDROOT
BRANCH   6  10
HETATM   10  C3  UNL     1      16.466   1.007  -9.194  1.00  0.00     0.160 A 
HETATM   11  C4  UNL     1      15.662   1.083 -10.357  1.00  0.00     0.167 A 
HETATM   12  N4  UNL     1      16.420   1.562 -11.345  1.00  0.00    -0.249 N 
HETATM   13  O1  UNL     1      17.616   1.787 -10.881  1.00  0.00    -0.156 OA
ATOM     14  H4  UNL     1      16.114   1.724 -12.304  1.00  0.00     0.196 HD
HETATM   15  N5  UNL     1      17.655   1.461  -9.609  1.00  0.00    -0.224 N 
ATOM     16  H5  UNL     1      18.481   1.542  -9.016  1.00  0.00     0.198 HD
ENDBRANCH   6  10
BRANCH   8  17
HETATM   17  N7  UNL     1      14.674  -0.445  -5.272  1.00  0.00    -0.227 N 
HETATM   18  N8  UNL     1      13.510  -0.404  -5.112  1.00  0.00    -0.267 N 
ATOM     19  H8  UNL     1      12.946   0.269  -5.631  1.00  0.00     0.190 HD
ATOM     20  H7  UNL     1      14.954  -1.202  -4.648  1.00  0.00     0.209 HD
BRANCH  18  21
HETATM   21  C5  UNL     1      12.875  -1.322  -4.166  1.00  0.00     0.169 A 
HETATM   22  N9  UNL     1      11.726  -0.935  -3.565  1.00  0.00    -0.267 N 
HETATM   23  N10 UNL     1      11.359  -1.951  -2.868  1.00  0.00    -0.232 N 
ATOM     24  H9  UNL     1      11.253  -0.035  -3.648  1.00  0.00     0.190 HD
HETATM   25  N11 UNL     1      12.184  -2.995  -2.965  1.00  0.00    -0.214 N 
ATOM     26  H10 UNL     1      10.516  -1.957  -2.294  1.00  0.00     0.209 HD
HETATM   27  C8  UNL     1      13.167  -2.595  -3.791  1.00  0.00     0.139 A 
BRANCH  25  28
HETATM   28  C6  UNL     1      11.832  -4.272  -2.441  1.00  0.00     0.196 A 
HETATM   29  N12 UNL     1      11.894  -4.878  -1.286  1.00  0.00    -0.220 N 
HETATM   30  O2  UNL     1      11.456  -6.084  -1.372  1.00  0.00    -0.153 OA
ATOM     31  H12 UNL     1      12.245  -4.451  -0.428  1.00  0.00     0.198 HD
HETATM   32  N13 UNL     1      11.087  -6.346  -2.571  1.00  0.00    -0.222 N 
HETATM   33  C7  UNL     1      11.283  -5.253  -3.338  1.00  0.00     0.169 A 
ATOM     34  H13 UNL     1      10.707  -7.237  -2.893  1.00  0.00     0.198 HD
BRANCH  33  35
HETATM   35  N14 UNL     1      11.046  -5.139  -4.582  1.00  0.00    -0.381 N 
ATOM     36 2H14 UNL     1      10.843  -4.278  -5.091  1.00  0.00     0.157 HD
ATOM     37 1H14 UNL     1      11.000  -5.874  -5.287  1.00  0.00     0.157 HD
ENDBRANCH  33  35
ENDBRANCH  25  28
BRANCH  27  38
HETATM   38  C9  UNL     1      14.317  -3.340  -4.306  1.00  0.00     0.122 C 
BRANCH  38  39
HETATM   39  O3  UNL     1      14.547  -3.223  -5.631  1.00  0.00    -0.359 OA
ATOM     40  H3  UNL     1      14.671  -4.039  -6.101  1.00  0.00     0.217 HD
ENDBRANCH  38  39
BRANCH  38  41
HETATM   41  C10 UNL     1      15.516  -3.451  -3.402  1.00  0.00     0.297 C 
BRANCH  41  42
HETATM   42  O4  UNL     1      15.205  -3.457  -2.031  1.00  0.00    -0.371 OA
ATOM     43  H4  UNL     1      15.134  -2.593  -1.643  1.00  0.00     0.212 HD
ENDBRANCH  41  42
BRANCH  41  44
HETATM   44  N15 UNL     1      16.297  -2.151  -3.547  1.00  0.00    -0.064 NA
BRANCH  44  45
HETATM   45  O5  UNL     1      17.129  -2.355  -4.574  1.00  0.00    -0.293 OA
ATOM     46  H5  UNL     1      17.539  -1.513  -4.734  1.00  0.00     0.238 HD
ENDBRANCH  44  45
ENDBRANCH  41  44
ENDBRANCH  38  41
ENDBRANCH  27  38
ENDBRANCH  18  21
ENDBRANCH   8  17
TORSDOF 11
ENDMDL
MODEL 4
REMARK VINA RESULT: -7.760020748      3.305      7.737
REMARK  11 active torsions:
REMARK  status: ('A' for Active; 'I' for Inactive)
REMARK       I    between atoms: N2_3  and  C2_5 
REMARK       I    between atoms: C2_5  and  N6_15 
REMARK    1  A    between atoms: N3_6  and  C3_8 
REMARK    2  A    between atoms: N6_15  and  N7_17 
REMARK    3  A    between atoms: N8_19  and  C5_21 
REMARK    4  A    between atoms: N11_26  and  C6_27 
REMARK    5  A    between atoms: C7_33  and  N14_34 
REMARK    6  A    between atoms: C8_37  and  C9_38 
REMARK    7  A    between atoms: C9_38  and  O3_39 
REMARK    8  A    between atoms: C9_38  and  C10_41 
REMARK    9  A    between atoms: C10_41  and  O4_42 
REMARK   10  A    between atoms: C10_41  and  N15_44 
REMARK   11  A    between atoms: N15_44  and  O5_45 
ROOT
HETATM    1  N1  UNL     1      19.416  -2.689  -1.482  1.00  0.00    -0.171 NA
HETATM    2  C1  UNL     1      19.068  -3.043  -2.544  1.00  0.00     0.196 C 
HETATM    3  N2  UNL     1      18.695  -3.470  -3.771  1.00  0.00    -0.124 N 
ATOM      4  H2  UNL     1      18.280  -2.750  -4.364  1.00  0.00     0.197 HD
HETATM    5  C2  UNL     1      18.775  -4.626  -4.313  1.00  0.00     0.708 C 
HETATM    6  N3  UNL     1      19.256  -5.791  -3.868  1.00  0.00    -0.171 N 
ATOM      7  H3  UNL     1      18.666  -6.541  -4.229  1.00  0.00     0.186 HD
HETATM    8  N6  UNL     1      18.109  -4.655  -5.668  1.00  0.00    -0.117 N 
ATOM      9  H6  UNL     1      18.644  -4.769  -6.528  1.00  0.00     0.207 HD
ENDROOT
BRANCH   6  10
HETATM   10  C3  UNL     1      20.154  -6.297  -3.178  1.00  0.00     0.160 A 
HETATM   11  C4  UNL     1      19.857  -7.234  -2.158  1.00  0.00     0.167 A 
HETATM   12  N4  UNL     1      21.009  -7.605  -1.599  1.00  0.00    -0.249 N 
HETATM   13  O1  UNL     1      21.983  -6.977  -2.193  1.00  0.00    -0.156 OA
ATOM     14  H4  UNL     1      21.111  -8.269  -0.832  1.00  0.00     0.196 HD
HETATM   15  N5  UNL     1      21.488  -6.199  -3.129  1.00  0.00    -0.224 N 
ATOM     16  H5  UNL     1      22.045  -5.599  -3.738  1.00  0.00     0.198 HD
ENDBRANCH   6  10
BRANCH   8  17
HETATM   17  N7  UNL     1      16.791  -4.525  -5.677  1.00  0.00    -0.227 N 
HETATM   18  N8  UNL     1      15.746  -4.268  -6.152  1.00  0.00    -0.267 N 
ATOM     19  H8  UNL     1      15.688  -3.956  -7.121  1.00  0.00     0.190 HD
ATOM     20  H7  UNL     1      16.536  -4.812  -4.732  1.00  0.00     0.209 HD
BRANCH  18  21
HETATM   21  C5  UNL     1      14.531  -4.397  -5.348  1.00  0.00     0.169 A 
HETATM   22  N9  UNL     1      13.530  -5.179  -5.813  1.00  0.00    -0.267 N 
HETATM   23  N10 UNL     1      12.645  -5.172  -4.882  1.00  0.00    -0.232 N 
ATOM     24  H9  UNL     1      13.486  -5.667  -6.708  1.00  0.00     0.190 HD
HETATM   25  N11 UNL     1      12.988  -4.442  -3.819  1.00  0.00    -0.214 N 
ATOM     26  H10 UNL     1      11.762  -5.678  -4.949  1.00  0.00     0.209 HD
HETATM   27  C8  UNL     1      14.197  -3.932  -4.116  1.00  0.00     0.139 A 
BRANCH  25  28
HETATM   28  C6  UNL     1      12.238  -4.489  -2.609  1.00  0.00     0.196 A 
HETATM   29  N12 UNL     1      11.839  -5.408  -1.772  1.00  0.00    -0.220 N 
HETATM   30  O2  UNL     1      11.134  -4.896  -0.824  1.00  0.00    -0.153 OA
ATOM     31  H12 UNL     1      12.056  -6.401  -1.857  1.00  0.00     0.198 HD
HETATM   32  N13 UNL     1      11.023  -3.629  -0.979  1.00  0.00    -0.222 N 
HETATM   33  C7  UNL     1      11.695  -3.262  -2.091  1.00  0.00     0.169 A 
ATOM     34  H13 UNL     1      10.510  -2.999  -0.361  1.00  0.00     0.198 HD
BRANCH  33  35
HETATM   35  N14 UNL     1      11.799  -2.090  -2.570  1.00  0.00    -0.381 N 
ATOM     36 2H14 UNL     1      12.598  -1.700  -3.070  1.00  0.00     0.157 HD
ATOM     37 1H14 UNL     1      11.122  -1.328  -2.531  1.00  0.00     0.157 HD
ENDBRANCH  33  35
ENDBRANCH  25  28
BRANCH  27  38
HETATM   38  C9  UNL     1      15.086  -3.100  -3.302  1.00  0.00     0.122 C 
BRANCH  38  39
HETATM   39  O3  UNL     1      16.115  -3.745  -2.713  1.00  0.00    -0.359 OA
ATOM     40  H3  UNL     1      16.694  -3.204  -2.189  1.00  0.00     0.217 HD
ENDBRANCH  38  39
BRANCH  38  41
HETATM   41  C10 UNL     1      15.332  -1.695  -3.782  1.00  0.00     0.297 C 
BRANCH  41  42
HETATM   42  O4  UNL     1      14.308  -1.175  -4.592  1.00  0.00    -0.371 OA
ATOM     43  H4  UNL     1      14.247  -0.227  -4.583  1.00  0.00     0.212 HD
ENDBRANCH  41  42
BRANCH  41  44
HETATM   44  N15 UNL     1      16.504  -1.763  -4.753  1.00  0.00    -0.064 NA
BRANCH  44  45
HETATM   45  O5  UNL     1      16.018  -1.324  -5.920  1.00  0.00    -0.293 OA
ATOM     46  H5  UNL     1      15.182  -1.761  -6.022  1.00  0.00     0.238 HD
ENDBRANCH  44  45
ENDBRANCH  41  44
ENDBRANCH  38  41
ENDBRANCH  27  38
ENDBRANCH  18  21
ENDBRANCH   8  17
TORSDOF 11
ENDMDL
MODEL 5
REMARK VINA RESULT: -7.730561977      2.364      8.280
REMARK  11 active torsions:
REMARK  status: ('A' for Active; 'I' for Inactive)
REMARK       I    between atoms: N2_3  and  C2_5 
REMARK       I    between atoms: C2_5  and  N6_15 
REMARK    1  A    between atoms: N3_6  and  C3_8 
REMARK    2  A    between atoms: N6_15  and  N7_17 
REMARK    3  A    between atoms: N8_19  and  C5_21 
REMARK    4  A    between atoms: N11_26  and  C6_27 
REMARK    5  A    between atoms: C7_33  and  N14_34 
REMARK    6  A    between atoms: C8_37  and  C9_38 
REMARK    7  A    between atoms: C9_38  and  O3_39 
REMARK    8  A    between atoms: C9_38  and  C10_41 
REMARK    9  A    between atoms: C10_41  and  O4_42 
REMARK   10  A    between atoms: C10_41  and  N15_44 
REMARK   11  A    between atoms: N15_44  and  O5_45 
ROOT
HETATM    1  N1  UNL     1      18.593  -5.332  -1.860  1.00  0.00    -0.171 NA
HETATM    2  C1  UNL     1      17.820  -4.471  -2.044  1.00  0.00     0.196 C 
HETATM    3  N2  UNL     1      16.950  -3.461  -2.271  1.00  0.00    -0.124 N 
ATOM      4  H2  UNL     1      16.356  -3.224  -1.476  1.00  0.00     0.197 HD
HETATM    5  C2  UNL     1      16.749  -2.753  -3.317  1.00  0.00     0.708 C 
HETATM    6  N3  UNL     1      17.322  -2.757  -4.524  1.00  0.00    -0.171 N 
ATOM      7  H3  UNL     1      16.605  -2.558  -5.221  1.00  0.00     0.186 HD
HETATM    8  N6  UNL     1      15.577  -1.817  -3.141  1.00  0.00    -0.117 N 
ATOM      9  H6  UNL     1      15.698  -0.806  -3.092  1.00  0.00     0.207 HD
ENDROOT
BRANCH   6  10
HETATM   10  C3  UNL     1      18.405  -2.913  -5.109  1.00  0.00     0.160 A 
HETATM   11  C4  UNL     1      18.784  -2.078  -6.189  1.00  0.00     0.167 A 
HETATM   12  N4  UNL     1      19.986  -2.477  -6.608  1.00  0.00    -0.249 N 
HETATM   13  O1  UNL     1      20.373  -3.480  -5.873  1.00  0.00    -0.156 OA
ATOM     14  H4  UNL     1      20.514  -2.064  -7.377  1.00  0.00     0.196 HD
HETATM   15  N5  UNL     1      19.444  -3.748  -4.983  1.00  0.00    -0.224 N 
ATOM     16  H5  UNL     1      19.506  -4.493  -4.289  1.00  0.00     0.198 HD
ENDBRANCH   6  10
BRANCH   8  17
HETATM   17  N7  UNL     1      14.382  -2.382  -3.054  1.00  0.00    -0.227 N 
HETATM   18  N8  UNL     1      13.208  -2.393  -2.979  1.00  0.00    -0.267 N 
ATOM     19  H8  UNL     1      12.688  -1.516  -2.977  1.00  0.00     0.190 HD
ATOM     20  H7  UNL     1      14.610  -3.376  -3.047  1.00  0.00     0.209 HD
BRANCH  18  21
HETATM   21  C5  UNL     1      12.498  -3.668  -2.890  1.00  0.00     0.169 A 
HETATM   22  N9  UNL     1      12.212  -4.163  -1.663  1.00  0.00    -0.267 N 
HETATM   23  N10 UNL     1      11.526  -5.227  -1.887  1.00  0.00    -0.232 N 
ATOM     24  H9  UNL     1      12.481  -3.776  -0.758  1.00  0.00     0.190 HD
HETATM   25  N11 UNL     1      11.329  -5.477  -3.182  1.00  0.00    -0.214 N 
ATOM     26  H10 UNL     1      11.167  -5.824  -1.143  1.00  0.00     0.209 HD
HETATM   27  C8  UNL     1      11.959  -4.483  -3.835  1.00  0.00     0.139 A 
BRANCH  25  28
HETATM   28  C6  UNL     1      10.417  -6.482  -3.617  1.00  0.00     0.196 A 
HETATM   29  N12 UNL     1       9.391  -6.553  -4.419  1.00  0.00    -0.220 N 
HETATM   30  O2  UNL     1       8.888  -7.738  -4.424  1.00  0.00    -0.153 OA
ATOM     31  H12 UNL     1       9.033  -5.773  -4.971  1.00  0.00     0.198 HD
HETATM   32  N13 UNL     1       9.539  -8.507  -3.633  1.00  0.00    -0.222 N 
HETATM   33  C7  UNL     1      10.543  -7.804  -3.065  1.00  0.00     0.169 A 
ATOM     34  H13 UNL     1       9.334  -9.492  -3.461  1.00  0.00     0.198 HD
BRANCH  33  35
HETATM   35  N14 UNL     1      11.390  -8.229  -2.219  1.00  0.00    -0.381 N 
ATOM     36 2H14 UNL     1      11.542  -7.877  -1.273  1.00  0.00     0.157 HD
ATOM     37 1H14 UNL     1      12.075  -8.977  -2.330  1.00  0.00     0.157 HD
ENDBRANCH  33  35
ENDBRANCH  25  28
BRANCH  27  38
HETATM   38  C9  UNL     1      12.034  -4.207  -5.270  1.00  0.00     0.122 C 
BRANCH  38  39
HETATM   39  O3  UNL     1      11.607  -2.986  -5.656  1.00  0.00    -0.359 OA
ATOM     40  H3  UNL     1      11.268  -2.928  -6.542  1.00  0.00     0.217 HD
ENDBRANCH  38  39
BRANCH  38  41
HETATM   41  C10 UNL     1      13.197  -4.802  -6.018  1.00  0.00     0.297 C 
BRANCH  41  42
HETATM   42  O4  UNL     1      13.380  -6.178  -5.800  1.00  0.00    -0.371 OA
ATOM     43  H4  UNL     1      13.520  -6.684  -6.591  1.00  0.00     0.212 HD
ENDBRANCH  41  42
BRANCH  41  44
HETATM   44  N15 UNL     1      14.461  -4.210  -5.407  1.00  0.00    -0.064 NA
BRANCH  44  45
HETATM   45  O5  UNL     1      14.520  -2.956  -5.869  1.00  0.00    -0.293 OA
ATOM     46  H5  UNL     1      15.087  -2.997  -6.630  1.00  0.00     0.238 HD
ENDBRANCH  44  45
ENDBRANCH  41  44
ENDBRANCH  38  41
ENDBRANCH  27  38
ENDBRANCH  18  21
ENDBRANCH   8  17
TORSDOF 11
ENDMDL
