MODEL 1
REMARK VINA RESULT: -7.598095056      0.000      0.000
REMARK  11 active torsions:
REMARK  status: ('A' for Active; 'I' for Inactive)
REMARK    1  A    between atoms: C2_2  and  C3_3 
REMARK    2  A    between atoms: C4_8  and  N3_9 
REMARK       I    between atoms: N3_9  and  C5_11 
REMARK    3  A    between atoms: C7_19  and  N8_20 
REMARK    4  A    between atoms: N8_20  and  C8_22 
REMARK    5  A    between atoms: C8_22  and  C9_23 
REMARK    6  A    between atoms: C9_23  and  C10_24 
REMARK    7  A    between atoms: C10_24  and  C11_25 
REMARK    8  A    between atoms: C11_25  and  C12_26 
REMARK    9  A    between atoms: C12_26  and  C13_27 
REMARK   10  A    between atoms: C13_27  and  C14_28 
REMARK   11  A    between atoms: C14_28  and  C15_29 
ROOT
HETATM    1  N3  UNL     1      -5.638  25.755  48.380  1.00  0.00    -0.161 N 
ATOM      2  H3  UNL     1      -5.516  26.739  48.615  1.00  0.00     0.187 HD
HETATM    3  C5  UNL     1      -6.860  25.146  48.696  1.00  0.00     0.215 C 
HETATM    4  N4  UNL     1      -6.996  24.299  49.826  1.00  0.00    -0.062 NA
HETATM    5  N5  UNL     1      -7.880  25.366  47.938  1.00  0.00    -0.267 N 
ATOM      6  H5  UNL     1      -8.766  24.919  48.177  1.00  0.00     0.180 HD
HETATM    7  C6  UNL     1      -7.836  26.182  46.813  1.00  0.00     0.184 C 
HETATM    8  N6  UNL     1      -7.782  26.865  45.862  1.00  0.00    -0.172 NA
ENDROOT
BRANCH   1   9
HETATM    9  C4  UNL     1      -4.654  25.136  47.804  1.00  0.00     0.701 A 
HETATM   10  N2  UNL     1      -4.400  23.849  48.007  1.00  0.00    -0.131 N 
HETATM   11  N1  UNL     1      -3.388  23.281  47.394  1.00  0.00    -0.283 N 
ATOM     12  H2  UNL     1      -4.988  23.304  48.636  1.00  0.00     0.205 HD
HETATM   13  C3  UNL     1      -2.562  23.952  46.541  1.00  0.00     0.092 A 
ATOM     14  H1  UNL     1      -3.211  22.291  47.564  1.00  0.00     0.187 HD
HETATM   15  C7  UNL     1      -2.790  25.287  46.302  1.00  0.00     0.149 A 
HETATM   16  N7  UNL     1      -3.885  25.825  46.989  1.00  0.00    -0.173 N 
ATOM     17  H7  UNL     1      -4.100  26.812  46.849  1.00  0.00     0.186 HD
BRANCH  13  18
HETATM   18  C2  UNL     1      -1.459  23.223  45.907  1.00  0.00     0.024 C 
HETATM   19  C1  UNL     1      -1.035  22.110  46.502  1.00  0.00     0.013 C 
ENDBRANCH  13  18
BRANCH  15  20
HETATM   20  N8  UNL     1      -2.162  26.039  45.578  1.00  0.00    -0.354 N 
ATOM     21  H8  UNL     1      -2.852  26.409  44.924  1.00  0.00     0.166 HD
BRANCH  20  22
HETATM   22  C8  UNL     1      -1.008  26.617  45.221  1.00  0.00     0.062 C 
BRANCH  22  23
HETATM   23  C9  UNL     1      -0.711  26.710  43.726  1.00  0.00     0.044 C 
BRANCH  23  24
HETATM   24  C10 UNL     1       0.202  25.581  43.334  1.00  0.00     0.005 C 
BRANCH  24  25
HETATM   25  C11 UNL     1       0.810  25.707  41.977  1.00  0.00     0.000 C 
BRANCH  25  26
HETATM   26  C12 UNL     1      -0.179  25.188  40.952  1.00  0.00     0.000 C 
BRANCH  26  27
HETATM   27  C13 UNL     1      -0.718  23.831  41.294  1.00  0.00     0.000 C 
BRANCH  27  28
HETATM   28  C14 UNL     1      -1.059  23.066  40.056  1.00  0.00    -0.000 C 
BRANCH  28  29
HETATM   29  C15 UNL     1       0.161  23.083  39.130  1.00  0.00    -0.005 C 
HETATM   30  C16 UNL     1       0.445  21.636  38.763  1.00  0.00     0.005 C 
ENDBRANCH  28  29
ENDBRANCH  27  28
ENDBRANCH  26  27
ENDBRANCH  25  26
ENDBRANCH  24  25
ENDBRANCH  23  24
ENDBRANCH  22  23
ENDBRANCH  20  22
ENDBRANCH  15  20
ENDBRANCH   1   9
TORSDOF 11
ENDMDL
MODEL 2
REMARK VINA RESULT: -7.548164376      1.086      1.873
REMARK  11 active torsions:
REMARK  status: ('A' for Active; 'I' for Inactive)
REMARK    1  A    between atoms: C2_2  and  C3_3 
REMARK    2  A    between atoms: C4_8  and  N3_9 
REMARK       I    between atoms: N3_9  and  C5_11 
REMARK    3  A    between atoms: C7_19  and  N8_20 
REMARK    4  A    between atoms: N8_20  and  C8_22 
REMARK    5  A    between atoms: C8_22  and  C9_23 
REMARK    6  A    between atoms: C9_23  and  C10_24 
REMARK    7  A    between atoms: C10_24  and  C11_25 
REMARK    8  A    between atoms: C11_25  and  C12_26 
REMARK    9  A    between atoms: C12_26  and  C13_27 
REMARK   10  A    between atoms: C13_27  and  C14_28 
REMARK   11  A    between atoms: C14_28  and  C15_29 
ROOT
HETATM    1  N3  UNL     1      -5.986  24.985  46.750  1.00  0.00    -0.161 N 
ATOM      2  H3  UNL     1      -6.795  24.365  46.767  1.00  0.00     0.187 HD
HETATM    3  C5  UNL     1      -6.200  26.356  46.939  1.00  0.00     0.215 C 
HETATM    4  N4  UNL     1      -6.198  27.265  45.850  1.00  0.00    -0.062 NA
HETATM    5  N5  UNL     1      -6.405  26.796  48.135  1.00  0.00    -0.267 N 
ATOM      6  H5  UNL     1      -6.561  27.796  48.263  1.00  0.00     0.180 HD
HETATM    7  C6  UNL     1      -6.425  25.977  49.258  1.00  0.00     0.184 C 
HETATM    8  N6  UNL     1      -6.430  25.276  50.197  1.00  0.00    -0.172 NA
ENDROOT
BRANCH   1   9
HETATM    9  C4  UNL     1      -4.815  24.460  46.554  1.00  0.00     0.701 A 
HETATM   10  N2  UNL     1      -4.383  23.401  47.228  1.00  0.00    -0.131 N 
HETATM   11  N1  UNL     1      -3.188  22.919  46.984  1.00  0.00    -0.283 N 
ATOM     12  H2  UNL     1      -4.977  22.966  47.933  1.00  0.00     0.205 HD
HETATM   13  C3  UNL     1      -2.343  23.453  46.056  1.00  0.00     0.092 A 
ATOM     14  H1  UNL     1      -2.876  22.104  47.513  1.00  0.00     0.187 HD
HETATM   15  C7  UNL     1      -2.752  24.551  45.335  1.00  0.00     0.149 A 
HETATM   16  N7  UNL     1      -4.036  25.011  45.649  1.00  0.00    -0.173 N 
ATOM     17  H7  UNL     1      -4.390  25.823  45.144  1.00  0.00     0.186 HD
BRANCH  13  18
HETATM   18  C2  UNL     1      -1.028  22.835  45.860  1.00  0.00     0.024 C 
HETATM   19  C1  UNL     1      -0.695  21.830  46.666  1.00  0.00     0.013 C 
ENDBRANCH  13  18
BRANCH  15  20
HETATM   20  N8  UNL     1      -2.137  25.155  44.474  1.00  0.00    -0.354 N 
ATOM     21  H8  UNL     1      -2.334  24.650  43.609  1.00  0.00     0.166 HD
BRANCH  20  22
HETATM   22  C8  UNL     1      -1.330  26.158  44.108  1.00  0.00     0.062 C 
BRANCH  22  23
HETATM   23  C9  UNL     1       0.171  25.943  44.287  1.00  0.00     0.044 C 
BRANCH  23  24
HETATM   24  C10 UNL     1       0.771  25.537  42.968  1.00  0.00     0.005 C 
BRANCH  24  25
HETATM   25  C11 UNL     1       0.013  25.994  41.766  1.00  0.00     0.000 C 
BRANCH  25  26
HETATM   26  C12 UNL     1       0.059  24.898  40.719  1.00  0.00     0.000 C 
BRANCH  26  27
HETATM   27  C13 UNL     1      -0.776  23.707  41.082  1.00  0.00     0.000 C 
BRANCH  27  28
HETATM   28  C14 UNL     1      -1.028  22.848  39.885  1.00  0.00    -0.000 C 
BRANCH  28  29
HETATM   29  C15 UNL     1       0.212  22.903  38.985  1.00  0.00    -0.005 C 
HETATM   30  C16 UNL     1       0.550  21.465  38.629  1.00  0.00     0.005 C 
ENDBRANCH  28  29
ENDBRANCH  27  28
ENDBRANCH  26  27
ENDBRANCH  25  26
ENDBRANCH  24  25
ENDBRANCH  23  24
ENDBRANCH  22  23
ENDBRANCH  20  22
ENDBRANCH  15  20
ENDBRANCH   1   9
TORSDOF 11
ENDMDL
MODEL 3
REMARK VINA RESULT: -7.014640168      1.852      3.257
REMARK  11 active torsions:
REMARK  status: ('A' for Active; 'I' for Inactive)
REMARK    1  A    between atoms: C2_2  and  C3_3 
REMARK    2  A    between atoms: C4_8  and  N3_9 
REMARK       I    between atoms: N3_9  and  C5_11 
REMARK    3  A    between atoms: C7_19  and  N8_20 
REMARK    4  A    between atoms: N8_20  and  C8_22 
REMARK    5  A    between atoms: C8_22  and  C9_23 
REMARK    6  A    between atoms: C9_23  and  C10_24 
REMARK    7  A    between atoms: C10_24  and  C11_25 
REMARK    8  A    between atoms: C11_25  and  C12_26 
REMARK    9  A    between atoms: C12_26  and  C13_27 
REMARK   10  A    between atoms: C13_27  and  C14_28 
REMARK   11  A    between atoms: C14_28  and  C15_29 
ROOT
HETATM    1  N3  UNL     1      -6.666  23.660  50.475  1.00  0.00    -0.161 N 
ATOM      2  H3  UNL     1      -6.919  23.018  51.225  1.00  0.00     0.187 HD
HETATM    3  C5  UNL     1      -7.589  24.650  50.114  1.00  0.00     0.215 C 
HETATM    4  N4  UNL     1      -8.397  24.525  48.956  1.00  0.00    -0.062 NA
HETATM    5  N5  UNL     1      -7.701  25.699  50.859  1.00  0.00    -0.267 N 
ATOM      6  H5  UNL     1      -8.375  26.415  50.588  1.00  0.00     0.180 HD
HETATM    7  C6  UNL     1      -6.950  25.903  52.011  1.00  0.00     0.184 C 
HETATM    8  N6  UNL     1      -6.303  26.065  52.975  1.00  0.00    -0.172 NA
ENDROOT
BRANCH   1   9
HETATM    9  C4  UNL     1      -5.508  23.514  49.908  1.00  0.00     0.701 A 
HETATM   10  N2  UNL     1      -4.440  23.074  50.563  1.00  0.00    -0.131 N 
HETATM   11  N1  UNL     1      -3.297  22.950  49.931  1.00  0.00    -0.283 N 
ATOM     12  H2  UNL     1      -4.509  22.835  51.551  1.00  0.00     0.205 HD
HETATM   13  C3  UNL     1      -3.136  23.253  48.611  1.00  0.00     0.092 A 
ATOM     14  H1  UNL     1      -2.489  22.610  50.453  1.00  0.00     0.187 HD
HETATM   15  C7  UNL     1      -4.218  23.712  47.896  1.00  0.00     0.149 A 
HETATM   16  N7  UNL     1      -5.404  23.820  48.633  1.00  0.00    -0.173 N 
ATOM     17  H7  UNL     1      -6.237  24.156  48.152  1.00  0.00     0.186 HD
BRANCH  13  18
HETATM   18  C2  UNL     1      -1.815  23.077  48.002  1.00  0.00     0.024 C 
HETATM   19  C1  UNL     1      -1.567  21.918  47.396  1.00  0.00     0.013 C 
ENDBRANCH  13  18
BRANCH  15  20
HETATM   20  N8  UNL     1      -4.261  24.029  46.720  1.00  0.00    -0.354 N 
ATOM     21  H8  UNL     1      -4.384  23.150  46.217  1.00  0.00     0.166 HD
BRANCH  20  22
HETATM   22  C8  UNL     1      -4.226  24.967  45.766  1.00  0.00     0.062 C 
BRANCH  22  23
HETATM   23  C9  UNL     1      -2.931  25.099  44.968  1.00  0.00     0.044 C 
BRANCH  23  24
HETATM   24  C10 UNL     1      -1.949  25.922  45.755  1.00  0.00     0.005 C 
BRANCH  24  25
HETATM   25  C11 UNL     1      -0.762  26.392  44.982  1.00  0.00     0.000 C 
BRANCH  25  26
HETATM   26  C12 UNL     1      -0.214  25.228  44.180  1.00  0.00     0.000 C 
BRANCH  26  27
HETATM   27  C13 UNL     1       0.686  25.661  43.062  1.00  0.00     0.000 C 
BRANCH  27  28
HETATM   28  C14 UNL     1       0.034  25.438  41.735  1.00  0.00    -0.000 C 
BRANCH  28  29
HETATM   29  C15 UNL     1      -0.886  24.217  41.853  1.00  0.00    -0.005 C 
HETATM   30  C16 UNL     1      -0.755  23.451  40.547  1.00  0.00     0.005 C 
ENDBRANCH  28  29
ENDBRANCH  27  28
ENDBRANCH  26  27
ENDBRANCH  25  26
ENDBRANCH  24  25
ENDBRANCH  23  24
ENDBRANCH  22  23
ENDBRANCH  20  22
ENDBRANCH  15  20
ENDBRANCH   1   9
TORSDOF 11
ENDMDL
MODEL 4
REMARK VINA RESULT: -6.955014005      1.269      1.396
REMARK  11 active torsions:
REMARK  status: ('A' for Active; 'I' for Inactive)
REMARK    1  A    between atoms: C2_2  and  C3_3 
REMARK    2  A    between atoms: C4_8  and  N3_9 
REMARK       I    between atoms: N3_9  and  C5_11 
REMARK    3  A    between atoms: C7_19  and  N8_20 
REMARK    4  A    between atoms: N8_20  and  C8_22 
REMARK    5  A    between atoms: C8_22  and  C9_23 
REMARK    6  A    between atoms: C9_23  and  C10_24 
REMARK    7  A    between atoms: C10_24  and  C11_25 
REMARK    8  A    between atoms: C11_25  and  C12_26 
REMARK    9  A    between atoms: C12_26  and  C13_27 
REMARK   10  A    between atoms: C13_27  and  C14_28 
REMARK   11  A    between atoms: C14_28  and  C15_29 
ROOT
HETATM    1  N3  UNL     1      -4.597  25.472  48.718  1.00  0.00    -0.161 N 
ATOM      2  H3  UNL     1      -4.285  26.409  48.969  1.00  0.00     0.187 HD
HETATM    3  C5  UNL     1      -5.967  25.189  48.793  1.00  0.00     0.215 C 
HETATM    4  N4  UNL     1      -6.515  24.458  49.877  1.00  0.00    -0.062 NA
HETATM    5  N5  UNL     1      -6.742  25.608  47.850  1.00  0.00    -0.267 N 
ATOM      6  H5  UNL     1      -7.739  25.397  47.913  1.00  0.00     0.180 HD
HETATM    7  C6  UNL     1      -6.290  26.331  46.752  1.00  0.00     0.184 C 
HETATM    8  N6  UNL     1      -5.893  26.932  45.828  1.00  0.00    -0.172 NA
ENDROOT
BRANCH   1   9
HETATM    9  C4  UNL     1      -3.703  24.607  48.346  1.00  0.00     0.701 A 
HETATM   10  N2  UNL     1      -3.332  23.587  49.111  1.00  0.00    -0.131 N 
HETATM   11  N1  UNL     1      -2.422  22.748  48.677  1.00  0.00    -0.283 N 
ATOM     12  H2  UNL     1      -3.753  23.457  50.031  1.00  0.00     0.205 HD
HETATM   13  C3  UNL     1      -1.820  22.864  47.459  1.00  0.00     0.092 A 
ATOM     14  H1  UNL     1      -2.152  21.970  49.280  1.00  0.00     0.187 HD
HETATM   15  C7  UNL     1      -2.176  23.907  46.635  1.00  0.00     0.149 A 
HETATM   16  N7  UNL     1      -3.151  24.762  47.163  1.00  0.00    -0.173 N 
ATOM     17  H7  UNL     1      -3.453  25.552  46.595  1.00  0.00     0.186 HD
BRANCH  13  18
HETATM   18  C2  UNL     1      -0.815  21.870  47.071  1.00  0.00     0.024 C 
HETATM   19  C1  UNL     1      -0.530  20.909  47.946  1.00  0.00     0.013 C 
ENDBRANCH  13  18
BRANCH  15  20
HETATM   20  N8  UNL     1      -1.748  24.166  45.525  1.00  0.00    -0.354 N 
ATOM     21  H8  UNL     1      -0.780  23.844  45.536  1.00  0.00     0.166 HD
BRANCH  20  22
HETATM   22  C8  UNL     1      -1.927  24.668  44.297  1.00  0.00     0.062 C 
BRANCH  22  23
HETATM   23  C9  UNL     1      -1.227  25.987  43.976  1.00  0.00     0.044 C 
BRANCH  23  24
HETATM   24  C10 UNL     1       0.112  25.696  43.358  1.00  0.00     0.005 C 
BRANCH  24  25
HETATM   25  C11 UNL     1       0.121  25.656  41.866  1.00  0.00     0.000 C 
BRANCH  25  26
HETATM   26  C12 UNL     1      -0.458  24.329  41.413  1.00  0.00     0.000 C 
BRANCH  26  27
HETATM   27  C13 UNL     1      -0.327  24.108  39.936  1.00  0.00     0.000 C 
BRANCH  27  28
HETATM   28  C14 UNL     1      -0.480  22.660  39.598  1.00  0.00    -0.000 C 
BRANCH  28  29
HETATM   29  C15 UNL     1       0.480  22.331  38.449  1.00  0.00    -0.005 C 
HETATM   30  C16 UNL     1       0.728  20.833  38.509  1.00  0.00     0.005 C 
ENDBRANCH  28  29
ENDBRANCH  27  28
ENDBRANCH  26  27
ENDBRANCH  25  26
ENDBRANCH  24  25
ENDBRANCH  23  24
ENDBRANCH  22  23
ENDBRANCH  20  22
ENDBRANCH  15  20
ENDBRANCH   1   9
TORSDOF 11
ENDMDL
MODEL 5
REMARK VINA RESULT: -6.898445198      1.904      4.417
REMARK  11 active torsions:
REMARK  status: ('A' for Active; 'I' for Inactive)
REMARK    1  A    between atoms: C2_2  and  C3_3 
REMARK    2  A    between atoms: C4_8  and  N3_9 
REMARK       I    between atoms: N3_9  and  C5_11 
REMARK    3  A    between atoms: C7_19  and  N8_20 
REMARK    4  A    between atoms: N8_20  and  C8_22 
REMARK    5  A    between atoms: C8_22  and  C9_23 
REMARK    6  A    between atoms: C9_23  and  C10_24 
REMARK    7  A    between atoms: C10_24  and  C11_25 
REMARK    8  A    between atoms: C11_25  and  C12_26 
REMARK    9  A    between atoms: C12_26  and  C13_27 
REMARK   10  A    between atoms: C13_27  and  C14_28 
REMARK   11  A    between atoms: C14_28  and  C15_29 
ROOT
HETATM    1  N3  UNL     1      -1.417  22.152  48.179  1.00  0.00    -0.161 N 
ATOM      2  H3  UNL     1      -1.050  22.236  49.127  1.00  0.00     0.187 HD
HETATM    3  C5  UNL     1      -1.024  21.047  47.414  1.00  0.00     0.215 C 
HETATM    4  N4  UNL     1      -0.034  21.159  46.404  1.00  0.00    -0.062 NA
HETATM    5  N5  UNL     1      -1.578  19.904  47.638  1.00  0.00    -0.267 N 
ATOM      6  H5  UNL     1      -1.285  19.105  47.075  1.00  0.00     0.180 HD
HETATM    7  C6  UNL     1      -2.555  19.705  48.607  1.00  0.00     0.184 C 
HETATM    8  N6  UNL     1      -3.384  19.554  49.422  1.00  0.00    -0.172 NA
ENDROOT
BRANCH   1   9
HETATM    9  C4  UNL     1      -2.222  23.075  47.750  1.00  0.00     0.701 A 
HETATM   10  N2  UNL     1      -3.479  23.178  48.164  1.00  0.00    -0.131 N 
HETATM   11  N1  UNL     1      -4.243  24.134  47.691  1.00  0.00    -0.283 N 
ATOM     12  H2  UNL     1      -3.849  22.517  48.847  1.00  0.00     0.205 HD
HETATM   13  C3  UNL     1      -3.812  25.050  46.777  1.00  0.00     0.092 A 
ATOM     14  H1  UNL     1      -5.206  24.195  48.023  1.00  0.00     0.187 HD
HETATM   15  C7  UNL     1      -2.516  24.979  46.322  1.00  0.00     0.149 A 
HETATM   16  N7  UNL     1      -1.760  23.935  46.869  1.00  0.00    -0.173 N 
ATOM     17  H7  UNL     1      -0.792  23.836  46.567  1.00  0.00     0.186 HD
BRANCH  13  18
HETATM   18  C2  UNL     1      -4.747  26.079  46.314  1.00  0.00     0.024 C 
HETATM   19  C1  UNL     1      -6.041  25.892  46.564  1.00  0.00     0.013 C 
ENDBRANCH  13  18
BRANCH  15  20
HETATM   20  N8  UNL     1      -1.963  25.705  45.514  1.00  0.00    -0.354 N 
ATOM     21  H8  UNL     1      -2.650  25.841  44.772  1.00  0.00     0.166 HD
BRANCH  20  22
HETATM   22  C8  UNL     1      -0.895  26.410  45.124  1.00  0.00     0.062 C 
BRANCH  22  23
HETATM   23  C9  UNL     1       0.195  25.659  44.363  1.00  0.00     0.044 C 
BRANCH  23  24
HETATM   24  C10 UNL     1      -0.355  25.201  43.040  1.00  0.00     0.005 C 
BRANCH  24  25
HETATM   25  C11 UNL     1       0.294  25.815  41.844  1.00  0.00     0.000 C 
BRANCH  25  26
HETATM   26  C12 UNL     1      -0.041  24.975  40.627  1.00  0.00     0.000 C 
BRANCH  26  27
HETATM   27  C13 UNL     1      -0.688  23.669  40.978  1.00  0.00     0.000 C 
BRANCH  27  28
HETATM   28  C14 UNL     1      -1.016  22.888  39.746  1.00  0.00    -0.000 C 
BRANCH  28  29
HETATM   29  C15 UNL     1       0.215  22.893  38.833  1.00  0.00    -0.005 C 
HETATM   30  C16 UNL     1       0.625  21.440  38.656  1.00  0.00     0.005 C 
ENDBRANCH  28  29
ENDBRANCH  27  28
ENDBRANCH  26  27
ENDBRANCH  25  26
ENDBRANCH  24  25
ENDBRANCH  23  24
ENDBRANCH  22  23
ENDBRANCH  20  22
ENDBRANCH  15  20
ENDBRANCH   1   9
TORSDOF 11
ENDMDL
