MODEL 1
REMARK VINA RESULT: -6.650508113      0.000      0.000
REMARK  10 active torsions:
REMARK  status: ('A' for Active; 'I' for Inactive)
REMARK    1  A    between atoms: C2_2  and  C3_3 
REMARK    2  A    between atoms: C3_3  and  N1_6 
REMARK    3  A    between atoms: N1_6  and  C6_9 
REMARK    4  A    between atoms: C6_9  and  C7_10 
REMARK    5  A    between atoms: C7_10  and  C8_11 
REMARK    6  A    between atoms: C8_11  and  C10_13 
REMARK    7  A    between atoms: C8_11  and  C15_19 
REMARK    8  A    between atoms: C10_13  and  C11_14 
REMARK    9  A    between atoms: C11_14  and  C12_15 
REMARK   10  A    between atoms: C16_20  and  O1_21 
ROOT
HETATM    1  C12 UNL     1      -6.233  26.537  46.197  1.00  0.00    -0.016 C 
HETATM    2  C13 UNL     1      -6.795  27.677  46.557  1.00  0.00     0.089 C 
HETATM    3  C14 UNL     1      -8.218  27.778  46.593  1.00  0.00     0.087 C 
HETATM    4  N2  UNL     1      -9.385  27.851  46.625  1.00  0.00    -0.192 NA
ENDROOT
BRANCH   1   5
HETATM    5  C11 UNL     1      -4.759  26.355  46.135  1.00  0.00     0.028 C 
BRANCH   5   6
HETATM    6  C10 UNL     1      -4.487  24.915  45.887  1.00  0.00     0.015 C 
BRANCH   6   7
HETATM    7  C8  UNL     1      -3.195  24.404  46.497  1.00  0.00    -0.009 C 
HETATM    8  C9  UNL     1      -2.500  25.672  46.962  1.00  0.00     0.018 C 
BRANCH   7   9
HETATM    9  C7  UNL     1      -2.428  23.904  45.293  1.00  0.00     0.039 C 
BRANCH   9  10
HETATM   10  C6  UNL     1      -2.418  24.835  44.110  1.00  0.00     0.234 C 
BRANCH  10  11
HETATM   11  N1  UNL     1      -1.157  24.509  43.413  1.00  0.00    -0.064 N 
ATOM     12  H12 UNL     1      -1.328  24.080  42.503  1.00  0.00     0.278 HD
ATOM     13  H11 UNL     1      -0.669  23.733  43.859  1.00  0.00     0.278 HD
BRANCH  11  14
HETATM   14  C3  UNL     1      -0.315  25.678  43.304  1.00  0.00     0.135 C 
HETATM   15  C4  UNL     1       0.875  25.444  44.220  1.00  0.00     0.050 C 
HETATM   16  C5  UNL     1      -1.001  26.929  43.768  1.00  0.00     0.050 C 
BRANCH  14  17
HETATM   17  C2  UNL     1       0.213  25.826  41.933  1.00  0.00     0.001 C 
HETATM   18  C1  UNL     1      -0.134  24.981  40.995  1.00  0.00     0.009 C 
ENDBRANCH  14  17
ENDBRANCH  11  14
ENDBRANCH  10  11
ENDBRANCH   9  10
ENDBRANCH   7   9
BRANCH   7  19
HETATM   19  C15 UNL     1      -3.419  23.401  47.536  1.00  0.00     0.259 C 
HETATM   20  C16 UNL     1      -2.225  22.465  47.609  1.00  0.00     0.152 C 
HETATM   21  C17 UNL     1      -2.820  21.118  48.069  1.00  0.00     0.035 C 
HETATM   22  C18 UNL     1      -3.253  21.387  49.472  1.00  0.00     0.033 C 
HETATM   23  C19 UNL     1      -3.811  22.691  49.779  1.00  0.00     0.272 C 
HETATM   24  N3  UNL     1      -3.674  23.780  48.861  1.00  0.00     0.092 N 
HETATM   25  C20 UNL     1      -4.756  24.668  49.140  1.00  0.00     0.310 C 
BRANCH  20  26
HETATM   26  O1  UNL     1      -1.351  22.812  48.651  1.00  0.00    -0.393 OA
ATOM     27  H1  UNL     1      -1.259  23.753  48.738  1.00  0.00     0.210 HD
ENDBRANCH  20  26
ENDBRANCH   7  19
ENDBRANCH   6   7
ENDBRANCH   5   6
ENDBRANCH   1   5
TORSDOF 10
ENDMDL
MODEL 2
REMARK VINA RESULT: -6.372584922      2.254      2.964
REMARK  10 active torsions:
REMARK  status: ('A' for Active; 'I' for Inactive)
REMARK    1  A    between atoms: C2_2  and  C3_3 
REMARK    2  A    between atoms: C3_3  and  N1_6 
REMARK    3  A    between atoms: N1_6  and  C6_9 
REMARK    4  A    between atoms: C6_9  and  C7_10 
REMARK    5  A    between atoms: C7_10  and  C8_11 
REMARK    6  A    between atoms: C8_11  and  C10_13 
REMARK    7  A    between atoms: C8_11  and  C15_19 
REMARK    8  A    between atoms: C10_13  and  C11_14 
REMARK    9  A    between atoms: C11_14  and  C12_15 
REMARK   10  A    between atoms: C16_20  and  O1_21 
ROOT
HETATM    1  C12 UNL     1      -6.512  26.075  49.598  1.00  0.00    -0.016 C 
HETATM    2  C13 UNL     1      -6.589  25.475  50.772  1.00  0.00     0.089 C 
HETATM    3  C14 UNL     1      -6.985  26.225  51.919  1.00  0.00     0.087 C 
HETATM    4  N2  UNL     1      -7.316  26.844  52.855  1.00  0.00    -0.192 NA
ENDROOT
BRANCH   1   5
HETATM    5  C11 UNL     1      -6.106  25.362  48.358  1.00  0.00     0.028 C 
BRANCH   5   6
HETATM    6  C10 UNL     1      -5.126  24.311  48.737  1.00  0.00     0.015 C 
BRANCH   6   7
HETATM    7  C8  UNL     1      -4.078  24.017  47.679  1.00  0.00    -0.009 C 
HETATM    8  C9  UNL     1      -2.929  24.935  48.058  1.00  0.00     0.018 C 
BRANCH   7   9
HETATM    9  C7  UNL     1      -4.697  24.591  46.424  1.00  0.00     0.039 C 
BRANCH   9  10
HETATM   10  C6  UNL     1      -3.750  25.356  45.537  1.00  0.00     0.234 C 
BRANCH  10  11
HETATM   11  N1  UNL     1      -3.299  24.351  44.551  1.00  0.00    -0.064 N 
ATOM     12  H12 UNL     1      -3.921  24.309  43.744  1.00  0.00     0.278 HD
ATOM     13  H11 UNL     1      -3.429  23.400  44.895  1.00  0.00     0.278 HD
BRANCH  11  14
HETATM   14  C3  UNL     1      -1.930  24.596  44.161  1.00  0.00     0.135 C 
HETATM   15  C4  UNL     1      -1.054  23.852  45.155  1.00  0.00     0.050 C 
HETATM   16  C5  UNL     1      -1.559  26.048  44.234  1.00  0.00     0.050 C 
BRANCH  14  17
HETATM   17  C2  UNL     1      -1.650  24.033  42.825  1.00  0.00     0.001 C 
HETATM   18  C1  UNL     1      -0.685  24.523  42.089  1.00  0.00     0.009 C 
ENDBRANCH  14  17
ENDBRANCH  11  14
ENDBRANCH  10  11
ENDBRANCH   9  10
ENDBRANCH   7   9
BRANCH   7  19
HETATM   19  C15 UNL     1      -3.740  22.598  47.597  1.00  0.00     0.259 C 
HETATM   20  C16 UNL     1      -2.443  22.338  48.343  1.00  0.00     0.152 C 
HETATM   21  C17 UNL     1      -1.800  21.152  47.595  1.00  0.00     0.035 C 
HETATM   22  C18 UNL     1      -2.714  20.011  47.894  1.00  0.00     0.033 C 
HETATM   23  C19 UNL     1      -4.140  20.275  47.965  1.00  0.00     0.272 C 
HETATM   24  N3  UNL     1      -4.632  21.616  48.051  1.00  0.00     0.092 N 
HETATM   25  C20 UNL     1      -5.960  21.582  47.531  1.00  0.00     0.310 C 
BRANCH  20  26
HETATM   26  O1  UNL     1      -2.673  21.828  49.631  1.00  0.00    -0.393 OA
ATOM     27  H1  UNL     1      -2.723  20.880  49.633  1.00  0.00     0.210 HD
ENDBRANCH  20  26
ENDBRANCH   7  19
ENDBRANCH   6   7
ENDBRANCH   5   6
ENDBRANCH   1   5
TORSDOF 10
ENDMDL
MODEL 3
REMARK VINA RESULT: -6.335437519      2.237      6.474
REMARK  10 active torsions:
REMARK  status: ('A' for Active; 'I' for Inactive)
REMARK    1  A    between atoms: C2_2  and  C3_3 
REMARK    2  A    between atoms: C3_3  and  N1_6 
REMARK    3  A    between atoms: N1_6  and  C6_9 
REMARK    4  A    between atoms: C6_9  and  C7_10 
REMARK    5  A    between atoms: C7_10  and  C8_11 
REMARK    6  A    between atoms: C8_11  and  C10_13 
REMARK    7  A    between atoms: C8_11  and  C15_19 
REMARK    8  A    between atoms: C10_13  and  C11_14 
REMARK    9  A    between atoms: C11_14  and  C12_15 
REMARK   10  A    between atoms: C16_20  and  O1_21 
ROOT
HETATM    1  C12 UNL     1      -7.416  25.803  47.297  1.00  0.00    -0.016 C 
HETATM    2  C13 UNL     1      -6.680  26.861  47.004  1.00  0.00     0.089 C 
HETATM    3  C14 UNL     1      -7.319  28.070  46.598  1.00  0.00     0.087 C 
HETATM    4  N2  UNL     1      -7.850  29.060  46.272  1.00  0.00    -0.192 NA
ENDROOT
BRANCH   1   5
HETATM    5  C11 UNL     1      -6.824  24.508  47.726  1.00  0.00     0.028 C 
BRANCH   5   6
HETATM    6  C10 UNL     1      -5.452  24.780  48.231  1.00  0.00     0.015 C 
BRANCH   6   7
HETATM    7  C8  UNL     1      -4.482  23.624  48.070  1.00  0.00    -0.009 C 
HETATM    8  C9  UNL     1      -5.393  22.424  47.885  1.00  0.00     0.018 C 
BRANCH   7   9
HETATM    9  C7  UNL     1      -3.874  23.500  49.449  1.00  0.00     0.039 C 
BRANCH   9  10
HETATM   10  C6  UNL     1      -4.450  22.403  50.305  1.00  0.00     0.234 C 
BRANCH  10  11
HETATM   11  N1  UNL     1      -4.904  23.105  51.524  1.00  0.00    -0.064 N 
ATOM     12  H12 UNL     1      -4.723  24.107  51.472  1.00  0.00     0.278 HD
ATOM     13  H11 UNL     1      -4.316  22.885  52.328  1.00  0.00     0.278 HD
BRANCH  11  14
HETATM   14  C3  UNL     1      -6.296  22.826  51.787  1.00  0.00     0.135 C 
HETATM   15  C4  UNL     1      -6.435  22.683  53.294  1.00  0.00     0.050 C 
HETATM   16  C5  UNL     1      -6.754  21.537  51.169  1.00  0.00     0.050 C 
BRANCH  14  17
HETATM   17  C2  UNL     1      -7.151  23.957  51.375  1.00  0.00     0.001 C 
HETATM   18  C1  UNL     1      -6.753  25.190  51.563  1.00  0.00     0.009 C 
ENDBRANCH  14  17
ENDBRANCH  11  14
ENDBRANCH  10  11
ENDBRANCH   9  10
ENDBRANCH   7   9
BRANCH   7  19
HETATM   19  C15 UNL     1      -3.516  23.843  46.996  1.00  0.00     0.259 C 
HETATM   20  C16 UNL     1      -3.379  25.331  46.727  1.00  0.00     0.152 C 
HETATM   21  C17 UNL     1      -3.038  25.420  45.225  1.00  0.00     0.035 C 
HETATM   22  C18 UNL     1      -1.670  24.832  45.139  1.00  0.00     0.033 C 
HETATM   23  C19 UNL     1      -1.354  23.705  45.998  1.00  0.00     0.272 C 
HETATM   24  N3  UNL     1      -2.203  23.362  47.097  1.00  0.00     0.092 N 
HETATM   25  C20 UNL     1      -1.982  21.974  47.348  1.00  0.00     0.310 C 
BRANCH  20  26
HETATM   26  O1  UNL     1      -2.246  25.875  47.353  1.00  0.00    -0.393 OA
ATOM     27  H1  UNL     1      -1.767  26.457  46.776  1.00  0.00     0.210 HD
ENDBRANCH  20  26
ENDBRANCH   7  19
ENDBRANCH   6   7
ENDBRANCH   5   6
ENDBRANCH   1   5
TORSDOF 10
ENDMDL
MODEL 4
REMARK VINA RESULT: -6.242847536      1.540      2.051
REMARK  10 active torsions:
REMARK  status: ('A' for Active; 'I' for Inactive)
REMARK    1  A    between atoms: C2_2  and  C3_3 
REMARK    2  A    between atoms: C3_3  and  N1_6 
REMARK    3  A    between atoms: N1_6  and  C6_9 
REMARK    4  A    between atoms: C6_9  and  C7_10 
REMARK    5  A    between atoms: C7_10  and  C8_11 
REMARK    6  A    between atoms: C8_11  and  C10_13 
REMARK    7  A    between atoms: C8_11  and  C15_19 
REMARK    8  A    between atoms: C10_13  and  C11_14 
REMARK    9  A    between atoms: C11_14  and  C12_15 
REMARK   10  A    between atoms: C16_20  and  O1_21 
ROOT
HETATM    1  C12 UNL     1      -7.205  26.069  47.825  1.00  0.00    -0.016 C 
HETATM    2  C13 UNL     1      -7.258  26.983  46.872  1.00  0.00     0.089 C 
HETATM    3  C14 UNL     1      -8.499  27.248  46.222  1.00  0.00     0.087 C 
HETATM    4  N2  UNL     1      -9.522  27.464  45.696  1.00  0.00    -0.192 NA
ENDROOT
BRANCH   1   5
HETATM    5  C11 UNL     1      -5.950  25.736  48.548  1.00  0.00     0.028 C 
BRANCH   5   6
HETATM    6  C10 UNL     1      -5.662  24.295  48.324  1.00  0.00     0.015 C 
BRANCH   6   7
HETATM    7  C8  UNL     1      -4.383  24.021  47.555  1.00  0.00    -0.009 C 
HETATM    8  C9  UNL     1      -3.423  25.072  48.083  1.00  0.00     0.018 C 
BRANCH   7   9
HETATM    9  C7  UNL     1      -4.744  24.431  46.145  1.00  0.00     0.039 C 
BRANCH   9  10
HETATM   10  C6  UNL     1      -3.711  25.268  45.438  1.00  0.00     0.234 C 
BRANCH  10  11
HETATM   11  N1  UNL     1      -3.223  24.389  44.355  1.00  0.00    -0.064 N 
ATOM     12  H12 UNL     1      -3.766  24.507  43.500  1.00  0.00     0.278 HD
ATOM     13  H11 UNL     1      -3.436  23.409  44.539  1.00  0.00     0.278 HD
BRANCH  11  14
HETATM   14  C3  UNL     1      -1.812  24.596  44.125  1.00  0.00     0.135 C 
HETATM   15  C4  UNL     1      -1.076  23.755  45.156  1.00  0.00     0.050 C 
HETATM   16  C5  UNL     1      -1.396  26.023  44.329  1.00  0.00     0.050 C 
BRANCH  14  17
HETATM   17  C2  UNL     1      -1.413  24.100  42.793  1.00  0.00     0.001 C 
HETATM   18  C1  UNL     1      -0.548  24.767  42.071  1.00  0.00     0.009 C 
ENDBRANCH  14  17
ENDBRANCH  11  14
ENDBRANCH  10  11
ENDBRANCH   9  10
ENDBRANCH   7   9
BRANCH   7  19
HETATM   19  C15 UNL     1      -3.928  22.638  47.690  1.00  0.00     0.259 C 
HETATM   20  C16 UNL     1      -2.680  22.593  48.554  1.00  0.00     0.152 C 
HETATM   21  C17 UNL     1      -1.886  21.383  48.020  1.00  0.00     0.035 C 
HETATM   22  C18 UNL     1      -2.728  20.214  48.405  1.00  0.00     0.033 C 
HETATM   23  C19 UNL     1      -4.171  20.356  48.338  1.00  0.00     0.272 C 
HETATM   24  N3  UNL     1      -4.773  21.648  48.207  1.00  0.00     0.092 N 
HETATM   25  C20 UNL     1      -6.048  21.428  47.604  1.00  0.00     0.310 C 
BRANCH  20  26
HETATM   26  O1  UNL     1      -2.974  22.236  49.879  1.00  0.00    -0.393 OA
ATOM     27  H1  UNL     1      -3.376  22.950  50.358  1.00  0.00     0.210 HD
ENDBRANCH  20  26
ENDBRANCH   7  19
ENDBRANCH   6   7
ENDBRANCH   5   6
ENDBRANCH   1   5
TORSDOF 10
ENDMDL
MODEL 5
REMARK VINA RESULT: -6.141713339      2.368      6.832
REMARK  10 active torsions:
REMARK  status: ('A' for Active; 'I' for Inactive)
REMARK    1  A    between atoms: C2_2  and  C3_3 
REMARK    2  A    between atoms: C3_3  and  N1_6 
REMARK    3  A    between atoms: N1_6  and  C6_9 
REMARK    4  A    between atoms: C6_9  and  C7_10 
REMARK    5  A    between atoms: C7_10  and  C8_11 
REMARK    6  A    between atoms: C8_11  and  C10_13 
REMARK    7  A    between atoms: C8_11  and  C15_19 
REMARK    8  A    between atoms: C10_13  and  C11_14 
REMARK    9  A    between atoms: C11_14  and  C12_15 
REMARK   10  A    between atoms: C16_20  and  O1_21 
ROOT
HETATM    1  C12 UNL     1      -2.399  25.576  44.654  1.00  0.00    -0.016 C 
HETATM    2  C13 UNL     1      -1.252  26.063  45.092  1.00  0.00     0.089 C 
HETATM    3  C14 UNL     1      -0.065  25.860  44.327  1.00  0.00     0.087 C 
HETATM    4  N2  UNL     1       0.904  25.695  43.692  1.00  0.00    -0.192 NA
ENDROOT
BRANCH   1   5
HETATM    5  C11 UNL     1      -3.677  25.746  45.394  1.00  0.00     0.028 C 
BRANCH   5   6
HETATM    6  C10 UNL     1      -3.402  25.520  46.837  1.00  0.00     0.015 C 
BRANCH   6   7
HETATM    7  C8  UNL     1      -4.089  24.302  47.426  1.00  0.00    -0.009 C 
HETATM    8  C9  UNL     1      -5.454  24.312  46.759  1.00  0.00     0.018 C 
BRANCH   7   9
HETATM    9  C7  UNL     1      -4.307  24.702  48.868  1.00  0.00     0.039 C 
BRANCH   9  10
HETATM   10  C6  UNL     1      -5.742  24.693  49.324  1.00  0.00     0.234 C 
BRANCH  10  11
HETATM   11  N1  UNL     1      -5.660  24.291  50.744  1.00  0.00    -0.064 N 
ATOM     12  H12 UNL     1      -4.809  24.637  51.186  1.00  0.00     0.278 HD
ATOM     13  H11 UNL     1      -5.490  23.291  50.844  1.00  0.00     0.278 HD
BRANCH  11  14
HETATM   14  C3  UNL     1      -6.842  24.707  51.462  1.00  0.00     0.135 C 
HETATM   15  C4  UNL     1      -8.021  24.474  50.531  1.00  0.00     0.050 C 
HETATM   16  C5  UNL     1      -6.825  26.166  51.810  1.00  0.00     0.050 C 
BRANCH  14  17
HETATM   17  C2  UNL     1      -7.059  23.868  52.658  1.00  0.00     0.001 C 
HETATM   18  C1  UNL     1      -6.361  22.775  52.835  1.00  0.00     0.009 C 
ENDBRANCH  14  17
ENDBRANCH  11  14
ENDBRANCH  10  11
ENDBRANCH   9  10
ENDBRANCH   7   9
BRANCH   7  19
HETATM   19  C15 UNL     1      -3.317  23.074  47.244  1.00  0.00     0.259 C 
HETATM   20  C16 UNL     1      -1.838  23.370  47.417  1.00  0.00     0.152 C 
HETATM   21  C17 UNL     1      -1.132  22.352  46.498  1.00  0.00     0.035 C 
HETATM   22  C18 UNL     1      -1.397  21.041  47.158  1.00  0.00     0.033 C 
HETATM   23  C19 UNL     1      -2.690  20.838  47.785  1.00  0.00     0.272 C 
HETATM   24  N3  UNL     1      -3.564  21.943  48.034  1.00  0.00     0.092 N 
HETATM   25  C20 UNL     1      -4.882  21.398  48.086  1.00  0.00     0.310 C 
BRANCH  20  26
HETATM   26  O1  UNL     1      -1.382  23.027  48.700  1.00  0.00    -0.393 OA
ATOM     27  H1  UNL     1      -1.405  23.768  49.294  1.00  0.00     0.210 HD
ENDBRANCH  20  26
ENDBRANCH   7  19
ENDBRANCH   6   7
ENDBRANCH   5   6
ENDBRANCH   1   5
TORSDOF 10
ENDMDL
