MODEL 1
REMARK VINA RESULT: -7.352090680      0.000      0.000
REMARK  11 active torsions:
REMARK  status: ('A' for Active; 'I' for Inactive)
REMARK    1  A    between atoms: C3_3  and  C12_13 
REMARK    2  A    between atoms: C4_4  and  C5_5 
REMARK    3  A    between atoms: C6_6  and  C7_7 
REMARK    4  A    between atoms: C7_7  and  C8_8 
REMARK    5  A    between atoms: C8_8  and  C9_9 
REMARK    6  A    between atoms: C9_9  and  N1_10 
REMARK    7  A    between atoms: C12_13  and  O1_14 
REMARK    8  A    between atoms: C12_13  and  C13_16 
REMARK    9  A    between atoms: C12_13  and  C14_23 
REMARK   10  A    between atoms: C13_16  and  O2_17 
REMARK   11  A    between atoms: N2_19  and  O3_21 
ROOT
HETATM    1  C1  UNL     1      -5.907  23.027  47.485  1.00  0.00     0.017 C 
HETATM    2  C2  UNL     1      -4.734  23.353  47.442  1.00  0.00    -0.079 C 
HETATM    3  C3  UNL     1      -3.346  23.744  47.401  1.00  0.00     0.037 C 
HETATM    4  C4  UNL     1      -2.471  22.993  48.031  1.00  0.00     0.019 C 
ENDROOT
BRANCH   3   5
HETATM    5  C12 UNL     1      -2.951  24.965  46.654  1.00  0.00     0.162 C 
BRANCH   5   6
HETATM    6  O1  UNL     1      -2.583  25.903  47.652  1.00  0.00    -0.375 OA
ATOM      7  H1  UNL     1      -1.672  26.104  47.477  1.00  0.00     0.211 HD
ENDBRANCH   5   6
BRANCH   5   8
HETATM    8  C13 UNL     1      -3.997  25.551  45.829  1.00  0.00     0.176 C 
HETATM    9  N2  UNL     1      -4.450  26.751  46.072  1.00  0.00    -0.248 N 
ATOM     10  H2  UNL     1      -4.044  27.259  46.858  1.00  0.00     0.196 HD
BRANCH   8  11
HETATM   11  O2  UNL     1      -4.597  24.920  44.741  1.00  0.00    -0.346 OA
ATOM     12  H2  UNL     1      -4.952  24.039  44.755  1.00  0.00     0.219 HD
ENDBRANCH   8  11
BRANCH   9  13
HETATM   13  O3  UNL     1      -5.419  27.371  45.356  1.00  0.00    -0.288 OA
ATOM     14  H3  UNL     1      -5.511  27.322  44.412  1.00  0.00     0.244 HD
ENDBRANCH   9  13
ENDBRANCH   5   8
BRANCH   5  15
HETATM   15  C14 UNL     1      -1.638  24.715  45.888  1.00  0.00     0.034 C 
HETATM   16  C15 UNL     1      -1.766  23.727  44.813  1.00  0.00     0.008 C 
HETATM   17  C16 UNL     1      -1.289  24.090  43.463  1.00  0.00     0.001 C 
HETATM   18  C17 UNL     1      -1.138  25.543  43.178  1.00  0.00     0.000 C 
HETATM   19  C18 UNL     1      -0.245  26.087  44.301  1.00  0.00     0.001 C 
HETATM   20  C19 UNL     1      -1.083  26.046  45.547  1.00  0.00     0.008 C 
ENDBRANCH   5  15
ENDBRANCH   3   5
BRANCH   4  21
HETATM   21  C5  UNL     1      -2.903  21.810  48.743  1.00  0.00    -0.003 C 
HETATM   22  C6  UNL     1      -2.149  20.738  48.768  1.00  0.00    -0.027 C 
BRANCH  22  23
HETATM   23  C7  UNL     1      -2.610  19.536  49.503  1.00  0.00     0.029 C 
BRANCH  23  24
HETATM   24  C8  UNL     1      -3.926  19.004  48.938  1.00  0.00     0.034 C 
BRANCH  24  25
HETATM   25  C9  UNL     1      -3.564  18.263  47.656  1.00  0.00     0.272 C 
BRANCH  25  26
HETATM   26  N1  UNL     1      -4.257  18.904  46.575  1.00  0.00     0.091 N 
HETATM   27  C10 UNL     1      -5.636  19.320  46.784  1.00  0.00     0.302 A 
HETATM   28  C11 UNL     1      -5.254  18.228  45.812  1.00  0.00     0.302 A 
ENDBRANCH  25  26
ENDBRANCH  24  25
ENDBRANCH  23  24
ENDBRANCH  22  23
ENDBRANCH   4  21
TORSDOF 11
ENDMDL
MODEL 2
REMARK VINA RESULT: -7.271281525      3.096      4.150
REMARK  11 active torsions:
REMARK  status: ('A' for Active; 'I' for Inactive)
REMARK    1  A    between atoms: C3_3  and  C12_13 
REMARK    2  A    between atoms: C4_4  and  C5_5 
REMARK    3  A    between atoms: C6_6  and  C7_7 
REMARK    4  A    between atoms: C7_7  and  C8_8 
REMARK    5  A    between atoms: C8_8  and  C9_9 
REMARK    6  A    between atoms: C9_9  and  N1_10 
REMARK    7  A    between atoms: C12_13  and  O1_14 
REMARK    8  A    between atoms: C12_13  and  C13_16 
REMARK    9  A    between atoms: C12_13  and  C14_23 
REMARK   10  A    between atoms: C13_16  and  O2_17 
REMARK   11  A    between atoms: N2_19  and  O3_21 
ROOT
HETATM    1  C1  UNL     1      -1.523  21.907  48.069  1.00  0.00     0.017 C 
HETATM    2  C2  UNL     1      -2.339  22.768  47.796  1.00  0.00    -0.079 C 
HETATM    3  C3  UNL     1      -3.310  23.782  47.465  1.00  0.00     0.037 C 
HETATM    4  C4  UNL     1      -4.530  23.650  47.937  1.00  0.00     0.019 C 
ENDROOT
BRANCH   3   5
HETATM    5  C12 UNL     1      -2.908  24.932  46.616  1.00  0.00     0.162 C 
BRANCH   5   6
HETATM    6  O1  UNL     1      -2.439  25.913  47.525  1.00  0.00    -0.375 OA
ATOM      7  H1  UNL     1      -1.535  26.066  47.278  1.00  0.00     0.211 HD
ENDBRANCH   5   6
BRANCH   5   8
HETATM    8  C13 UNL     1      -3.976  25.513  45.816  1.00  0.00     0.176 C 
HETATM    9  N2  UNL     1      -4.371  26.741  46.015  1.00  0.00    -0.248 N 
ATOM     10  H2  UNL     1      -3.904  27.275  46.748  1.00  0.00     0.196 HD
BRANCH   8  11
HETATM   11  O2  UNL     1      -4.658  24.848  44.798  1.00  0.00    -0.346 OA
ATOM     12  H2  UNL     1      -5.558  24.548  44.857  1.00  0.00     0.219 HD
ENDBRANCH   8  11
BRANCH   9  13
HETATM   13  O3  UNL     1      -5.355  27.359  45.317  1.00  0.00    -0.288 OA
ATOM     14  H3  UNL     1      -6.277  27.139  45.370  1.00  0.00     0.244 HD
ENDBRANCH   9  13
ENDBRANCH   5   8
BRANCH   5  15
HETATM   15  C14 UNL     1      -1.657  24.570  45.793  1.00  0.00     0.034 C 
HETATM   16  C15 UNL     1      -1.943  23.712  44.639  1.00  0.00     0.008 C 
HETATM   17  C16 UNL     1      -1.441  24.126  43.313  1.00  0.00     0.001 C 
HETATM   18  C17 UNL     1      -1.088  25.563  43.152  1.00  0.00     0.000 C 
HETATM   19  C18 UNL     1      -0.109  25.870  44.293  1.00  0.00     0.001 C 
HETATM   20  C19 UNL     1      -0.923  25.835  45.554  1.00  0.00     0.008 C 
ENDBRANCH   5  15
ENDBRANCH   3   5
BRANCH   4  21
HETATM   21  C5  UNL     1      -4.874  22.515  48.763  1.00  0.00    -0.003 C 
HETATM   22  C6  UNL     1      -5.226  22.686  50.014  1.00  0.00    -0.027 C 
BRANCH  22  23
HETATM   23  C7  UNL     1      -5.575  21.508  50.844  1.00  0.00     0.029 C 
BRANCH  23  24
HETATM   24  C8  UNL     1      -6.240  21.922  52.155  1.00  0.00     0.034 C 
BRANCH  24  25
HETATM   25  C9  UNL     1      -6.585  23.400  52.004  1.00  0.00     0.272 C 
BRANCH  25  26
HETATM   26  N1  UNL     1      -7.266  23.809  53.198  1.00  0.00     0.091 N 
HETATM   27  C10 UNL     1      -6.946  25.107  53.771  1.00  0.00     0.302 A 
HETATM   28  C11 UNL     1      -6.623  23.808  54.471  1.00  0.00     0.302 A 
ENDBRANCH  25  26
ENDBRANCH  24  25
ENDBRANCH  23  24
ENDBRANCH  22  23
ENDBRANCH   4  21
TORSDOF 11
ENDMDL
MODEL 3
REMARK VINA RESULT: -7.256017398      2.342      3.335
REMARK  11 active torsions:
REMARK  status: ('A' for Active; 'I' for Inactive)
REMARK    1  A    between atoms: C3_3  and  C12_13 
REMARK    2  A    between atoms: C4_4  and  C5_5 
REMARK    3  A    between atoms: C6_6  and  C7_7 
REMARK    4  A    between atoms: C7_7  and  C8_8 
REMARK    5  A    between atoms: C8_8  and  C9_9 
REMARK    6  A    between atoms: C9_9  and  N1_10 
REMARK    7  A    between atoms: C12_13  and  O1_14 
REMARK    8  A    between atoms: C12_13  and  C13_16 
REMARK    9  A    between atoms: C12_13  and  C14_23 
REMARK   10  A    between atoms: C13_16  and  O2_17 
REMARK   11  A    between atoms: N2_19  and  O3_21 
ROOT
HETATM    1  C1  UNL     1      -1.458  21.927  48.032  1.00  0.00     0.017 C 
HETATM    2  C2  UNL     1      -2.306  22.736  47.701  1.00  0.00    -0.079 C 
HETATM    3  C3  UNL     1      -3.312  23.689  47.301  1.00  0.00     0.037 C 
HETATM    4  C4  UNL     1      -4.563  23.441  47.620  1.00  0.00     0.019 C 
ENDROOT
BRANCH   3   5
HETATM    5  C12 UNL     1      -2.911  24.908  46.554  1.00  0.00     0.162 C 
BRANCH   5   6
HETATM    6  O1  UNL     1      -2.505  25.832  47.550  1.00  0.00    -0.375 OA
ATOM      7  H1  UNL     1      -1.560  25.748  47.593  1.00  0.00     0.211 HD
ENDBRANCH   5   6
BRANCH   5   8
HETATM    8  C13 UNL     1      -3.964  25.519  45.756  1.00  0.00     0.176 C 
HETATM    9  N2  UNL     1      -4.375  26.733  46.004  1.00  0.00    -0.248 N 
ATOM     10  H2  UNL     1      -3.932  27.234  46.774  1.00  0.00     0.196 HD
BRANCH   8  11
HETATM   11  O2  UNL     1      -4.614  24.898  44.690  1.00  0.00    -0.346 OA
ATOM     12  H2  UNL     1      -4.447  24.010  44.398  1.00  0.00     0.219 HD
ENDBRANCH   8  11
BRANCH   9  13
HETATM   13  O3  UNL     1      -5.347  27.376  45.312  1.00  0.00    -0.288 OA
ATOM     14  H3  UNL     1      -5.296  28.277  45.017  1.00  0.00     0.244 HD
ENDBRANCH   9  13
ENDBRANCH   5   8
BRANCH   5  15
HETATM   15  C14 UNL     1      -1.620  24.640  45.758  1.00  0.00     0.034 C 
HETATM   16  C15 UNL     1      -1.813  23.747  44.611  1.00  0.00     0.008 C 
HETATM   17  C16 UNL     1      -1.322  24.184  43.289  1.00  0.00     0.001 C 
HETATM   18  C17 UNL     1      -1.086  25.643  43.114  1.00  0.00     0.000 C 
HETATM   19  C18 UNL     1      -0.156  26.044  44.266  1.00  0.00     0.001 C 
HETATM   20  C19 UNL     1      -0.987  25.958  45.514  1.00  0.00     0.008 C 
ENDBRANCH   5  15
ENDBRANCH   3   5
BRANCH   4  21
HETATM   21  C5  UNL     1      -4.906  22.242  48.351  1.00  0.00    -0.003 C 
HETATM   22  C6  UNL     1      -6.136  21.787  48.341  1.00  0.00    -0.027 C 
BRANCH  22  23
HETATM   23  C7  UNL     1      -6.466  20.556  49.099  1.00  0.00     0.029 C 
BRANCH  23  24
HETATM   24  C8  UNL     1      -5.617  20.429  50.362  1.00  0.00     0.034 C 
BRANCH  24  25
HETATM   25  C9  UNL     1      -6.488  20.934  51.507  1.00  0.00     0.272 C 
BRANCH  25  26
HETATM   26  N1  UNL     1      -5.914  22.162  51.978  1.00  0.00     0.091 N 
HETATM   27  C10 UNL     1      -6.536  22.831  53.111  1.00  0.00     0.302 A 
HETATM   28  C11 UNL     1      -6.524  23.426  51.723  1.00  0.00     0.302 A 
ENDBRANCH  25  26
ENDBRANCH  24  25
ENDBRANCH  23  24
ENDBRANCH  22  23
ENDBRANCH   4  21
TORSDOF 11
ENDMDL
MODEL 4
REMARK VINA RESULT: -7.253635601      1.617      2.070
REMARK  11 active torsions:
REMARK  status: ('A' for Active; 'I' for Inactive)
REMARK    1  A    between atoms: C3_3  and  C12_13 
REMARK    2  A    between atoms: C4_4  and  C5_5 
REMARK    3  A    between atoms: C6_6  and  C7_7 
REMARK    4  A    between atoms: C7_7  and  C8_8 
REMARK    5  A    between atoms: C8_8  and  C9_9 
REMARK    6  A    between atoms: C9_9  and  N1_10 
REMARK    7  A    between atoms: C12_13  and  O1_14 
REMARK    8  A    between atoms: C12_13  and  C13_16 
REMARK    9  A    between atoms: C12_13  and  C14_23 
REMARK   10  A    between atoms: C13_16  and  O2_17 
REMARK   11  A    between atoms: N2_19  and  O3_21 
ROOT
HETATM    1  C1  UNL     1      -5.921  23.147  47.621  1.00  0.00     0.017 C 
HETATM    2  C2  UNL     1      -4.740  23.430  47.530  1.00  0.00    -0.079 C 
HETATM    3  C3  UNL     1      -3.342  23.771  47.432  1.00  0.00     0.037 C 
HETATM    4  C4  UNL     1      -2.473  23.015  48.065  1.00  0.00     0.019 C 
ENDROOT
BRANCH   3   5
HETATM    5  C12 UNL     1      -2.930  24.948  46.626  1.00  0.00     0.162 C 
BRANCH   5   6
HETATM    6  O1  UNL     1      -2.502  25.911  47.575  1.00  0.00    -0.375 OA
ATOM      7  H1  UNL     1      -2.565  25.474  48.415  1.00  0.00     0.211 HD
ENDBRANCH   5   6
BRANCH   5   8
HETATM    8  C13 UNL     1      -3.980  25.536  45.809  1.00  0.00     0.176 C 
HETATM    9  N2  UNL     1      -4.415  26.744  46.042  1.00  0.00    -0.248 N 
ATOM     10  H2  UNL     1      -3.993  27.258  46.816  1.00  0.00     0.196 HD
BRANCH   8  11
HETATM   11  O2  UNL     1      -4.604  24.899  44.737  1.00  0.00    -0.346 OA
ATOM     12  H2  UNL     1      -5.094  24.087  44.801  1.00  0.00     0.219 HD
ENDBRANCH   8  11
BRANCH   9  13
HETATM   13  O3  UNL     1      -5.388  27.367  45.332  1.00  0.00    -0.288 OA
ATOM     14  H3  UNL     1      -5.790  28.193  45.573  1.00  0.00     0.244 HD
ENDBRANCH   9  13
ENDBRANCH   5   8
BRANCH   5  15
HETATM   15  C14 UNL     1      -1.650  24.625  45.834  1.00  0.00     0.034 C 
HETATM   16  C15 UNL     1      -1.869  23.700  44.717  1.00  0.00     0.008 C 
HETATM   17  C16 UNL     1      -1.374  24.084  43.379  1.00  0.00     0.001 C 
HETATM   18  C17 UNL     1      -1.105  25.531  43.157  1.00  0.00     0.000 C 
HETATM   19  C18 UNL     1      -0.160  25.946  44.292  1.00  0.00     0.001 C 
HETATM   20  C19 UNL     1      -0.987  25.919  45.546  1.00  0.00     0.008 C 
ENDBRANCH   5  15
ENDBRANCH   3   5
BRANCH   4  21
HETATM   21  C5  UNL     1      -2.922  21.876  48.836  1.00  0.00    -0.003 C 
HETATM   22  C6  UNL     1      -2.521  20.666  48.527  1.00  0.00    -0.027 C 
BRANCH  22  23
HETATM   23  C7  UNL     1      -2.994  19.513  49.329  1.00  0.00     0.029 C 
BRANCH  23  24
HETATM   24  C8  UNL     1      -4.496  19.592  49.596  1.00  0.00     0.034 C 
BRANCH  24  25
HETATM   25  C9  UNL     1      -4.661  19.497  51.109  1.00  0.00     0.272 C 
BRANCH  25  26
HETATM   26  N1  UNL     1      -5.764  20.338  51.477  1.00  0.00     0.091 N 
HETATM   27  C10 UNL     1      -6.665  20.799  50.432  1.00  0.00     0.302 A 
HETATM   28  C11 UNL     1      -5.769  21.737  51.205  1.00  0.00     0.302 A 
ENDBRANCH  25  26
ENDBRANCH  24  25
ENDBRANCH  23  24
ENDBRANCH  22  23
ENDBRANCH   4  21
TORSDOF 11
ENDMDL
MODEL 5
REMARK VINA RESULT: -7.252596205      1.676      2.552
REMARK  11 active torsions:
REMARK  status: ('A' for Active; 'I' for Inactive)
REMARK    1  A    between atoms: C3_3  and  C12_13 
REMARK    2  A    between atoms: C4_4  and  C5_5 
REMARK    3  A    between atoms: C6_6  and  C7_7 
REMARK    4  A    between atoms: C7_7  and  C8_8 
REMARK    5  A    between atoms: C8_8  and  C9_9 
REMARK    6  A    between atoms: C9_9  and  N1_10 
REMARK    7  A    between atoms: C12_13  and  O1_14 
REMARK    8  A    between atoms: C12_13  and  C13_16 
REMARK    9  A    between atoms: C12_13  and  C14_23 
REMARK   10  A    between atoms: C13_16  and  O2_17 
REMARK   11  A    between atoms: N2_19  and  O3_21 
ROOT
HETATM    1  C1  UNL     1      -5.861  23.184  47.678  1.00  0.00     0.017 C 
HETATM    2  C2  UNL     1      -4.681  23.456  47.544  1.00  0.00    -0.079 C 
HETATM    3  C3  UNL     1      -3.285  23.782  47.395  1.00  0.00     0.037 C 
HETATM    4  C4  UNL     1      -2.400  23.006  47.980  1.00  0.00     0.019 C 
ENDROOT
BRANCH   3   5
HETATM    5  C12 UNL     1      -2.891  24.968  46.592  1.00  0.00     0.162 C 
BRANCH   5   6
HETATM    6  O1  UNL     1      -2.466  25.931  47.543  1.00  0.00    -0.375 OA
ATOM      7  H1  UNL     1      -2.467  26.756  47.074  1.00  0.00     0.211 HD
ENDBRANCH   5   6
BRANCH   5   8
HETATM    8  C13 UNL     1      -3.954  25.549  45.787  1.00  0.00     0.176 C 
HETATM    9  N2  UNL     1      -4.386  26.759  46.018  1.00  0.00    -0.248 N 
ATOM     10  H2  UNL     1      -3.953  27.278  46.781  1.00  0.00     0.196 HD
BRANCH   8  11
HETATM   11  O2  UNL     1      -4.594  24.904  44.730  1.00  0.00    -0.346 OA
ATOM     12  H2  UNL     1      -5.356  25.240  44.272  1.00  0.00     0.219 HD
ENDBRANCH   8  11
BRANCH   9  13
HETATM   13  O3  UNL     1      -5.370  27.377  45.318  1.00  0.00    -0.288 OA
ATOM     14  H3  UNL     1      -5.779  27.027  44.535  1.00  0.00     0.244 HD
ENDBRANCH   9  13
ENDBRANCH   5   8
BRANCH   5  15
HETATM   15  C14 UNL     1      -1.614  24.662  45.788  1.00  0.00     0.034 C 
HETATM   16  C15 UNL     1      -1.828  23.720  44.684  1.00  0.00     0.008 C 
HETATM   17  C16 UNL     1      -1.358  24.098  43.336  1.00  0.00     0.001 C 
HETATM   18  C17 UNL     1      -1.121  25.548  43.094  1.00  0.00     0.000 C 
HETATM   19  C18 UNL     1      -0.172  25.996  44.213  1.00  0.00     0.001 C 
HETATM   20  C19 UNL     1      -0.982  25.967  45.476  1.00  0.00     0.008 C 
ENDBRANCH   5  15
ENDBRANCH   3   5
BRANCH   4  21
HETATM   21  C5  UNL     1      -2.830  21.860  48.749  1.00  0.00    -0.003 C 
HETATM   22  C6  UNL     1      -2.544  20.645  48.347  1.00  0.00    -0.027 C 
BRANCH  22  23
HETATM   23  C7  UNL     1      -2.996  19.483  49.151  1.00  0.00     0.029 C 
BRANCH  23  24
HETATM   24  C8  UNL     1      -1.815  18.727  49.756  1.00  0.00     0.034 C 
BRANCH  24  25
HETATM   25  C9  UNL     1      -0.715  18.749  48.700  1.00  0.00     0.272 C 
BRANCH  25  26
HETATM   26  N1  UNL     1       0.489  19.195  49.341  1.00  0.00     0.091 N 
HETATM   27  C10 UNL     1       1.201  20.329  48.771  1.00  0.00     0.302 A 
HETATM   28  C11 UNL     1       1.778  18.934  48.788  1.00  0.00     0.302 A 
ENDBRANCH  25  26
ENDBRANCH  24  25
ENDBRANCH  23  24
ENDBRANCH  22  23
ENDBRANCH   4  21
TORSDOF 11
ENDMDL
