MODEL 1
REMARK VINA RESULT: -6.910562712      0.000      0.000
REMARK  9 active torsions:
REMARK  status: ('A' for Active; 'I' for Inactive)
REMARK    1  A    between atoms: C2_3  and  S1_4 
REMARK    2  A    between atoms: S1_4  and  C3_5 
REMARK    3  A    between atoms: C3_5  and  C4_6 
REMARK    4  A    between atoms: C4_6  and  N2_7 
REMARK    5  A    between atoms: N2_7  and  C5_10 
REMARK    6  A    between atoms: C5_10  and  C6_11 
REMARK    7  A    between atoms: C6_11  and  C7_12 
REMARK    8  A    between atoms: C7_12  and  N3_13 
REMARK       I    between atoms: N3_13  and  C8_15 
REMARK    9  A    between atoms: C8_15  and  C9_17 
ROOT
HETATM    1  N1  UNL     1       0.842  20.526  38.742  1.00  0.00    -0.197 NA
HETATM    2  C1  UNL     1       0.517  21.644  38.801  1.00  0.00     0.069 C 
HETATM    3  C2  UNL     1       0.101  23.034  38.874  1.00  0.00     0.197 C 
ENDROOT
BRANCH   3   4
HETATM    4  S1  UNL     1      -0.566  23.517  40.460  1.00  0.00    -0.153 SA
BRANCH   4   5
HETATM    5  C3  UNL     1      -0.257  25.210  40.936  1.00  0.00     0.102 C 
BRANCH   5   6
HETATM    6  C4  UNL     1       0.373  25.404  42.279  1.00  0.00     0.242 C 
BRANCH   6   7
HETATM    7  N2  UNL     1      -0.376  26.237  43.167  1.00  0.00    -0.074 N 
ATOM      8  H22 UNL     1      -0.063  27.207  43.115  1.00  0.00     0.277 HD
ATOM      9  H21 UNL     1      -1.334  26.357  42.841  1.00  0.00     0.277 HD
BRANCH   7  10
HETATM   10  C5  UNL     1      -0.344  25.757  44.510  1.00  0.00     0.234 C 
BRANCH  10  11
HETATM   11  C6  UNL     1      -1.042  24.444  44.732  1.00  0.00     0.047 C 
BRANCH  11  12
HETATM   12  C7  UNL     1      -2.498  24.615  44.324  1.00  0.00     0.124 C 
BRANCH  12  13
HETATM   13  N3  UNL     1      -3.354  24.312  45.436  1.00  0.00    -0.360 N 
HETATM   14  C8  UNL     1      -4.406  25.149  45.843  1.00  0.00     0.226 C 
HETATM   15  O1  UNL     1      -4.647  26.209  45.193  1.00  0.00    -0.273 OA
ATOM     16  H3  UNL     1      -3.190  23.450  45.956  1.00  0.00     0.162 HD
BRANCH  14  17
HETATM   17  C9  UNL     1      -5.257  24.856  47.014  1.00  0.00     0.042 C 
HETATM   18  C10 UNL     1      -6.225  26.023  47.262  1.00  0.00     0.024 C 
HETATM   19  C11 UNL     1      -7.049  25.711  48.468  1.00  0.00    -0.013 C 
HETATM   20  C12 UNL     1      -7.830  24.442  48.299  1.00  0.00     0.009 C 
HETATM   21  C16 UNL     1      -6.178  25.585  49.709  1.00  0.00     0.009 C 
HETATM   22  C13 UNL     1      -6.878  23.295  48.054  1.00  0.00    -0.013 C 
HETATM   23  C14 UNL     1      -5.890  23.151  49.182  1.00  0.00     0.009 C 
HETATM   24  C18 UNL     1      -6.091  23.641  46.790  1.00  0.00     0.024 C 
HETATM   25  C15 UNL     1      -5.222  24.451  49.486  1.00  0.00    -0.013 C 
HETATM   26  C17 UNL     1      -4.379  24.791  48.251  1.00  0.00     0.024 C 
ENDBRANCH  14  17
ENDBRANCH  12  13
ENDBRANCH  11  12
ENDBRANCH  10  11
ENDBRANCH   7  10
ENDBRANCH   6   7
ENDBRANCH   5   6
ENDBRANCH   4   5
ENDBRANCH   3   4
TORSDOF 9
ENDMDL
MODEL 2
REMARK VINA RESULT: -6.906730187      0.134      1.540
REMARK  9 active torsions:
REMARK  status: ('A' for Active; 'I' for Inactive)
REMARK    1  A    between atoms: C2_3  and  S1_4 
REMARK    2  A    between atoms: S1_4  and  C3_5 
REMARK    3  A    between atoms: C3_5  and  C4_6 
REMARK    4  A    between atoms: C4_6  and  N2_7 
REMARK    5  A    between atoms: N2_7  and  C5_10 
REMARK    6  A    between atoms: C5_10  and  C6_11 
REMARK    7  A    between atoms: C6_11  and  C7_12 
REMARK    8  A    between atoms: C7_12  and  N3_13 
REMARK       I    between atoms: N3_13  and  C8_15 
REMARK    9  A    between atoms: C8_15  and  C9_17 
ROOT
HETATM    1  N1  UNL     1       0.847  20.473  38.724  1.00  0.00    -0.197 NA
HETATM    2  C1  UNL     1       0.509  21.587  38.787  1.00  0.00     0.069 C 
HETATM    3  C2  UNL     1       0.078  22.972  38.865  1.00  0.00     0.197 C 
ENDROOT
BRANCH   3   4
HETATM    4  S1  UNL     1      -0.573  23.448  40.460  1.00  0.00    -0.153 SA
BRANCH   4   5
HETATM    5  C3  UNL     1      -0.310  25.154  40.915  1.00  0.00     0.102 C 
BRANCH   5   6
HETATM    6  C4  UNL     1       0.374  25.380  42.226  1.00  0.00     0.242 C 
BRANCH   6   7
HETATM    7  N2  UNL     1      -0.405  26.103  43.182  1.00  0.00    -0.074 N 
ATOM      8  H22 UNL     1      -0.184  27.099  43.161  1.00  0.00     0.277 HD
ATOM      9  H21 UNL     1      -1.384  26.148  42.901  1.00  0.00     0.277 HD
BRANCH   7  10
HETATM   10  C5  UNL     1      -0.269  25.571  44.499  1.00  0.00     0.234 C 
BRANCH  10  11
HETATM   11  C6  UNL     1      -1.092  24.344  44.776  1.00  0.00     0.047 C 
BRANCH  11  12
HETATM   12  C7  UNL     1      -2.531  24.648  44.386  1.00  0.00     0.124 C 
BRANCH  12  13
HETATM   13  N3  UNL     1      -3.401  24.385  45.497  1.00  0.00    -0.360 N 
HETATM   14  C8  UNL     1      -4.441  25.251  45.877  1.00  0.00     0.226 C 
HETATM   15  O1  UNL     1      -4.656  26.300  45.204  1.00  0.00    -0.273 OA
ATOM     16  H3  UNL     1      -3.258  23.531  46.036  1.00  0.00     0.162 HD
BRANCH  14  17
HETATM   17  C9  UNL     1      -5.306  24.998  47.046  1.00  0.00     0.042 C 
HETATM   18  C10 UNL     1      -4.445  24.836  48.309  1.00  0.00     0.024 C 
HETATM   19  C11 UNL     1      -5.344  24.552  49.467  1.00  0.00    -0.013 C 
HETATM   20  C12 UNL     1      -6.344  25.650  49.681  1.00  0.00     0.009 C 
HETATM   21  C16 UNL     1      -6.093  23.243  49.270  1.00  0.00     0.009 C 
HETATM   22  C13 UNL     1      -7.190  25.808  48.440  1.00  0.00    -0.013 C 
HETATM   23  C14 UNL     1      -7.895  24.524  48.088  1.00  0.00     0.009 C 
HETATM   24  C18 UNL     1      -6.231  26.139  47.297  1.00  0.00     0.024 C 
HETATM   25  C15 UNL     1      -6.939  23.378  48.040  1.00  0.00    -0.013 C 
HETATM   26  C17 UNL     1      -6.002  23.661  46.860  1.00  0.00     0.024 C 
ENDBRANCH  14  17
ENDBRANCH  12  13
ENDBRANCH  11  12
ENDBRANCH  10  11
ENDBRANCH   7  10
ENDBRANCH   6   7
ENDBRANCH   5   6
ENDBRANCH   4   5
ENDBRANCH   3   4
TORSDOF 9
ENDMDL
MODEL 3
REMARK VINA RESULT: -6.882957432      0.741      1.716
REMARK  9 active torsions:
REMARK  status: ('A' for Active; 'I' for Inactive)
REMARK    1  A    between atoms: C2_3  and  S1_4 
REMARK    2  A    between atoms: S1_4  and  C3_5 
REMARK    3  A    between atoms: C3_5  and  C4_6 
REMARK    4  A    between atoms: C4_6  and  N2_7 
REMARK    5  A    between atoms: N2_7  and  C5_10 
REMARK    6  A    between atoms: C5_10  and  C6_11 
REMARK    7  A    between atoms: C6_11  and  C7_12 
REMARK    8  A    between atoms: C7_12  and  N3_13 
REMARK       I    between atoms: N3_13  and  C8_15 
REMARK    9  A    between atoms: C8_15  and  C9_17 
ROOT
HETATM    1  N1  UNL     1       0.842  20.441  38.719  1.00  0.00    -0.197 NA
HETATM    2  C1  UNL     1       0.513  21.559  38.737  1.00  0.00     0.069 C 
HETATM    3  C2  UNL     1       0.091  22.949  38.758  1.00  0.00     0.197 C 
ENDROOT
BRANCH   3   4
HETATM    4  S1  UNL     1      -0.679  23.459  40.288  1.00  0.00    -0.153 SA
BRANCH   4   5
HETATM    5  C3  UNL     1      -0.146  25.039  40.923  1.00  0.00     0.102 C 
BRANCH   5   6
HETATM    6  C4  UNL     1      -0.419  25.284  42.374  1.00  0.00     0.242 C 
BRANCH   6   7
HETATM    7  N2  UNL     1       0.730  25.660  43.136  1.00  0.00    -0.074 N 
ATOM      8  H22 UNL     1       1.537  25.083  42.897  1.00  0.00     0.277 HD
ATOM      9  H21 UNL     1       1.087  26.569  42.842  1.00  0.00     0.277 HD
BRANCH   7  10
HETATM   10  C5  UNL     1       0.475  25.635  44.540  1.00  0.00     0.234 C 
BRANCH  10  11
HETATM   11  C6  UNL     1      -0.888  25.136  44.929  1.00  0.00     0.047 C 
BRANCH  11  12
HETATM   12  C7  UNL     1      -1.627  26.278  45.610  1.00  0.00     0.124 C 
BRANCH  12  13
HETATM   13  N3  UNL     1      -2.584  25.751  46.542  1.00  0.00    -0.360 N 
HETATM   14  C8  UNL     1      -3.960  25.676  46.267  1.00  0.00     0.226 C 
HETATM   15  O1  UNL     1      -4.392  26.059  45.140  1.00  0.00    -0.273 OA
ATOM     16  H3  UNL     1      -2.250  25.414  47.445  1.00  0.00     0.162 HD
BRANCH  14  17
HETATM   17  C9  UNL     1      -4.946  25.173  47.243  1.00  0.00     0.042 C 
HETATM   18  C10 UNL     1      -5.646  23.925  46.683  1.00  0.00     0.024 C 
HETATM   19  C11 UNL     1      -6.656  23.457  47.679  1.00  0.00    -0.013 C 
HETATM   20  C12 UNL     1      -6.029  23.127  49.001  1.00  0.00     0.009 C 
HETATM   21  C16 UNL     1      -7.733  24.508  47.900  1.00  0.00     0.009 C 
HETATM   22  C13 UNL     1      -5.341  24.354  49.550  1.00  0.00    -0.013 C 
HETATM   23  C14 UNL     1      -6.305  25.502  49.704  1.00  0.00     0.009 C 
HETATM   24  C18 UNL     1      -4.291  24.766  48.519  1.00  0.00     0.024 C 
HETATM   25  C15 UNL     1      -7.071  25.738  48.445  1.00  0.00    -0.013 C 
HETATM   26  C17 UNL     1      -6.043  26.209  47.409  1.00  0.00     0.024 C 
ENDBRANCH  14  17
ENDBRANCH  12  13
ENDBRANCH  11  12
ENDBRANCH  10  11
ENDBRANCH   7  10
ENDBRANCH   6   7
ENDBRANCH   5   6
ENDBRANCH   4   5
ENDBRANCH   3   4
TORSDOF 9
ENDMDL
MODEL 4
REMARK VINA RESULT: -6.712259217      1.086      1.871
REMARK  9 active torsions:
REMARK  status: ('A' for Active; 'I' for Inactive)
REMARK    1  A    between atoms: C2_3  and  S1_4 
REMARK    2  A    between atoms: S1_4  and  C3_5 
REMARK    3  A    between atoms: C3_5  and  C4_6 
REMARK    4  A    between atoms: C4_6  and  N2_7 
REMARK    5  A    between atoms: N2_7  and  C5_10 
REMARK    6  A    between atoms: C5_10  and  C6_11 
REMARK    7  A    between atoms: C6_11  and  C7_12 
REMARK    8  A    between atoms: C7_12  and  N3_13 
REMARK       I    between atoms: N3_13  and  C8_15 
REMARK    9  A    between atoms: C8_15  and  C9_17 
ROOT
HETATM    1  N1  UNL     1       0.846  20.542  38.719  1.00  0.00    -0.197 NA
HETATM    2  C1  UNL     1       0.491  21.650  38.798  1.00  0.00     0.069 C 
HETATM    3  C2  UNL     1       0.037  23.026  38.895  1.00  0.00     0.197 C 
ENDROOT
BRANCH   3   4
HETATM    4  S1  UNL     1      -0.685  23.450  40.474  1.00  0.00    -0.153 SA
BRANCH   4   5
HETATM    5  C3  UNL     1      -0.325  25.097  41.061  1.00  0.00     0.102 C 
BRANCH   5   6
HETATM    6  C4  UNL     1       0.059  25.204  42.503  1.00  0.00     0.242 C 
BRANCH   6   7
HETATM    7  N2  UNL     1      -0.710  26.151  43.250  1.00  0.00    -0.074 N 
ATOM      8  H22 UNL     1      -0.107  26.770  43.793  1.00  0.00     0.277 HD
ATOM      9  H21 UNL     1      -1.142  26.842  42.637  1.00  0.00     0.277 HD
BRANCH   7  10
HETATM   10  C5  UNL     1      -1.682  25.518  44.081  1.00  0.00     0.234 C 
BRANCH  10  11
HETATM   11  C6  UNL     1      -1.534  24.027  44.209  1.00  0.00     0.047 C 
BRANCH  11  12
HETATM   12  C7  UNL     1      -1.394  23.698  45.688  1.00  0.00     0.124 C 
BRANCH  12  13
HETATM   13  N3  UNL     1      -2.693  23.619  46.294  1.00  0.00    -0.360 N 
HETATM   14  C8  UNL     1      -3.142  24.530  47.265  1.00  0.00     0.226 C 
HETATM   15  O1  UNL     1      -2.393  25.489  47.613  1.00  0.00    -0.273 OA
ATOM     16  H3  UNL     1      -3.320  22.867  46.006  1.00  0.00     0.162 HD
BRANCH  14  17
HETATM   17  C9  UNL     1      -4.462  24.421  47.916  1.00  0.00     0.042 C 
HETATM   18  C10 UNL     1      -5.278  23.297  47.258  1.00  0.00     0.024 C 
HETATM   19  C11 UNL     1      -6.617  23.231  47.917  1.00  0.00    -0.013 C 
HETATM   20  C12 UNL     1      -6.504  22.969  49.389  1.00  0.00     0.009 C 
HETATM   21  C16 UNL     1      -7.393  24.522  47.710  1.00  0.00     0.009 C 
HETATM   22  C13 UNL     1      -5.701  24.073  50.036  1.00  0.00    -0.013 C 
HETATM   23  C14 UNL     1      -6.328  25.421  49.794  1.00  0.00     0.009 C 
HETATM   24  C18 UNL     1      -4.330  24.072  49.359  1.00  0.00     0.024 C 
HETATM   25  C15 UNL     1      -6.612  25.634  48.344  1.00  0.00    -0.013 C 
HETATM   26  C17 UNL     1      -5.245  25.695  47.652  1.00  0.00     0.024 C 
ENDBRANCH  14  17
ENDBRANCH  12  13
ENDBRANCH  11  12
ENDBRANCH  10  11
ENDBRANCH   7  10
ENDBRANCH   6   7
ENDBRANCH   5   6
ENDBRANCH   4   5
ENDBRANCH   3   4
TORSDOF 9
ENDMDL
MODEL 5
REMARK VINA RESULT: -6.550367824      1.143      1.261
REMARK  9 active torsions:
REMARK  status: ('A' for Active; 'I' for Inactive)
REMARK    1  A    between atoms: C2_3  and  S1_4 
REMARK    2  A    between atoms: S1_4  and  C3_5 
REMARK    3  A    between atoms: C3_5  and  C4_6 
REMARK    4  A    between atoms: C4_6  and  N2_7 
REMARK    5  A    between atoms: N2_7  and  C5_10 
REMARK    6  A    between atoms: C5_10  and  C6_11 
REMARK    7  A    between atoms: C6_11  and  C7_12 
REMARK    8  A    between atoms: C7_12  and  N3_13 
REMARK       I    between atoms: N3_13  and  C8_15 
REMARK    9  A    between atoms: C8_15  and  C9_17 
ROOT
HETATM    1  N1  UNL     1       0.841  20.528  38.747  1.00  0.00    -0.197 NA
HETATM    2  C1  UNL     1       0.457  21.627  38.809  1.00  0.00     0.069 C 
HETATM    3  C2  UNL     1      -0.032  22.993  38.885  1.00  0.00     0.197 C 
ENDROOT
BRANCH   3   4
HETATM    4  S1  UNL     1      -0.663  23.456  40.492  1.00  0.00    -0.153 SA
BRANCH   4   5
HETATM    5  C3  UNL     1      -0.250  25.108  41.028  1.00  0.00     0.102 C 
BRANCH   5   6
HETATM    6  C4  UNL     1       0.108  25.254  42.473  1.00  0.00     0.242 C 
BRANCH   6   7
HETATM    7  N2  UNL     1      -0.708  26.180  43.193  1.00  0.00    -0.074 N 
ATOM      8  H22 UNL     1      -0.238  27.079  43.302  1.00  0.00     0.277 HD
ATOM      9  H21 UNL     1      -1.507  26.481  42.635  1.00  0.00     0.277 HD
BRANCH   7  10
HETATM   10  C5  UNL     1      -1.127  25.660  44.454  1.00  0.00     0.234 C 
BRANCH  10  11
HETATM   11  C6  UNL     1      -1.760  24.298  44.401  1.00  0.00     0.047 C 
BRANCH  11  12
HETATM   12  C7  UNL     1      -1.546  23.630  45.751  1.00  0.00     0.124 C 
BRANCH  12  13
HETATM   13  N3  UNL     1      -2.806  23.470  46.420  1.00  0.00    -0.360 N 
HETATM   14  C8  UNL     1      -3.253  24.338  47.430  1.00  0.00     0.226 C 
HETATM   15  O1  UNL     1      -2.540  25.330  47.760  1.00  0.00    -0.273 OA
ATOM     16  H3  UNL     1      -3.405  22.689  46.148  1.00  0.00     0.162 HD
BRANCH  14  17
HETATM   17  C9  UNL     1      -4.531  24.144  48.144  1.00  0.00     0.042 C 
HETATM   18  C10 UNL     1      -5.320  25.463  48.169  1.00  0.00     0.024 C 
HETATM   19  C11 UNL     1      -6.591  25.244  48.923  1.00  0.00    -0.013 C 
HETATM   20  C12 UNL     1      -7.433  24.169  48.301  1.00  0.00     0.009 C 
HETATM   21  C16 UNL     1      -6.311  24.866  50.369  1.00  0.00     0.009 C 
HETATM   22  C13 UNL     1      -6.657  22.874  48.276  1.00  0.00    -0.013 C 
HETATM   23  C14 UNL     1      -6.229  22.463  49.661  1.00  0.00     0.009 C 
HETATM   24  C18 UNL     1      -5.391  23.138  47.460  1.00  0.00     0.024 C 
HETATM   25  C15 UNL     1      -5.539  23.582  50.368  1.00  0.00    -0.013 C 
HETATM   26  C17 UNL     1      -4.234  23.825  49.599  1.00  0.00     0.024 C 
ENDBRANCH  14  17
ENDBRANCH  12  13
ENDBRANCH  11  12
ENDBRANCH  10  11
ENDBRANCH   7  10
ENDBRANCH   6   7
ENDBRANCH   5   6
ENDBRANCH   4   5
ENDBRANCH   3   4
TORSDOF 9
ENDMDL
