MODEL 1
REMARK VINA RESULT: -6.895856672      0.000      0.000
REMARK  11 active torsions:
REMARK  status: ('A' for Active; 'I' for Inactive)
REMARK    1  A    between atoms: C2_2  and  C3_3 
REMARK    2  A    between atoms: C3_3  and  C4_4 
REMARK    3  A    between atoms: C4_4  and  N1_5 
REMARK    4  A    between atoms: N1_5  and  C5_8 
REMARK    5  A    between atoms: C5_8  and  C6_9 
REMARK    6  A    between atoms: C6_9  and  C7_10 
REMARK    7  A    between atoms: C7_10  and  N2_11 
REMARK    8  A    between atoms: N2_11  and  C8_13 
REMARK    9  A    between atoms: C8_13  and  N3_15 
REMARK   10  A    between atoms: N3_15  and  N4_17 
REMARK   11  A    between atoms: C9_19  and  C11_22 
ROOT
HETATM    1  N4  UNL     1      -4.104  26.541  45.476  1.00  0.00    -0.292 N 
ATOM      2  H4  UNL     1      -4.381  26.892  44.560  1.00  0.00     0.187 HD
HETATM    3  C9  UNL     1      -2.987  25.905  45.556  1.00  0.00     0.110 C 
HETATM    4  C10 UNL     1      -2.571  25.399  46.829  1.00  0.00     0.115 C 
HETATM    5  N5  UNL     1      -2.249  24.984  47.853  1.00  0.00    -0.190 NA
ENDROOT
BRANCH   3   6
HETATM    6  C11 UNL     1      -2.135  25.689  44.395  1.00  0.00     0.052 C 
HETATM    7  C12 UNL     1      -0.954  26.658  44.300  1.00  0.00     0.016 C 
HETATM    8  C13 UNL     1       0.083  25.731  43.675  1.00  0.00    -0.013 C 
HETATM    9  C14 UNL     1      -0.478  25.210  42.399  1.00  0.00     0.005 C 
HETATM   10  C17 UNL     1      -0.110  24.520  44.607  1.00  0.00     0.010 C 
HETATM   11  C15 UNL     1      -1.418  24.046  42.755  1.00  0.00     0.006 C 
HETATM   12  C16 UNL     1      -1.594  24.312  44.248  1.00  0.00    -0.003 C 
ENDBRANCH   3   6
BRANCH   1  13
HETATM   13  N3  UNL     1      -4.961  26.784  46.543  1.00  0.00    -0.276 N 
ATOM     14  H3  UNL     1      -4.696  27.466  47.254  1.00  0.00     0.189 HD
BRANCH  13  15
HETATM   15  C8  UNL     1      -6.201  26.098  46.658  1.00  0.00     0.186 C 
HETATM   16  S1  UNL     1      -7.618  26.891  46.559  1.00  0.00    -0.040 SA
BRANCH  15  17
HETATM   17  N2  UNL     1      -6.242  24.680  46.867  1.00  0.00    -0.366 N 
ATOM     18  H2  UNL     1      -6.619  24.080  46.133  1.00  0.00     0.161 HD
BRANCH  17  19
HETATM   19  C7  UNL     1      -5.762  24.079  48.088  1.00  0.00     0.123 C 
BRANCH  19  20
HETATM   20  C6  UNL     1      -5.641  22.590  47.920  1.00  0.00     0.047 C 
BRANCH  20  21
HETATM   21  C5  UNL     1      -4.296  22.055  48.350  1.00  0.00     0.234 C 
BRANCH  21  22
HETATM   22  N1  UNL     1      -3.414  21.973  47.221  1.00  0.00    -0.075 N 
ATOM     23  H12 UNL     1      -3.105  22.904  46.941  1.00  0.00     0.277 HD
ATOM     24  H11 UNL     1      -3.931  21.702  46.384  1.00  0.00     0.277 HD
BRANCH  22  25
HETATM   25  C4  UNL     1      -2.291  21.113  47.413  1.00  0.00     0.232 C 
BRANCH  25  26
HETATM   26  C3  UNL     1      -0.997  21.732  46.887  1.00  0.00     0.027 C 
BRANCH  26  27
HETATM   27  C2  UNL     1       0.123  20.705  46.927  1.00  0.00    -0.003 C 
HETATM   28  C1  UNL     1       0.616  20.587  48.345  1.00  0.00     0.005 C 
ENDBRANCH  26  27
ENDBRANCH  25  26
ENDBRANCH  22  25
ENDBRANCH  21  22
ENDBRANCH  20  21
ENDBRANCH  19  20
ENDBRANCH  17  19
ENDBRANCH  15  17
ENDBRANCH  13  15
ENDBRANCH   1  13
TORSDOF 11
ENDMDL
MODEL 2
REMARK VINA RESULT: -6.881421276      0.871      1.227
REMARK  11 active torsions:
REMARK  status: ('A' for Active; 'I' for Inactive)
REMARK    1  A    between atoms: C2_2  and  C3_3 
REMARK    2  A    between atoms: C3_3  and  C4_4 
REMARK    3  A    between atoms: C4_4  and  N1_5 
REMARK    4  A    between atoms: N1_5  and  C5_8 
REMARK    5  A    between atoms: C5_8  and  C6_9 
REMARK    6  A    between atoms: C6_9  and  C7_10 
REMARK    7  A    between atoms: C7_10  and  N2_11 
REMARK    8  A    between atoms: N2_11  and  C8_13 
REMARK    9  A    between atoms: C8_13  and  N3_15 
REMARK   10  A    between atoms: N3_15  and  N4_17 
REMARK   11  A    between atoms: C9_19  and  C11_22 
ROOT
HETATM    1  N4  UNL     1      -4.111  26.552  45.488  1.00  0.00    -0.292 N 
ATOM      2  H4  UNL     1      -4.399  26.906  44.576  1.00  0.00     0.187 HD
HETATM    3  C9  UNL     1      -3.002  25.899  45.550  1.00  0.00     0.110 C 
HETATM    4  C10 UNL     1      -2.571  25.390  46.817  1.00  0.00     0.115 C 
HETATM    5  N5  UNL     1      -2.238  24.972  47.836  1.00  0.00    -0.190 NA
ENDROOT
BRANCH   3   6
HETATM    6  C11 UNL     1      -2.175  25.668  44.375  1.00  0.00     0.052 C 
HETATM    7  C12 UNL     1      -1.041  26.681  44.202  1.00  0.00     0.016 C 
HETATM    8  C13 UNL     1       0.018  25.771  43.588  1.00  0.00    -0.013 C 
HETATM    9  C14 UNL     1      -0.555  25.169  42.354  1.00  0.00     0.005 C 
HETATM   10  C17 UNL     1      -0.095  24.597  44.577  1.00  0.00     0.010 C 
HETATM   11  C15 UNL     1      -1.432  23.984  42.788  1.00  0.00     0.006 C 
HETATM   12  C16 UNL     1      -1.578  24.310  44.273  1.00  0.00    -0.003 C 
ENDBRANCH   3   6
BRANCH   1  13
HETATM   13  N3  UNL     1      -4.945  26.812  46.569  1.00  0.00    -0.276 N 
ATOM     14  H3  UNL     1      -4.682  27.530  47.245  1.00  0.00     0.189 HD
BRANCH  13  15
HETATM   15  C8  UNL     1      -6.157  26.091  46.749  1.00  0.00     0.186 C 
HETATM   16  S1  UNL     1      -7.603  26.799  46.515  1.00  0.00    -0.040 SA
BRANCH  15  17
HETATM   17  N2  UNL     1      -6.144  24.713  47.144  1.00  0.00    -0.366 N 
ATOM     18  H2  UNL     1      -6.181  23.989  46.426  1.00  0.00     0.161 HD
BRANCH  17  19
HETATM   19  C7  UNL     1      -6.079  24.322  48.532  1.00  0.00     0.123 C 
BRANCH  19  20
HETATM   20  C6  UNL     1      -5.238  23.085  48.683  1.00  0.00     0.047 C 
BRANCH  20  21
HETATM   21  C5  UNL     1      -4.383  23.102  49.927  1.00  0.00     0.234 C 
BRANCH  21  22
HETATM   22  N1  UNL     1      -3.097  22.528  49.650  1.00  0.00    -0.075 N 
ATOM     23  H12 UNL     1      -2.393  22.908  50.283  1.00  0.00     0.277 HD
ATOM     24  H11 UNL     1      -2.736  22.876  48.761  1.00  0.00     0.277 HD
BRANCH  22  25
HETATM   25  C4  UNL     1      -3.072  21.101  49.674  1.00  0.00     0.232 C 
BRANCH  25  26
HETATM   26  C3  UNL     1      -2.175  20.525  48.579  1.00  0.00     0.027 C 
BRANCH  26  27
HETATM   27  C2  UNL     1      -2.249  21.396  47.336  1.00  0.00    -0.003 C 
HETATM   28  C1  UNL     1      -0.848  21.686  46.869  1.00  0.00     0.005 C 
ENDBRANCH  26  27
ENDBRANCH  25  26
ENDBRANCH  22  25
ENDBRANCH  21  22
ENDBRANCH  20  21
ENDBRANCH  19  20
ENDBRANCH  17  19
ENDBRANCH  15  17
ENDBRANCH  13  15
ENDBRANCH   1  13
TORSDOF 11
ENDMDL
MODEL 3
REMARK VINA RESULT: -6.696227648      2.004      3.184
REMARK  11 active torsions:
REMARK  status: ('A' for Active; 'I' for Inactive)
REMARK    1  A    between atoms: C2_2  and  C3_3 
REMARK    2  A    between atoms: C3_3  and  C4_4 
REMARK    3  A    between atoms: C4_4  and  N1_5 
REMARK    4  A    between atoms: N1_5  and  C5_8 
REMARK    5  A    between atoms: C5_8  and  C6_9 
REMARK    6  A    between atoms: C6_9  and  C7_10 
REMARK    7  A    between atoms: C7_10  and  N2_11 
REMARK    8  A    between atoms: N2_11  and  C8_13 
REMARK    9  A    between atoms: C8_13  and  N3_15 
REMARK   10  A    between atoms: N3_15  and  N4_17 
REMARK   11  A    between atoms: C9_19  and  C11_22 
ROOT
HETATM    1  N4  UNL     1      -2.264  25.623  46.518  1.00  0.00    -0.292 N 
ATOM      2  H4  UNL     1      -1.265  25.815  46.592  1.00  0.00     0.187 HD
HETATM    3  C9  UNL     1      -2.749  25.437  45.340  1.00  0.00     0.110 C 
HETATM    4  C10 UNL     1      -4.148  25.165  45.204  1.00  0.00     0.115 C 
HETATM    5  N5  UNL     1      -5.276  24.960  45.102  1.00  0.00    -0.190 NA
ENDROOT
BRANCH   3   6
HETATM    6  C11 UNL     1      -1.918  25.492  44.145  1.00  0.00     0.052 C 
HETATM    7  C12 UNL     1      -0.907  26.642  44.141  1.00  0.00     0.016 C 
HETATM    8  C13 UNL     1       0.238  25.967  43.392  1.00  0.00    -0.013 C 
HETATM    9  C14 UNL     1      -0.283  25.510  42.076  1.00  0.00     0.005 C 
HETATM   10  C17 UNL     1       0.272  24.645  44.180  1.00  0.00     0.010 C 
HETATM   11  C15 UNL     1      -1.015  24.179  42.311  1.00  0.00     0.006 C 
HETATM   12  C16 UNL     1      -1.174  24.244  43.828  1.00  0.00    -0.003 C 
ENDBRANCH   3   6
BRANCH   1  13
HETATM   13  N3  UNL     1      -2.998  25.580  47.698  1.00  0.00    -0.276 N 
ATOM     14  H3  UNL     1      -3.373  26.446  48.087  1.00  0.00     0.189 HD
BRANCH  13  15
HETATM   15  C8  UNL     1      -3.233  24.350  48.370  1.00  0.00     0.186 C 
HETATM   16  S1  UNL     1      -4.680  24.013  49.033  1.00  0.00    -0.040 SA
BRANCH  15  17
HETATM   17  N2  UNL     1      -2.198  23.365  48.488  1.00  0.00    -0.366 N 
ATOM     18  H2  UNL     1      -1.413  23.541  49.116  1.00  0.00     0.161 HD
BRANCH  17  19
HETATM   19  C7  UNL     1      -2.237  22.130  47.744  1.00  0.00     0.123 C 
BRANCH  19  20
HETATM   20  C6  UNL     1      -1.032  22.023  46.852  1.00  0.00     0.047 C 
BRANCH  20  21
HETATM   21  C5  UNL     1      -0.155  20.840  47.184  1.00  0.00     0.234 C 
BRANCH  21  22
HETATM   22  N1  UNL     1       0.245  20.894  48.561  1.00  0.00    -0.075 N 
ATOM     23  H12 UNL     1      -0.413  20.377  49.144  1.00  0.00     0.277 HD
ATOM     24  H11 UNL     1       0.108  21.833  48.936  1.00  0.00     0.277 HD
BRANCH  22  25
HETATM   25  C4  UNL     1       1.580  20.450  48.804  1.00  0.00     0.232 C 
BRANCH  25  26
HETATM   26  C3  UNL     1       2.305  20.080  47.510  1.00  0.00     0.027 C 
BRANCH  26  27
HETATM   27  C2  UNL     1       3.778  20.437  47.622  1.00  0.00    -0.003 C 
HETATM   28  C1  UNL     1       4.309  20.724  46.243  1.00  0.00     0.005 C 
ENDBRANCH  26  27
ENDBRANCH  25  26
ENDBRANCH  22  25
ENDBRANCH  21  22
ENDBRANCH  20  21
ENDBRANCH  19  20
ENDBRANCH  17  19
ENDBRANCH  15  17
ENDBRANCH  13  15
ENDBRANCH   1  13
TORSDOF 11
ENDMDL
MODEL 4
REMARK VINA RESULT: -6.639393628      1.416      1.970
REMARK  11 active torsions:
REMARK  status: ('A' for Active; 'I' for Inactive)
REMARK    1  A    between atoms: C2_2  and  C3_3 
REMARK    2  A    between atoms: C3_3  and  C4_4 
REMARK    3  A    between atoms: C4_4  and  N1_5 
REMARK    4  A    between atoms: N1_5  and  C5_8 
REMARK    5  A    between atoms: C5_8  and  C6_9 
REMARK    6  A    between atoms: C6_9  and  C7_10 
REMARK    7  A    between atoms: C7_10  and  N2_11 
REMARK    8  A    between atoms: N2_11  and  C8_13 
REMARK    9  A    between atoms: C8_13  and  N3_15 
REMARK   10  A    between atoms: N3_15  and  N4_17 
REMARK   11  A    between atoms: C9_19  and  C11_22 
ROOT
HETATM    1  N4  UNL     1      -4.096  26.534  45.455  1.00  0.00    -0.292 N 
ATOM      2  H4  UNL     1      -4.379  26.882  44.539  1.00  0.00     0.187 HD
HETATM    3  C9  UNL     1      -2.975  25.905  45.531  1.00  0.00     0.110 C 
HETATM    4  C10 UNL     1      -2.550  25.405  46.804  1.00  0.00     0.115 C 
HETATM    5  N5  UNL     1      -2.222  24.993  47.827  1.00  0.00    -0.190 NA
ENDROOT
BRANCH   3   6
HETATM    6  C11 UNL     1      -2.127  25.692  44.367  1.00  0.00     0.052 C 
HETATM    7  C12 UNL     1      -0.964  26.682  44.254  1.00  0.00     0.016 C 
HETATM    8  C13 UNL     1       0.086  25.766  43.632  1.00  0.00    -0.013 C 
HETATM    9  C14 UNL     1      -0.474  25.221  42.366  1.00  0.00     0.005 C 
HETATM   10  C17 UNL     1      -0.079  24.562  44.578  1.00  0.00     0.010 C 
HETATM   11  C15 UNL     1      -1.390  24.045  42.740  1.00  0.00     0.006 C 
HETATM   12  C16 UNL     1      -1.562  24.324  44.231  1.00  0.00    -0.003 C 
ENDBRANCH   3   6
BRANCH   1  13
HETATM   13  N3  UNL     1      -4.950  26.774  46.525  1.00  0.00    -0.276 N 
ATOM     14  H3  UNL     1      -4.710  27.495  47.206  1.00  0.00     0.189 HD
BRANCH  13  15
HETATM   15  C8  UNL     1      -6.151  26.030  46.685  1.00  0.00     0.186 C 
HETATM   16  S1  UNL     1      -7.608  26.746  46.581  1.00  0.00    -0.040 SA
BRANCH  15  17
HETATM   17  N2  UNL     1      -6.116  24.621  46.946  1.00  0.00    -0.366 N 
ATOM     18  H2  UNL     1      -5.824  23.985  46.203  1.00  0.00     0.161 HD
BRANCH  17  19
HETATM   19  C7  UNL     1      -6.482  24.078  48.231  1.00  0.00     0.123 C 
BRANCH  19  20
HETATM   20  C6  UNL     1      -5.386  24.326  49.230  1.00  0.00     0.047 C 
BRANCH  20  21
HETATM   21  C5  UNL     1      -5.673  23.722  50.583  1.00  0.00     0.234 C 
BRANCH  21  22
HETATM   22  N1  UNL     1      -4.535  22.978  51.043  1.00  0.00    -0.075 N 
ATOM     23  H12 UNL     1      -4.829  22.222  51.662  1.00  0.00     0.277 HD
ATOM     24  H11 UNL     1      -3.986  23.535  51.698  1.00  0.00     0.277 HD
BRANCH  22  25
HETATM   25  C4  UNL     1      -3.703  22.472  50.000  1.00  0.00     0.232 C 
BRANCH  25  26
HETATM   26  C3  UNL     1      -3.575  20.950  50.055  1.00  0.00     0.027 C 
BRANCH  26  27
HETATM   27  C2  UNL     1      -3.475  20.387  48.646  1.00  0.00    -0.003 C 
HETATM   28  C1  UNL     1      -2.901  21.448  47.745  1.00  0.00     0.005 C 
ENDBRANCH  26  27
ENDBRANCH  25  26
ENDBRANCH  22  25
ENDBRANCH  21  22
ENDBRANCH  20  21
ENDBRANCH  19  20
ENDBRANCH  17  19
ENDBRANCH  15  17
ENDBRANCH  13  15
ENDBRANCH   1  13
TORSDOF 11
ENDMDL
MODEL 5
REMARK VINA RESULT: -6.622638007      3.055      7.196
REMARK  11 active torsions:
REMARK  status: ('A' for Active; 'I' for Inactive)
REMARK    1  A    between atoms: C2_2  and  C3_3 
REMARK    2  A    between atoms: C3_3  and  C4_4 
REMARK    3  A    between atoms: C4_4  and  N1_5 
REMARK    4  A    between atoms: N1_5  and  C5_8 
REMARK    5  A    between atoms: C5_8  and  C6_9 
REMARK    6  A    between atoms: C6_9  and  C7_10 
REMARK    7  A    between atoms: C7_10  and  N2_11 
REMARK    8  A    between atoms: N2_11  and  C8_13 
REMARK    9  A    between atoms: C8_13  and  N3_15 
REMARK   10  A    between atoms: N3_15  and  N4_17 
REMARK   11  A    between atoms: C9_19  and  C11_22 
ROOT
HETATM    1  N4  UNL     1      -4.178  25.624  47.504  1.00  0.00    -0.292 N 
ATOM      2  H4  UNL     1      -3.634  25.110  48.197  1.00  0.00     0.187 HD
HETATM    3  C9  UNL     1      -5.462  25.537  47.572  1.00  0.00     0.110 C 
HETATM    4  C10 UNL     1      -6.253  26.247  46.613  1.00  0.00     0.115 C 
HETATM    5  N5  UNL     1      -6.882  26.810  45.830  1.00  0.00    -0.190 NA
ENDROOT
BRANCH   3   6
HETATM    6  C11 UNL     1      -6.129  24.744  48.593  1.00  0.00     0.052 C 
HETATM    7  C12 UNL     1      -5.192  24.213  49.681  1.00  0.00     0.016 C 
HETATM    8  C13 UNL     1      -6.138  24.269  50.877  1.00  0.00    -0.013 C 
HETATM    9  C14 UNL     1      -7.338  23.453  50.551  1.00  0.00     0.005 C 
HETATM   10  C17 UNL     1      -6.677  25.696  50.669  1.00  0.00     0.010 C 
HETATM   11  C15 UNL     1      -8.261  24.324  49.683  1.00  0.00     0.006 C 
HETATM   12  C16 UNL     1      -7.270  25.412  49.275  1.00  0.00    -0.003 C 
ENDBRANCH   3   6
BRANCH   1  13
HETATM   13  N3  UNL     1      -3.479  26.365  46.559  1.00  0.00    -0.276 N 
ATOM     14  H3  UNL     1      -3.706  27.350  46.425  1.00  0.00     0.189 HD
BRANCH  13  15
HETATM   15  C8  UNL     1      -2.451  25.770  45.777  1.00  0.00     0.186 C 
HETATM   16  S1  UNL     1      -1.794  24.341  46.191  1.00  0.00    -0.040 SA
BRANCH  15  17
HETATM   17  N2  UNL     1      -1.958  26.415  44.595  1.00  0.00    -0.366 N 
ATOM     18  H2  UNL     1      -2.553  27.086  44.110  1.00  0.00     0.161 HD
BRANCH  17  19
HETATM   19  C7  UNL     1      -0.640  26.139  44.074  1.00  0.00     0.123 C 
BRANCH  19  20
HETATM   20  C6  UNL     1      -0.733  25.205  42.900  1.00  0.00     0.047 C 
BRANCH  20  21
HETATM   21  C5  UNL     1       0.077  25.668  41.712  1.00  0.00     0.234 C 
BRANCH  21  22
HETATM   22  N1  UNL     1      -0.304  24.933  40.539  1.00  0.00    -0.075 N 
ATOM     23  H12 UNL     1       0.442  24.960  39.844  1.00  0.00     0.277 HD
ATOM     24  H11 UNL     1      -1.035  25.429  40.030  1.00  0.00     0.277 HD
BRANCH  22  25
HETATM   25  C4  UNL     1      -0.700  23.585  40.793  1.00  0.00     0.232 C 
BRANCH  25  26
HETATM   26  C3  UNL     1      -0.921  22.799  39.501  1.00  0.00     0.027 C 
BRANCH  26  27
HETATM   27  C2  UNL     1       0.394  22.651  38.752  1.00  0.00    -0.003 C 
HETATM   28  C1  UNL     1       0.690  21.185  38.586  1.00  0.00     0.005 C 
ENDBRANCH  26  27
ENDBRANCH  25  26
ENDBRANCH  22  25
ENDBRANCH  21  22
ENDBRANCH  20  21
ENDBRANCH  19  20
ENDBRANCH  17  19
ENDBRANCH  15  17
ENDBRANCH  13  15
ENDBRANCH   1  13
TORSDOF 11
ENDMDL
