MODEL 1
REMARK VINA RESULT: -10.292702974      0.000      0.000
REMARK  6 active torsions:
REMARK  status: ('A' for Active; 'I' for Inactive)
REMARK    1  A    between atoms: C2_7  and  N3_8 
REMARK    2  A    between atoms: N3_8  and  C3_10 
REMARK    3  A    between atoms: C4_15  and  S1_16 
REMARK    4  A    between atoms: S1_16  and  N8_19 
REMARK    5  A    between atoms: C8_27  and  C9_28 
REMARK       I    between atoms: C9_28  and  N11_30 
REMARK    6  A    between atoms: N11_30  and  N12_32 
ROOT
HETATM    1  N1  UNL     1      18.782  30.513  13.393  1.00  0.00    -0.383 N 
ATOM      2  H11 UNL     1      18.390  29.643  13.753  1.00  0.00     0.157 HD
ATOM      3  H12 UNL     1      18.983  30.603  12.396  1.00  0.00     0.157 HD
HETATM    4  C1  UNL     1      19.036  31.525  14.150  1.00  0.00     0.133 A 
HETATM    5  N2  UNL     1      19.559  32.691  13.667  1.00  0.00    -0.325 N 
ATOM      6  H2  UNL     1      19.760  32.777  12.670  1.00  0.00     0.169 HD
HETATM    7  C2  UNL     1      19.815  33.733  14.487  1.00  0.00     0.146 A 
HETATM    8  C4  UNL     1      19.549  33.634  15.837  1.00  0.00     0.195 A 
HETATM    9  N10 UNL     1      19.033  32.459  16.266  1.00  0.00    -0.335 N 
ATOM     10  H10 UNL     1      18.832  32.372  17.262  1.00  0.00     0.167 HD
HETATM   11  C8  UNL     1      18.765  31.405  15.492  1.00  0.00     0.147 A 
ENDROOT
BRANCH  11  12
HETATM   12  C9  UNL     1      18.198  30.156  16.056  1.00  0.00     0.290 C 
HETATM   13  O3  UNL     1      17.015  29.896  15.834  1.00  0.00    -0.264 OA
HETATM   14  N11 UNL     1      19.028  29.318  16.821  1.00  0.00    -0.256 N 
ATOM     15  H11 UNL     1      19.997  29.604  16.959  1.00  0.00     0.191 HD
BRANCH  14  16
HETATM   16  N12 UNL     1      18.618  28.133  17.397  1.00  0.00    -0.242 N 
HETATM   17  C10 UNL     1      18.289  26.960  16.875  1.00  0.00     0.224 A 
HETATM   18  N13 UNL     1      17.942  26.072  17.853  1.00  0.00    -0.293 N 
HETATM   19  N14 UNL     1      18.061  26.712  18.998  1.00  0.00    -0.293 N 
ATOM     20  H13 UNL     1      17.650  25.103  17.723  1.00  0.00     0.187 HD
HETATM   21  C11 UNL     1      18.468  27.959  18.745  1.00  0.00     0.224 A 
ATOM     22  H14 UNL     1      17.874  26.322  19.922  1.00  0.00     0.187 HD
ENDBRANCH  14  16
ENDBRANCH  11  12
BRANCH   8  23
HETATM   23  S1  UNL     1      19.807  34.911  16.993  1.00  0.00     0.288 S 
HETATM   24  O1  UNL     1      20.669  34.547  18.142  1.00  0.00    -0.198 OA
HETATM   25  O2  UNL     1      20.581  36.016  16.253  1.00  0.00    -0.198 OA
BRANCH  23  26
HETATM   26  N8  UNL     1      18.313  35.612  17.529  1.00  0.00    -0.240 N 
HETATM   27  C5  UNL     1      17.309  34.958  18.108  1.00  0.00     0.127 A 
HETATM   28  C6  UNL     1      16.268  35.837  18.405  1.00  0.00     0.107 A 
HETATM   29  N9  UNL     1      16.684  37.026  17.987  1.00  0.00    -0.360 N 
HETATM   30  C7  UNL     1      17.928  36.898  17.451  1.00  0.00     0.199 A 
ATOM     31  H9  UNL     1      16.156  37.896  18.056  1.00  0.00     0.166 HD
ENDBRANCH  23  26
ENDBRANCH   8  23
BRANCH   7  32
HETATM   32  N3  UNL     1      20.368  34.907  13.957  1.00  0.00    -0.340 N 
ATOM     33  H3  UNL     1      21.106  35.380  14.478  1.00  0.00     0.164 HD
BRANCH  32  34
HETATM   34  C3  UNL     1      19.937  35.467  12.716  1.00  0.00     0.308 C 
HETATM   35  N4  UNL     1      20.364  36.830  12.482  1.00  0.00    -0.085 NA
HETATM   36  N5  UNL     1      19.499  37.202  11.425  1.00  0.00    -0.018 NA
HETATM   37  N6  UNL     1      18.331  36.490  11.591  1.00  0.00    -0.018 NA
HETATM   38  N7  UNL     1      18.477  35.635  12.669  1.00  0.00    -0.085 NA
ENDBRANCH  32  34
ENDBRANCH   7  32
TORSDOF 6
ENDMDL
MODEL 2
REMARK VINA RESULT: -9.617662864      1.048      1.060
REMARK  6 active torsions:
REMARK  status: ('A' for Active; 'I' for Inactive)
REMARK    1  A    between atoms: C2_7  and  N3_8 
REMARK    2  A    between atoms: N3_8  and  C3_10 
REMARK    3  A    between atoms: C4_15  and  S1_16 
REMARK    4  A    between atoms: S1_16  and  N8_19 
REMARK    5  A    between atoms: C8_27  and  C9_28 
REMARK       I    between atoms: C9_28  and  N11_30 
REMARK    6  A    between atoms: N11_30  and  N12_32 
ROOT
HETATM    1  N1  UNL     1      19.228  31.140  13.478  1.00  0.00    -0.383 N 
ATOM      2  H11 UNL     1      19.194  30.176  13.812  1.00  0.00     0.157 HD
ATOM      3  H12 UNL     1      19.122  31.334  12.482  1.00  0.00     0.157 HD
HETATM    4  C1  UNL     1      19.401  32.142  14.270  1.00  0.00     0.133 A 
HETATM    5  N2  UNL     1      19.446  33.433  13.823  1.00  0.00    -0.325 N 
ATOM      6  H2  UNL     1      19.340  33.623  12.826  1.00  0.00     0.169 HD
HETATM    7  C2  UNL     1      19.629  34.461  14.679  1.00  0.00     0.146 A 
HETATM    8  C4  UNL     1      19.773  34.222  16.030  1.00  0.00     0.195 A 
HETATM    9  N10 UNL     1      19.722  32.928  16.422  1.00  0.00    -0.335 N 
ATOM     10  H10 UNL     1      19.829  32.736  17.418  1.00  0.00     0.167 HD
HETATM   11  C8  UNL     1      19.544  31.881  15.612  1.00  0.00     0.147 A 
ENDROOT
BRANCH  11  12
HETATM   12  C9  UNL     1      19.502  30.496  16.137  1.00  0.00     0.290 C 
HETATM   13  O3  UNL     1      20.541  29.835  16.134  1.00  0.00    -0.264 OA
HETATM   14  N11 UNL     1      18.282  29.987  16.617  1.00  0.00    -0.256 N 
ATOM     15  H11 UNL     1      17.466  30.597  16.585  1.00  0.00     0.191 HD
BRANCH  14  16
HETATM   16  N12 UNL     1      18.116  28.716  17.129  1.00  0.00    -0.242 N 
HETATM   17  C10 UNL     1      17.994  27.534  16.544  1.00  0.00     0.224 A 
HETATM   18  N13 UNL     1      17.849  26.543  17.474  1.00  0.00    -0.293 N 
HETATM   19  N14 UNL     1      17.882  27.130  18.652  1.00  0.00    -0.293 N 
ATOM     20  H13 UNL     1      17.737  25.546  17.291  1.00  0.00     0.187 HD
HETATM   21  C11 UNL     1      18.042  28.444  18.466  1.00  0.00     0.224 A 
ATOM     22  H14 UNL     1      17.798  26.662  19.554  1.00  0.00     0.187 HD
ENDBRANCH  14  16
ENDBRANCH  11  12
BRANCH   8  23
HETATM   23  S1  UNL     1      19.987  35.458  17.237  1.00  0.00     0.288 S 
HETATM   24  O1  UNL     1      20.882  35.088  18.357  1.00  0.00    -0.198 OA
HETATM   25  O2  UNL     1      20.694  36.631  16.536  1.00  0.00    -0.198 OA
BRANCH  23  26
HETATM   26  N8  UNL     1      18.468  36.061  17.823  1.00  0.00    -0.240 N 
HETATM   27  C5  UNL     1      18.046  36.014  19.084  1.00  0.00     0.127 A 
HETATM   28  C6  UNL     1      16.780  36.590  19.190  1.00  0.00     0.107 A 
HETATM   29  N9  UNL     1      16.468  36.980  17.960  1.00  0.00    -0.360 N 
HETATM   30  C7  UNL     1      17.490  36.660  17.120  1.00  0.00     0.199 A 
ATOM     31  H9  UNL     1      15.601  37.443  17.688  1.00  0.00     0.166 HD
ENDBRANCH  23  26
ENDBRANCH   8  23
BRANCH   7  32
HETATM   32  N3  UNL     1      19.687  35.770  14.180  1.00  0.00    -0.340 N 
ATOM     33  H3  UNL     1      19.550  36.547  14.826  1.00  0.00     0.164 HD
BRANCH  32  34
HETATM   34  C3  UNL     1      19.930  36.058  12.802  1.00  0.00     0.308 C 
HETATM   35  N4  UNL     1      20.439  37.387  12.538  1.00  0.00    -0.085 NA
HETATM   36  N5  UNL     1      20.210  37.487  11.145  1.00  0.00    -0.018 NA
HETATM   37  N6  UNL     1      19.099  36.722  10.863  1.00  0.00    -0.018 NA
HETATM   38  N7  UNL     1      18.683  36.092  12.023  1.00  0.00    -0.085 NA
ENDBRANCH  32  34
ENDBRANCH   7  32
TORSDOF 6
ENDMDL
MODEL 3
REMARK VINA RESULT: -9.565671288      1.943      2.417
REMARK  6 active torsions:
REMARK  status: ('A' for Active; 'I' for Inactive)
REMARK    1  A    between atoms: C2_7  and  N3_8 
REMARK    2  A    between atoms: N3_8  and  C3_10 
REMARK    3  A    between atoms: C4_15  and  S1_16 
REMARK    4  A    between atoms: S1_16  and  N8_19 
REMARK    5  A    between atoms: C8_27  and  C9_28 
REMARK       I    between atoms: C9_28  and  N11_30 
REMARK    6  A    between atoms: N11_30  and  N12_32 
ROOT
HETATM    1  N1  UNL     1      19.470  31.124  13.307  1.00  0.00    -0.383 N 
ATOM      2  H11 UNL     1      19.483  30.176  13.685  1.00  0.00     0.157 HD
ATOM      3  H12 UNL     1      19.498  31.266  12.297  1.00  0.00     0.157 HD
HETATM    4  C1  UNL     1      19.417  32.169  14.060  1.00  0.00     0.133 A 
HETATM    5  N2  UNL     1      19.399  33.439  13.553  1.00  0.00    -0.325 N 
ATOM      6  H2  UNL     1      19.428  33.577  12.543  1.00  0.00     0.169 HD
HETATM    7  C2  UNL     1      19.344  34.513  14.369  1.00  0.00     0.146 A 
HETATM    8  C4  UNL     1      19.304  34.344  15.737  1.00  0.00     0.195 A 
HETATM    9  N10 UNL     1      19.325  33.068  16.189  1.00  0.00    -0.335 N 
ATOM     10  H10 UNL     1      19.297  32.928  17.198  1.00  0.00     0.167 HD
HETATM   11  C8  UNL     1      19.379  31.978  15.420  1.00  0.00     0.147 A 
ENDROOT
BRANCH  11  12
HETATM   12  C9  UNL     1      19.398  30.618  16.008  1.00  0.00     0.290 C 
HETATM   13  O3  UNL     1      20.470  30.011  16.053  1.00  0.00    -0.264 OA
HETATM   14  N11 UNL     1      18.197  30.069  16.493  1.00  0.00    -0.256 N 
ATOM     15  H11 UNL     1      17.352  30.635  16.419  1.00  0.00     0.191 HD
BRANCH  14  16
HETATM   16  N12 UNL     1      18.087  28.817  17.061  1.00  0.00    -0.242 N 
HETATM   17  C10 UNL     1      18.012  27.605  16.529  1.00  0.00     0.224 A 
HETATM   18  N13 UNL     1      17.912  26.652  17.502  1.00  0.00    -0.293 N 
HETATM   19  N14 UNL     1      17.925  27.291  18.654  1.00  0.00    -0.293 N 
ATOM     20  H13 UNL     1      17.841  25.643  17.364  1.00  0.00     0.187 HD
HETATM   21  C11 UNL     1      18.030  28.600  18.410  1.00  0.00     0.224 A 
ATOM     22  H14 UNL     1      17.865  26.860  19.576  1.00  0.00     0.187 HD
ENDBRANCH  14  16
ENDBRANCH  11  12
BRANCH   8  23
HETATM   23  S1  UNL     1      19.204  35.643  16.893  1.00  0.00     0.288 S 
HETATM   24  O1  UNL     1      17.986  36.479  16.788  1.00  0.00    -0.198 OA
HETATM   25  O2  UNL     1      19.114  34.983  18.280  1.00  0.00    -0.198 OA
BRANCH  23  26
HETATM   26  N8  UNL     1      20.637  36.622  16.891  1.00  0.00    -0.240 N 
HETATM   27  C5  UNL     1      21.319  37.008  17.967  1.00  0.00     0.127 A 
HETATM   28  C6  UNL     1      22.414  37.785  17.591  1.00  0.00     0.107 A 
HETATM   29  N9  UNL     1      22.362  37.847  16.267  1.00  0.00    -0.360 N 
HETATM   30  C7  UNL     1      21.282  37.143  15.832  1.00  0.00     0.199 A 
ATOM     31  H9  UNL     1      23.024  38.344  15.671  1.00  0.00     0.166 HD
ENDBRANCH  23  26
ENDBRANCH   8  23
BRANCH   7  32
HETATM   32  N3  UNL     1      19.345  35.800  13.813  1.00  0.00    -0.340 N 
ATOM     33  H3  UNL     1      19.210  36.601  14.430  1.00  0.00     0.164 HD
BRANCH  32  34
HETATM   34  C3  UNL     1      19.526  36.034  12.416  1.00  0.00     0.308 C 
HETATM   35  N4  UNL     1      20.379  37.157  12.091  1.00  0.00    -0.085 NA
HETATM   36  N5  UNL     1      20.055  37.352  10.728  1.00  0.00    -0.018 NA
HETATM   37  N6  UNL     1      18.744  36.959  10.565  1.00  0.00    -0.018 NA
HETATM   38  N7  UNL     1      18.275  36.455  11.765  1.00  0.00    -0.085 NA
ENDBRANCH  32  34
ENDBRANCH   7  32
TORSDOF 6
ENDMDL
MODEL 4
REMARK VINA RESULT: -9.445988919      3.726      8.274
REMARK  6 active torsions:
REMARK  status: ('A' for Active; 'I' for Inactive)
REMARK    1  A    between atoms: C2_7  and  N3_8 
REMARK    2  A    between atoms: N3_8  and  C3_10 
REMARK    3  A    between atoms: C4_15  and  S1_16 
REMARK    4  A    between atoms: S1_16  and  N8_19 
REMARK    5  A    between atoms: C8_27  and  C9_28 
REMARK       I    between atoms: C9_28  and  N11_30 
REMARK    6  A    between atoms: N11_30  and  N12_32 
ROOT
HETATM    1  N1  UNL     1      20.573  35.396  18.314  1.00  0.00    -0.383 N 
ATOM      2  H11 UNL     1      20.962  36.237  18.741  1.00  0.00     0.157 HD
ATOM      3  H12 UNL     1      20.374  34.580  18.893  1.00  0.00     0.157 HD
HETATM    4  C1  UNL     1      20.314  35.316  17.053  1.00  0.00     0.133 A 
HETATM    5  N2  UNL     1      19.791  34.190  16.481  1.00  0.00    -0.325 N 
ATOM      6  H2  UNL     1      19.595  33.376  17.063  1.00  0.00     0.169 HD
HETATM    7  C2  UNL     1      19.532  34.138  15.157  1.00  0.00     0.146 A 
HETATM    8  C4  UNL     1      19.791  35.231  14.356  1.00  0.00     0.195 A 
HETATM    9  N10 UNL     1      20.309  36.320  14.969  1.00  0.00    -0.335 N 
ATOM     10  H10 UNL     1      20.507  37.135  14.389  1.00  0.00     0.167 HD
HETATM   11  C8  UNL     1      20.581  36.415  16.273  1.00  0.00     0.147 A 
ENDROOT
BRANCH  11  12
HETATM   12  C9  UNL     1      21.149  37.655  16.855  1.00  0.00     0.290 C 
HETATM   13  O3  UNL     1      20.374  38.521  17.263  1.00  0.00    -0.264 OA
HETATM   14  N11 UNL     1      22.546  37.798  16.920  1.00  0.00    -0.256 N 
ATOM     15  H11 UNL     1      23.121  37.036  16.560  1.00  0.00     0.191 HD
BRANCH  14  16
HETATM   16  N12 UNL     1      23.192  38.902  17.438  1.00  0.00    -0.242 N 
HETATM   17  C10 UNL     1      23.478  39.259  18.681  1.00  0.00     0.224 A 
HETATM   18  N13 UNL     1      24.139  40.455  18.704  1.00  0.00    -0.293 N 
HETATM   19  N14 UNL     1      24.261  40.838  17.450  1.00  0.00    -0.293 N 
ATOM     20  H13 UNL     1      24.472  40.953  19.530  1.00  0.00     0.187 HD
HETATM   21  C11 UNL     1      23.695  39.914  16.668  1.00  0.00     0.224 A 
ATOM     22  H14 UNL     1      24.711  41.695  17.129  1.00  0.00     0.187 HD
ENDBRANCH  14  16
ENDBRANCH  11  12
BRANCH   8  23
HETATM   23  S1  UNL     1      19.477  35.300  12.644  1.00  0.00     0.288 S 
HETATM   24  O1  UNL     1      19.656  34.018  11.925  1.00  0.00    -0.198 OA
HETATM   25  O2  UNL     1      17.983  35.635  12.491  1.00  0.00    -0.198 OA
BRANCH  23  26
HETATM   26  N8  UNL     1      20.363  36.578  11.874  1.00  0.00    -0.240 N 
HETATM   27  C5  UNL     1      20.177  37.016  10.631  1.00  0.00     0.127 A 
HETATM   28  C6  UNL     1      21.066  38.052  10.347  1.00  0.00     0.107 A 
HETATM   29  N9  UNL     1      21.780  38.215  11.454  1.00  0.00    -0.360 N 
HETATM   30  C7  UNL     1      21.359  37.322  12.389  1.00  0.00     0.199 A 
ATOM     31  H9  UNL     1      22.524  38.901  11.583  1.00  0.00     0.166 HD
ENDBRANCH  23  26
ENDBRANCH   8  23
BRANCH   7  32
HETATM   32  N3  UNL     1      19.012  32.960  14.603  1.00  0.00    -0.340 N 
ATOM     33  H3  UNL     1      18.544  33.008  13.698  1.00  0.00     0.164 HD
BRANCH  32  34
HETATM   34  C3  UNL     1      19.112  31.694  15.257  1.00  0.00     0.308 C 
HETATM   35  N4  UNL     1      18.679  30.563  14.464  1.00  0.00    -0.085 NA
HETATM   36  N5  UNL     1      18.536  29.575  15.467  1.00  0.00    -0.018 NA
HETATM   37  N6  UNL     1      18.186  30.227  16.629  1.00  0.00    -0.018 NA
HETATM   38  N7  UNL     1      18.185  31.591  16.394  1.00  0.00    -0.085 NA
ENDBRANCH  32  34
ENDBRANCH   7  32
TORSDOF 6
ENDMDL
MODEL 5
REMARK VINA RESULT: -9.372423080      3.012      4.777
REMARK  6 active torsions:
REMARK  status: ('A' for Active; 'I' for Inactive)
REMARK    1  A    between atoms: C2_7  and  N3_8 
REMARK    2  A    between atoms: N3_8  and  C3_10 
REMARK    3  A    between atoms: C4_15  and  S1_16 
REMARK    4  A    between atoms: S1_16  and  N8_19 
REMARK    5  A    between atoms: C8_27  and  C9_28 
REMARK       I    between atoms: C9_28  and  N11_30 
REMARK    6  A    between atoms: N11_30  and  N12_32 
ROOT
HETATM    1  N1  UNL     1      20.729  35.979  12.468  1.00  0.00    -0.383 N 
ATOM      2  H11 UNL     1      20.413  35.200  11.890  1.00  0.00     0.157 HD
ATOM      3  H12 UNL     1      21.195  36.775  12.032  1.00  0.00     0.157 HD
HETATM    4  C1  UNL     1      20.561  36.007  13.746  1.00  0.00     0.133 A 
HETATM    5  N2  UNL     1      20.984  37.052  14.520  1.00  0.00    -0.325 N 
ATOM      6  H2  UNL     1      21.451  37.845  14.080  1.00  0.00     0.169 HD
HETATM    7  C2  UNL     1      20.794  37.051  15.856  1.00  0.00     0.146 A 
HETATM    8  C4  UNL     1      20.164  35.986  16.466  1.00  0.00     0.195 A 
HETATM    9  N10 UNL     1      19.766  34.976  15.658  1.00  0.00    -0.335 N 
ATOM     10  H10 UNL     1      19.300  34.182  16.095  1.00  0.00     0.167 HD
HETATM   11  C8  UNL     1      19.933  34.936  14.334  1.00  0.00     0.147 A 
ENDROOT
BRANCH  11  12
HETATM   12  C9  UNL     1      19.461  33.783  13.530  1.00  0.00     0.290 C 
HETATM   13  O3  UNL     1      18.881  34.006  12.467  1.00  0.00    -0.264 OA
HETATM   14  N11 UNL     1      19.690  32.481  14.009  1.00  0.00    -0.256 N 
ATOM     15  H11 UNL     1      20.177  32.379  14.899  1.00  0.00     0.191 HD
BRANCH  14  16
HETATM   16  N12 UNL     1      19.299  31.330  13.354  1.00  0.00    -0.242 N 
HETATM   17  C10 UNL     1      19.223  31.026  12.067  1.00  0.00     0.224 A 
HETATM   18  N13 UNL     1      18.774  29.746  11.896  1.00  0.00    -0.293 N 
HETATM   19  N14 UNL     1      18.571  29.258  13.101  1.00  0.00    -0.293 N 
ATOM     20  H13 UNL     1      18.626  29.265  11.008  1.00  0.00     0.187 HD
HETATM   21  C11 UNL     1      18.882  30.199  13.998  1.00  0.00     0.224 A 
ATOM     22  H14 UNL     1      18.233  28.319  13.316  1.00  0.00     0.187 HD
ENDBRANCH  14  16
ENDBRANCH  11  12
BRANCH   8  23
HETATM   23  S1  UNL     1      19.836  35.875  18.173  1.00  0.00     0.288 S 
HETATM   24  O1  UNL     1      20.168  34.570  18.788  1.00  0.00    -0.198 OA
HETATM   25  O2  UNL     1      20.769  36.887  18.860  1.00  0.00    -0.198 OA
BRANCH  23  26
HETATM   26  N8  UNL     1      18.209  36.350  18.551  1.00  0.00    -0.240 N 
HETATM   27  C5  UNL     1      17.277  36.706  17.671  1.00  0.00     0.127 A 
HETATM   28  C6  UNL     1      16.090  37.024  18.330  1.00  0.00     0.107 A 
HETATM   29  N9  UNL     1      16.345  36.845  19.620  1.00  0.00    -0.360 N 
HETATM   30  C7  UNL     1      17.634  36.436  19.764  1.00  0.00     0.199 A 
ATOM     31  H9  UNL     1      15.681  36.992  20.381  1.00  0.00     0.166 HD
ENDBRANCH  23  26
ENDBRANCH   8  23
BRANCH   7  32
HETATM   32  N3  UNL     1      21.257  38.132  16.619  1.00  0.00    -0.340 N 
ATOM     33  H3  UNL     1      20.579  38.696  17.131  1.00  0.00     0.164 HD
BRANCH  32  34
HETATM   34  C3  UNL     1      22.641  38.476  16.705  1.00  0.00     0.308 C 
HETATM   35  N4  UNL     1      22.935  39.608  17.556  1.00  0.00    -0.085 NA
HETATM   36  N5  UNL     1      24.251  39.919  17.140  1.00  0.00    -0.018 NA
HETATM   37  N6  UNL     1      24.350  39.560  15.813  1.00  0.00    -0.018 NA
HETATM   38  N7  UNL     1      23.163  38.967  15.421  1.00  0.00    -0.085 NA
ENDBRANCH  32  34
ENDBRANCH   7  32
TORSDOF 6
ENDMDL
