MODEL 1
REMARK VINA RESULT: -9.138564070      0.000      0.000
REMARK  11 active torsions:
REMARK  status: ('A' for Active; 'I' for Inactive)
REMARK    1  A    between atoms: O1_2  and  C2_3 
REMARK    2  A    between atoms: C2_3  and  C3_4 
REMARK    3  A    between atoms: C3_4  and  C4_5 
REMARK    4  A    between atoms: C3_4  and  N8_23 
REMARK    5  A    between atoms: C4_5  and  N1_6 
REMARK    6  A    between atoms: C5_10  and  C6_11 
REMARK    7  A    between atoms: C8_24  and  C9_25 
REMARK    8  A    between atoms: C9_25  and  N9_26 
REMARK    9  A    between atoms: C9_25  and  N10_30 
REMARK   10  A    between atoms: C11_37  and  O2_38 
REMARK   11  A    between atoms: C12_42  and  N13_43 
ROOT
HETATM    1  N8  UNL     1      20.121  35.578  15.707  1.00  0.00    -0.285 N 
HETATM    2  C8  UNL     1      20.049  35.660  14.376  1.00  0.00     0.149 A 
HETATM    3  N11 UNL     1      20.901  36.651  13.956  1.00  0.00    -0.336 N 
ATOM      4  H11 UNL     1      21.048  36.932  12.987  1.00  0.00     0.167 HD
HETATM    5  C10 UNL     1      21.499  37.181  15.004  1.00  0.00     0.131 A 
HETATM    6  C11 UNL     1      22.440  38.205  15.118  1.00  0.00     0.186 A 
HETATM    7  N12 UNL     1      22.837  38.489  16.370  1.00  0.00    -0.168 N 
ATOM      8  H12 UNL     1      23.525  39.231  16.493  1.00  0.00     0.186 HD
HETATM    9  C12 UNL     1      22.390  37.861  17.472  1.00  0.00     0.679 A 
HETATM   10  N14 UNL     1      21.478  36.876  17.313  1.00  0.00    -0.174 N 
ATOM     11  H14 UNL     1      21.122  36.386  18.134  1.00  0.00     0.186 HD
HETATM   12  C13 UNL     1      21.031  36.532  16.095  1.00  0.00     0.160 A 
ENDROOT
BRANCH   1  13
HETATM   13  C3  UNL     1      19.410  34.686  16.556  1.00  0.00     0.042 C 
BRANCH  13  14
HETATM   14  C2  UNL     1      19.556  33.239  16.250  1.00  0.00     0.221 C 
BRANCH  14  15
HETATM   15  O1  UNL     1      18.506  32.418  16.501  1.00  0.00    -0.390 OA
HETATM   16  C1  UNL     1      18.658  31.259  15.753  1.00  0.00     0.201 C 
ENDBRANCH  14  15
ENDBRANCH  13  14
BRANCH  13  17
HETATM   17  C4  UNL     1      19.383  35.016  18.017  1.00  0.00     0.222 C 
BRANCH  17  18
HETATM   18  N1  UNL     1      18.188  35.841  18.249  1.00  0.00    -0.211 N 
HETATM   19  N2  UNL     1      18.173  37.158  18.366  1.00  0.00    -0.002 NA
HETATM   20  N3  UNL     1      16.899  37.536  18.569  1.00  0.00    -0.265 N 
HETATM   21  C5  UNL     1      16.129  36.465  18.579  1.00  0.00     0.170 A 
ATOM     22  H3  UNL     1      16.579  38.497  18.696  1.00  0.00     0.186 HD
HETATM   23  N7  UNL     1      16.922  35.407  18.381  1.00  0.00    -0.267 N 
ATOM     24  H7  UNL     1      16.618  34.434  18.337  1.00  0.00     0.190 HD
BRANCH  21  25
HETATM   25  C6  UNL     1      14.686  36.463  18.771  1.00  0.00     0.139 A 
HETATM   26  N4  UNL     1      13.791  35.521  18.513  1.00  0.00    -0.289 N 
HETATM   27  N5  UNL     1      12.563  35.709  18.752  1.00  0.00    -0.279 N 
ATOM     28  H4  UNL     1      14.096  34.633  18.117  1.00  0.00     0.188 HD
HETATM   29  C7  UNL     1      12.179  36.880  19.274  1.00  0.00     0.159 A 
ATOM     30  H5  UNL     1      11.878  34.980  18.552  1.00  0.00     0.189 HD
HETATM   31  N6  UNL     1      10.957  37.251  19.587  1.00  0.00    -0.379 N 
HETATM   32  S1  UNL     1      13.670  37.704  19.405  1.00  0.00    -0.030 SA
ATOM     33  H62 UNL     1      10.067  36.759  19.509  1.00  0.00     0.158 HD
ATOM     34  H61 UNL     1      10.664  38.144  19.985  1.00  0.00     0.158 HD
ENDBRANCH  21  25
ENDBRANCH  17  18
ENDBRANCH  13  17
ENDBRANCH   1  13
BRANCH   2  35
HETATM   35  C9  UNL     1      19.260  34.914  13.417  1.00  0.00     0.445 C 
BRANCH  35  36
HETATM   36  N9  UNL     1      19.371  35.610  12.110  1.00  0.00    -0.043 N 
ATOM     37  H93 UNL     1      18.724  36.392  12.019  1.00  0.00     0.277 HD
ATOM     38  H92 UNL     1      20.238  36.141  12.015  1.00  0.00     0.277 HD
ATOM     39  H91 UNL     1      19.253  34.909  11.378  1.00  0.00     0.277 HD
ENDBRANCH  35  36
BRANCH  35  40
HETATM   40  N10 UNL     1      19.830  33.584  13.131  1.00  0.00    -0.043 N 
ATOM     41 3H10 UNL     1      20.570  33.644  12.432  1.00  0.00     0.277 HD
ATOM     42 2H10 UNL     1      20.378  33.243  13.920  1.00  0.00     0.277 HD
ATOM     43 1H10 UNL     1      19.120  32.906  12.855  1.00  0.00     0.277 HD
ENDBRANCH  35  40
ENDBRANCH   2  35
BRANCH   6  44
HETATM   44  O2  UNL     1      22.931  38.881  14.010  1.00  0.00    -0.344 OA
ATOM     45  H2  UNL     1      23.371  39.720  14.085  1.00  0.00     0.219 HD
ENDBRANCH   6  44
BRANCH   9  46
HETATM   46  N13 UNL     1      22.817  38.185  18.669  1.00  0.00    -0.234 N 
ATOM     47 2H13 UNL     1      23.707  38.669  18.787  1.00  0.00     0.174 HD
ATOM     48 1H13 UNL     1      22.279  37.964  19.507  1.00  0.00     0.174 HD
ENDBRANCH   9  46
TORSDOF 11
ENDMDL
MODEL 2
REMARK VINA RESULT: -8.897759730      2.049      4.243
REMARK  11 active torsions:
REMARK  status: ('A' for Active; 'I' for Inactive)
REMARK    1  A    between atoms: O1_2  and  C2_3 
REMARK    2  A    between atoms: C2_3  and  C3_4 
REMARK    3  A    between atoms: C3_4  and  C4_5 
REMARK    4  A    between atoms: C3_4  and  N8_23 
REMARK    5  A    between atoms: C4_5  and  N1_6 
REMARK    6  A    between atoms: C5_10  and  C6_11 
REMARK    7  A    between atoms: C8_24  and  C9_25 
REMARK    8  A    between atoms: C9_25  and  N9_26 
REMARK    9  A    between atoms: C9_25  and  N10_30 
REMARK   10  A    between atoms: C11_37  and  O2_38 
REMARK   11  A    between atoms: C12_42  and  N13_43 
ROOT
HETATM    1  N8  UNL     1      19.728  34.873  15.681  1.00  0.00    -0.285 N 
HETATM    2  C8  UNL     1      20.193  35.336  14.518  1.00  0.00     0.149 A 
HETATM    3  N11 UNL     1      20.144  34.320  13.596  1.00  0.00    -0.336 N 
ATOM      4  H11 UNL     1      20.438  34.391  12.623  1.00  0.00     0.167 HD
HETATM    5  C10 UNL     1      19.656  33.238  14.170  1.00  0.00     0.131 A 
HETATM    6  C11 UNL     1      19.407  31.956  13.677  1.00  0.00     0.186 A 
HETATM    7  N12 UNL     1      18.895  31.085  14.563  1.00  0.00    -0.168 N 
ATOM      8  H12 UNL     1      18.700  30.139  14.239  1.00  0.00     0.186 HD
HETATM    9  C12 UNL     1      18.624  31.376  15.847  1.00  0.00     0.679 A 
HETATM   10  N14 UNL     1      18.882  32.630  16.281  1.00  0.00    -0.174 N 
ATOM     11  H14 UNL     1      18.685  32.875  17.252  1.00  0.00     0.186 HD
HETATM   12  C13 UNL     1      19.392  33.559  15.457  1.00  0.00     0.160 A 
ENDROOT
BRANCH   1  13
HETATM   13  C3  UNL     1      19.598  35.587  16.904  1.00  0.00     0.042 C 
BRANCH  13  14
HETATM   14  C2  UNL     1      20.810  35.634  17.763  1.00  0.00     0.221 C 
BRANCH  14  15
HETATM   15  O1  UNL     1      20.983  36.705  18.576  1.00  0.00    -0.390 OA
HETATM   16  C1  UNL     1      22.019  37.481  18.077  1.00  0.00     0.201 C 
ENDBRANCH  14  15
ENDBRANCH  13  14
BRANCH  13  17
HETATM   17  C4  UNL     1      18.809  36.860  16.867  1.00  0.00     0.222 C 
BRANCH  17  18
HETATM   18  N1  UNL     1      17.707  36.711  17.829  1.00  0.00    -0.211 N 
HETATM   19  N2  UNL     1      17.842  36.448  19.117  1.00  0.00    -0.002 NA
HETATM   20  N3  UNL     1      16.610  36.390  19.653  1.00  0.00    -0.265 N 
HETATM   21  C5  UNL     1      15.719  36.614  18.707  1.00  0.00     0.170 A 
ATOM     22  H3  UNL     1      16.398  36.202  20.633  1.00  0.00     0.186 HD
HETATM   23  N7  UNL     1      16.392  36.814  17.569  1.00  0.00    -0.267 N 
ATOM     24  H7  UNL     1      15.978  37.012  16.658  1.00  0.00     0.190 HD
BRANCH  21  25
HETATM   25  C6  UNL     1      14.275  36.633  18.892  1.00  0.00     0.139 A 
HETATM   26  N4  UNL     1      13.360  35.730  18.576  1.00  0.00    -0.289 N 
HETATM   27  N5  UNL     1      12.135  35.932  18.821  1.00  0.00    -0.279 N 
ATOM     28  H4  UNL     1      13.646  34.859  18.131  1.00  0.00     0.188 HD
HETATM   29  C7  UNL     1      11.775  37.079  19.407  1.00  0.00     0.159 A 
ATOM     30  H5  UNL     1      11.435  35.231  18.575  1.00  0.00     0.189 HD
HETATM   31  N6  UNL     1      10.560  37.460  19.737  1.00  0.00    -0.379 N 
HETATM   32  S1  UNL     1      13.284  37.859  19.593  1.00  0.00    -0.030 SA
ATOM     33  H62 UNL     1       9.659  36.994  19.626  1.00  0.00     0.158 HD
ATOM     34  H61 UNL     1      10.285  38.335  20.184  1.00  0.00     0.158 HD
ENDBRANCH  21  25
ENDBRANCH  17  18
ENDBRANCH  13  17
ENDBRANCH   1  13
BRANCH   2  35
HETATM   35  C9  UNL     1      20.696  36.642  14.145  1.00  0.00     0.445 C 
BRANCH  35  36
HETATM   36  N9  UNL     1      22.115  36.714  14.578  1.00  0.00    -0.043 N 
ATOM     37  H93 UNL     1      22.321  37.546  15.130  1.00  0.00     0.277 HD
ATOM     38  H92 UNL     1      22.349  36.020  15.288  1.00  0.00     0.277 HD
ATOM     39  H91 UNL     1      22.694  36.638  13.742  1.00  0.00     0.277 HD
ENDBRANCH  35  36
BRANCH  35  40
HETATM   40  N10 UNL     1      20.790  36.814  12.684  1.00  0.00    -0.043 N 
ATOM     41 3H10 UNL     1      19.924  36.533  12.224  1.00  0.00     0.277 HD
ATOM     42 2H10 UNL     1      20.795  37.802  12.430  1.00  0.00     0.277 HD
ATOM     43 1H10 UNL     1      21.592  36.328  12.284  1.00  0.00     0.277 HD
ENDBRANCH  35  40
ENDBRANCH   2  35
BRANCH   6  44
HETATM   44  O2  UNL     1      19.671  31.609  12.359  1.00  0.00    -0.344 OA
ATOM     45  H2  UNL     1      20.301  30.936  12.132  1.00  0.00     0.219 HD
ENDBRANCH   6  44
BRANCH   9  46
HETATM   46  N13 UNL     1      18.123  30.480  16.664  1.00  0.00    -0.234 N 
ATOM     47 2H13 UNL     1      18.737  29.838  17.166  1.00  0.00     0.174 HD
ATOM     48 1H13 UNL     1      17.118  30.400  16.820  1.00  0.00     0.174 HD
ENDBRANCH   9  46
TORSDOF 11
ENDMDL
MODEL 3
REMARK VINA RESULT: -8.842083674      2.306      4.533
REMARK  11 active torsions:
REMARK  status: ('A' for Active; 'I' for Inactive)
REMARK    1  A    between atoms: O1_2  and  C2_3 
REMARK    2  A    between atoms: C2_3  and  C3_4 
REMARK    3  A    between atoms: C3_4  and  C4_5 
REMARK    4  A    between atoms: C3_4  and  N8_23 
REMARK    5  A    between atoms: C4_5  and  N1_6 
REMARK    6  A    between atoms: C5_10  and  C6_11 
REMARK    7  A    between atoms: C8_24  and  C9_25 
REMARK    8  A    between atoms: C9_25  and  N9_26 
REMARK    9  A    between atoms: C9_25  and  N10_30 
REMARK   10  A    between atoms: C11_37  and  O2_38 
REMARK   11  A    between atoms: C12_42  and  N13_43 
ROOT
HETATM    1  N8  UNL     1      22.428  38.442  15.368  1.00  0.00    -0.285 N 
HETATM    2  C8  UNL     1      23.381  39.138  15.993  1.00  0.00     0.149 A 
HETATM    3  N11 UNL     1      24.074  39.862  15.056  1.00  0.00    -0.336 N 
ATOM      4  H11 UNL     1      24.858  40.485  15.251  1.00  0.00     0.167 HD
HETATM    5  C10 UNL     1      23.566  39.626  13.863  1.00  0.00     0.131 A 
HETATM    6  C11 UNL     1      23.904  40.105  12.597  1.00  0.00     0.186 A 
HETATM    7  N12 UNL     1      23.155  39.639  11.583  1.00  0.00    -0.168 N 
ATOM      8  H12 UNL     1      23.373  39.968  10.643  1.00  0.00     0.186 HD
HETATM    9  C12 UNL     1      22.139  38.770  11.723  1.00  0.00     0.679 A 
HETATM   10  N14 UNL     1      21.847  38.332  12.969  1.00  0.00    -0.174 N 
ATOM     11  H14 UNL     1      21.081  37.672  13.101  1.00  0.00     0.186 HD
HETATM   12  C13 UNL     1      22.549  38.751  14.034  1.00  0.00     0.160 A 
ENDROOT
BRANCH   1  13
HETATM   13  C3  UNL     1      21.478  37.562  15.954  1.00  0.00     0.042 C 
BRANCH  13  14
HETATM   14  C2  UNL     1      21.156  36.338  15.175  1.00  0.00     0.221 C 
BRANCH  14  15
HETATM   15  O1  UNL     1      19.941  36.255  14.576  1.00  0.00    -0.390 OA
HETATM   16  C1  UNL     1      19.450  34.969  14.740  1.00  0.00     0.201 C 
ENDBRANCH  14  15
ENDBRANCH  13  14
BRANCH  13  17
HETATM   17  C4  UNL     1      21.567  37.354  17.435  1.00  0.00     0.222 C 
BRANCH  17  18
HETATM   18  N1  UNL     1      20.315  36.708  17.855  1.00  0.00    -0.211 N 
HETATM   19  N2  UNL     1      20.224  35.583  18.544  1.00  0.00    -0.002 NA
HETATM   20  N3  UNL     1      18.917  35.322  18.729  1.00  0.00    -0.265 N 
HETATM   21  C5  UNL     1      18.204  36.275  18.161  1.00  0.00     0.170 A 
ATOM     22  H3  UNL     1      18.539  34.517  19.228  1.00  0.00     0.186 HD
HETATM   23  N7  UNL     1      19.065  37.141  17.615  1.00  0.00    -0.267 N 
ATOM     24  H7  UNL     1      18.816  37.987  17.103  1.00  0.00     0.190 HD
BRANCH  21  25
HETATM   25  C6  UNL     1      16.750  36.349  18.146  1.00  0.00     0.139 A 
HETATM   26  N4  UNL     1      15.947  37.290  17.675  1.00  0.00    -0.289 N 
HETATM   27  N5  UNL     1      14.690  37.172  17.756  1.00  0.00    -0.279 N 
ATOM     28  H4  UNL     1      16.347  38.122  17.241  1.00  0.00     0.188 HD
HETATM   29  C7  UNL     1      14.180  36.075  18.327  1.00  0.00     0.159 A 
ATOM     30  H5  UNL     1      14.076  37.902  17.391  1.00  0.00     0.189 HD
HETATM   31  N6  UNL     1      12.910  35.780  18.497  1.00  0.00    -0.379 N 
HETATM   32  S1  UNL     1      15.597  35.216  18.745  1.00  0.00    -0.030 SA
ATOM     33  H62 UNL     1      12.064  36.294  18.247  1.00  0.00     0.158 HD
ATOM     34  H61 UNL     1      12.521  34.943  18.932  1.00  0.00     0.158 HD
ENDBRANCH  21  25
ENDBRANCH  17  18
ENDBRANCH  13  17
ENDBRANCH   1  13
BRANCH   2  35
HETATM   35  C9  UNL     1      23.741  39.215  17.395  1.00  0.00     0.445 C 
BRANCH  35  36
HETATM   36  N9  UNL     1      25.065  38.561  17.551  1.00  0.00    -0.043 N 
ATOM     37  H93 UNL     1      25.118  37.655  17.087  1.00  0.00     0.277 HD
ATOM     38  H92 UNL     1      25.803  39.026  17.022  1.00  0.00     0.277 HD
ATOM     39  H91 UNL     1      25.264  38.508  18.550  1.00  0.00     0.277 HD
ENDBRANCH  35  36
BRANCH  35  40
HETATM   40  N10 UNL     1      24.003  40.597  17.835  1.00  0.00    -0.043 N 
ATOM     41 3H10 UNL     1      23.144  41.147  17.853  1.00  0.00     0.277 HD
ATOM     42 2H10 UNL     1      24.239  40.628  18.826  1.00  0.00     0.277 HD
ATOM     43 1H10 UNL     1      24.720  41.056  17.272  1.00  0.00     0.277 HD
ENDBRANCH  35  40
ENDBRANCH   2  35
BRANCH   6  44
HETATM   44  O2  UNL     1      24.945  41.003  12.402  1.00  0.00    -0.344 OA
ATOM     45  H2  UNL     1      25.207  41.624  13.072  1.00  0.00     0.219 HD
ENDBRANCH   6  44
BRANCH   9  46
HETATM   46  N13 UNL     1      21.444  38.353  10.692  1.00  0.00    -0.234 N 
ATOM     47 2H13 UNL     1      20.866  37.515  10.764  1.00  0.00     0.174 HD
ATOM     48 1H13 UNL     1      21.460  38.848   9.801  1.00  0.00     0.174 HD
ENDBRANCH   9  46
TORSDOF 11
ENDMDL
MODEL 4
REMARK VINA RESULT: -8.753426517      1.212      1.467
REMARK  11 active torsions:
REMARK  status: ('A' for Active; 'I' for Inactive)
REMARK    1  A    between atoms: O1_2  and  C2_3 
REMARK    2  A    between atoms: C2_3  and  C3_4 
REMARK    3  A    between atoms: C3_4  and  C4_5 
REMARK    4  A    between atoms: C3_4  and  N8_23 
REMARK    5  A    between atoms: C4_5  and  N1_6 
REMARK    6  A    between atoms: C5_10  and  C6_11 
REMARK    7  A    between atoms: C8_24  and  C9_25 
REMARK    8  A    between atoms: C9_25  and  N9_26 
REMARK    9  A    between atoms: C9_25  and  N10_30 
REMARK   10  A    between atoms: C11_37  and  O2_38 
REMARK   11  A    between atoms: C12_42  and  N13_43 
ROOT
HETATM    1  N8  UNL     1      20.337  36.379  15.051  1.00  0.00    -0.285 N 
HETATM    2  C8  UNL     1      20.047  35.933  13.826  1.00  0.00     0.149 A 
HETATM    3  N11 UNL     1      20.874  36.562  12.928  1.00  0.00    -0.336 N 
ATOM      4  H11 UNL     1      20.872  36.413  11.919  1.00  0.00     0.167 HD
HETATM    5  C10 UNL     1      21.669  37.388  13.578  1.00  0.00     0.131 A 
HETATM    6  C11 UNL     1      22.675  38.249  13.137  1.00  0.00     0.186 A 
HETATM    7  N12 UNL     1      23.293  38.957  14.097  1.00  0.00    -0.168 N 
ATOM      8  H12 UNL     1      24.034  39.596  13.813  1.00  0.00     0.186 HD
HETATM    9  C12 UNL     1      23.001  38.880  15.407  1.00  0.00     0.679 A 
HETATM   10  N14 UNL     1      22.018  38.033  15.789  1.00  0.00    -0.174 N 
ATOM     11  H14 UNL     1      21.778  37.958  16.777  1.00  0.00     0.186 HD
HETATM   12  C13 UNL     1      21.354  37.290  14.889  1.00  0.00     0.160 A 
ENDROOT
BRANCH   1  13
HETATM   13  C3  UNL     1      19.728  35.994  16.276  1.00  0.00     0.042 C 
BRANCH  13  14
HETATM   14  C2  UNL     1      20.115  34.661  16.807  1.00  0.00     0.221 C 
BRANCH  14  15
HETATM   15  O1  UNL     1      19.165  33.696  16.885  1.00  0.00    -0.390 OA
HETATM   16  C1  UNL     1      19.580  32.601  16.143  1.00  0.00     0.201 C 
ENDBRANCH  14  15
ENDBRANCH  13  14
BRANCH  13  17
HETATM   17  C4  UNL     1      19.565  37.058  17.318  1.00  0.00     0.222 C 
BRANCH  17  18
HETATM   18  N1  UNL     1      18.390  36.696  18.124  1.00  0.00    -0.211 N 
HETATM   19  N2  UNL     1      18.422  36.153  19.329  1.00  0.00    -0.002 NA
HETATM   20  N3  UNL     1      17.150  35.973  19.729  1.00  0.00    -0.265 N 
HETATM   21  C5  UNL     1      16.337  36.399  18.782  1.00  0.00     0.170 A 
ATOM     22  H3  UNL     1      16.861  35.572  20.621  1.00  0.00     0.186 HD
HETATM   23  N7  UNL     1      17.100  36.850  17.780  1.00  0.00    -0.267 N 
ATOM     24  H7  UNL     1      16.759  37.244  16.903  1.00  0.00     0.190 HD
BRANCH  21  25
HETATM   25  C6  UNL     1      14.883  36.373  18.841  1.00  0.00     0.139 A 
HETATM   26  N4  UNL     1      14.031  35.415  18.509  1.00  0.00    -0.289 N 
HETATM   27  N5  UNL     1      12.783  35.583  18.633  1.00  0.00    -0.279 N 
ATOM     28  H4  UNL     1      14.386  34.529  18.149  1.00  0.00     0.188 HD
HETATM   29  C7  UNL     1      12.333  36.750  19.108  1.00  0.00     0.159 A 
ATOM     30  H5  UNL     1      12.132  34.841  18.376  1.00  0.00     0.189 HD
HETATM   31  N6  UNL     1      11.082  37.102  19.305  1.00  0.00    -0.379 N 
HETATM   32  S1  UNL     1      13.792  37.600  19.370  1.00  0.00    -0.030 SA
ATOM     33  H62 UNL     1      10.211  36.594  19.149  1.00  0.00     0.158 HD
ATOM     34  H61 UNL     1      10.739  37.992  19.668  1.00  0.00     0.158 HD
ENDBRANCH  21  25
ENDBRANCH  17  18
ENDBRANCH  13  17
ENDBRANCH   1  13
BRANCH   2  35
HETATM   35  C9  UNL     1      19.066  34.969  13.371  1.00  0.00     0.445 C 
BRANCH  35  36
HETATM   36  N9  UNL     1      18.368  35.561  12.201  1.00  0.00    -0.043 N 
ATOM     37  H93 UNL     1      18.347  34.939  11.394  1.00  0.00     0.277 HD
ATOM     38  H92 UNL     1      17.360  35.639  12.337  1.00  0.00     0.277 HD
ATOM     39  H91 UNL     1      18.812  36.457  12.001  1.00  0.00     0.277 HD
ENDBRANCH  35  36
BRANCH  35  40
HETATM   40  N10 UNL     1      19.686  33.757  12.804  1.00  0.00    -0.043 N 
ATOM     41 3H10 UNL     1      19.837  33.857  11.801  1.00  0.00     0.277 HD
ATOM     42 2H10 UNL     1      20.656  33.666  13.107  1.00  0.00     0.277 HD
ATOM     43 1H10 UNL     1      19.155  32.913  13.013  1.00  0.00     0.277 HD
ENDBRANCH  35  40
ENDBRANCH   2  35
BRANCH   6  44
HETATM   44  O2  UNL     1      23.012  38.362  11.795  1.00  0.00    -0.344 OA
ATOM     45  H2  UNL     1      23.110  39.206  11.369  1.00  0.00     0.219 HD
ENDBRANCH   6  44
BRANCH   9  46
HETATM   46  N13 UNL     1      23.642  39.599  16.298  1.00  0.00    -0.234 N 
ATOM     47 2H13 UNL     1      23.666  39.308  17.276  1.00  0.00     0.174 HD
ATOM     48 1H13 UNL     1      24.129  40.458  16.043  1.00  0.00     0.174 HD
ENDBRANCH   9  46
TORSDOF 11
ENDMDL
MODEL 5
REMARK VINA RESULT: -8.672111122      4.044      7.305
REMARK  11 active torsions:
REMARK  status: ('A' for Active; 'I' for Inactive)
REMARK    1  A    between atoms: O1_2  and  C2_3 
REMARK    2  A    between atoms: C2_3  and  C3_4 
REMARK    3  A    between atoms: C3_4  and  C4_5 
REMARK    4  A    between atoms: C3_4  and  N8_23 
REMARK    5  A    between atoms: C4_5  and  N1_6 
REMARK    6  A    between atoms: C5_10  and  C6_11 
REMARK    7  A    between atoms: C8_24  and  C9_25 
REMARK    8  A    between atoms: C9_25  and  N9_26 
REMARK    9  A    between atoms: C9_25  and  N10_30 
REMARK   10  A    between atoms: C11_37  and  O2_38 
REMARK   11  A    between atoms: C12_42  and  N13_43 
ROOT
HETATM    1  N8  UNL     1      19.433  34.491  15.282  1.00  0.00    -0.285 N 
HETATM    2  C8  UNL     1      19.826  34.845  14.056  1.00  0.00     0.149 A 
HETATM    3  N11 UNL     1      19.816  33.728  13.259  1.00  0.00    -0.336 N 
ATOM      4  H11 UNL     1      20.071  33.704  12.272  1.00  0.00     0.167 HD
HETATM    5  C10 UNL     1      19.423  32.691  13.971  1.00  0.00     0.131 A 
HETATM    6  C11 UNL     1      19.245  31.348  13.638  1.00  0.00     0.186 A 
HETATM    7  N12 UNL     1      18.825  30.554  14.637  1.00  0.00    -0.168 N 
ATOM      8  H12 UNL     1      18.684  29.566  14.431  1.00  0.00     0.186 HD
HETATM    9  C12 UNL     1      18.578  30.973  15.890  1.00  0.00     0.679 A 
HETATM   10  N14 UNL     1      18.764  32.284  16.168  1.00  0.00    -0.174 N 
ATOM     11  H14 UNL     1      18.584  32.626  17.112  1.00  0.00     0.186 HD
HETATM   12  C13 UNL     1      19.182  33.142  15.223  1.00  0.00     0.160 A 
ENDROOT
BRANCH   1  13
HETATM   13  C3  UNL     1      19.297  35.332  16.420  1.00  0.00     0.042 C 
BRANCH  13  14
HETATM   14  C2  UNL     1      17.904  35.646  16.836  1.00  0.00     0.221 C 
BRANCH  14  15
HETATM   15  O1  UNL     1      17.624  35.701  18.163  1.00  0.00    -0.390 OA
HETATM   16  C1  UNL     1      16.821  36.806  18.403  1.00  0.00     0.201 C 
ENDBRANCH  14  15
ENDBRANCH  13  14
BRANCH  13  17
HETATM   17  C4  UNL     1      20.250  35.103  17.553  1.00  0.00     0.222 C 
BRANCH  17  18
HETATM   18  N1  UNL     1      21.123  36.284  17.627  1.00  0.00    -0.211 N 
HETATM   19  N2  UNL     1      21.481  36.907  18.737  1.00  0.00    -0.002 NA
HETATM   20  N3  UNL     1      22.278  37.933  18.390  1.00  0.00    -0.265 N 
HETATM   21  C5  UNL     1      22.413  37.948  17.078  1.00  0.00     0.170 A 
ATOM     22  H3  UNL     1      22.709  38.594  19.036  1.00  0.00     0.186 HD
HETATM   23  N7  UNL     1      21.698  36.926  16.596  1.00  0.00    -0.267 N 
ATOM     24  H7  UNL     1      21.605  36.676  15.611  1.00  0.00     0.190 HD
BRANCH  21  25
HETATM   25  C6  UNL     1      23.201  38.909  16.319  1.00  0.00     0.139 A 
HETATM   26  N4  UNL     1      24.052  39.834  16.735  1.00  0.00    -0.289 N 
HETATM   27  N5  UNL     1      24.649  40.586  15.911  1.00  0.00    -0.279 N 
ATOM     28  H4  UNL     1      24.228  39.942  17.733  1.00  0.00     0.188 HD
HETATM   29  C7  UNL     1      24.407  40.431  14.604  1.00  0.00     0.159 A 
ATOM     30  H5  UNL     1      25.303  41.297  16.238  1.00  0.00     0.189 HD
HETATM   31  N6  UNL     1      24.931  41.113  13.610  1.00  0.00    -0.379 N 
HETATM   32  S1  UNL     1      23.277  39.150  14.613  1.00  0.00    -0.030 SA
ATOM     33  H62 UNL     1      25.606  41.879  13.605  1.00  0.00     0.158 HD
ATOM     34  H61 UNL     1      24.747  40.995  12.613  1.00  0.00     0.158 HD
ENDBRANCH  21  25
ENDBRANCH  17  18
ENDBRANCH  13  17
ENDBRANCH   1  13
BRANCH   2  35
HETATM   35  C9  UNL     1      20.225  36.129  13.517  1.00  0.00     0.445 C 
BRANCH  35  36
HETATM   36  N9  UNL     1      21.700  36.233  13.659  1.00  0.00    -0.043 N 
ATOM     37  H93 UNL     1      22.018  36.103  14.619  1.00  0.00     0.277 HD
ATOM     38  H92 UNL     1      22.196  35.443  13.246  1.00  0.00     0.277 HD
ATOM     39  H91 UNL     1      21.983  37.130  13.264  1.00  0.00     0.277 HD
ENDBRANCH  35  36
BRANCH  35  40
HETATM   40  N10 UNL     1      20.029  36.214  12.058  1.00  0.00    -0.043 N 
ATOM     41 3H10 UNL     1      20.651  35.574  11.565  1.00  0.00     0.277 HD
ATOM     42 2H10 UNL     1      19.132  35.813  11.785  1.00  0.00     0.277 HD
ATOM     43 1H10 UNL     1      20.129  37.166  11.705  1.00  0.00     0.277 HD
ENDBRANCH  35  40
ENDBRANCH   2  35
BRANCH   6  44
HETATM   44  O2  UNL     1      19.488  30.868  12.357  1.00  0.00    -0.344 OA
ATOM     45  H2  UNL     1      20.322  30.995  11.921  1.00  0.00     0.219 HD
ENDBRANCH   6  44
BRANCH   9  46
HETATM   46  N13 UNL     1      18.168  30.148  16.824  1.00  0.00    -0.234 N 
ATOM     47 2H13 UNL     1      17.712  29.271  16.574  1.00  0.00     0.174 HD
ATOM     48 1H13 UNL     1      18.293  30.357  17.814  1.00  0.00     0.174 HD
ENDBRANCH   9  46
TORSDOF 11
ENDMDL
