MODEL 1
REMARK VINA RESULT: -8.169181832      0.000      0.000
REMARK  12 active torsions:
REMARK  status: ('A' for Active; 'I' for Inactive)
REMARK    1  A    between atoms: O1_2  and  N1_3 
REMARK    2  A    between atoms: C2_5  and  C3_6 
REMARK    3  A    between atoms: C3_6  and  N2_7 
REMARK    4  A    between atoms: N2_7  and  C4_9 
REMARK    5  A    between atoms: C5_12  and  S1_13 
REMARK    6  A    between atoms: S1_13  and  C6_14 
REMARK    7  A    between atoms: C8_20  and  N6_21 
REMARK    8  A    between atoms: C9_26  and  N8_27 
REMARK    9  A    between atoms: C11_34  and  N10_35 
REMARK   10  A    between atoms: N10_35  and  N11_37 
REMARK   11  A    between atoms: N12_40  and  N13_41 
REMARK   12  A    between atoms: N14_43  and  N15_45 
ROOT
HETATM    1  C4  UNL     1      19.343  32.366  15.644  1.00  0.00     0.718 A 
HETATM    2  N3  UNL     1      18.544  31.409  16.148  1.00  0.00    -0.167 N 
ATOM      3  H3  UNL     1      18.249  31.456  17.124  1.00  0.00     0.186 HD
HETATM    4  C5  UNL     1      18.132  30.391  15.370  1.00  0.00     0.182 A 
HETATM    5  N9  UNL     1      18.500  30.284  14.061  1.00  0.00    -0.166 N 
ATOM      6  H9  UNL     1      18.182  29.508  13.481  1.00  0.00     0.186 HD
HETATM    7  C11 UNL     1      19.296  31.242  13.570  1.00  0.00     0.736 A 
HETATM    8  N12 UNL     1      19.697  32.252  14.360  1.00  0.00     0.107 N 
ENDROOT
BRANCH   4   9
HETATM    9  S1  UNL     1      17.084  29.162  16.081  1.00  0.00    -0.009 SA
BRANCH   9  10
HETATM   10  C6  UNL     1      18.002  28.053  17.171  1.00  0.00     0.197 A 
HETATM   11  N4  UNL     1      19.170  28.324  17.776  1.00  0.00    -0.314 N 
HETATM   12  C7  UNL     1      19.561  27.265  18.513  1.00  0.00     0.161 A 
ATOM     13  H4  UNL     1      19.686  29.200  17.691  1.00  0.00     0.170 HD
HETATM   14  N5  UNL     1      20.616  27.000  19.296  1.00  0.00    -0.174 N 
HETATM   15  C10 UNL     1      18.558  26.302  18.335  1.00  0.00     0.167 A 
HETATM   16  C8  UNL     1      20.718  25.815  19.912  1.00  0.00     0.679 A 
ATOM     17  H5  UNL     1      21.344  27.703  19.424  1.00  0.00     0.186 HD
HETATM   18  N7  UNL     1      19.751  24.876  19.746  1.00  0.00    -0.174 N 
HETATM   19  C9  UNL     1      18.682  25.092  18.978  1.00  0.00     0.152 A 
ATOM     20  H7  UNL     1      19.845  23.979  20.223  1.00  0.00     0.186 HD
HETATM   21  O2  UNL     1      17.672  26.841  17.531  1.00  0.00    -0.280 OA
BRANCH  16  22
HETATM   22  N6  UNL     1      21.718  25.527  20.671  1.00  0.00    -0.234 N 
ATOM     23  H62 UNL     1      21.894  26.123  21.478  1.00  0.00     0.174 HD
ATOM     24  H61 UNL     1      22.325  24.729  20.482  1.00  0.00     0.174 HD
ENDBRANCH  16  22
BRANCH  19  25
HETATM   25  N8  UNL     1      17.791  24.187  18.843  1.00  0.00    -0.383 N 
ATOM     26  H82 UNL     1      17.923  23.260  19.249  1.00  0.00     0.157 HD
ATOM     27  H81 UNL     1      16.932  24.381  18.326  1.00  0.00     0.157 HD
ENDBRANCH  19  25
ENDBRANCH   9  10
ENDBRANCH   4   9
BRANCH   1  28
HETATM   28  N2  UNL     1      19.749  33.353  16.377  1.00  0.00    -0.219 N 
ATOM     29  H2  UNL     1      20.729  33.407  16.656  1.00  0.00     0.178 HD
BRANCH  28  30
HETATM   30  C3  UNL     1      18.827  34.375  16.801  1.00  0.00     0.184 C 
BRANCH  30  31
HETATM   31  C2  UNL     1      19.511  35.508  17.461  1.00  0.00     0.107 C 
HETATM   32  N1  UNL     1      20.205  36.324  16.732  1.00  0.00    -0.281 N 
ATOM     33  H1  UNL     1      20.681  37.107  17.179  1.00  0.00     0.193 HD
BRANCH  32  34
HETATM   34  O1  UNL     1      20.317  36.159  15.371  1.00  0.00    -0.286 OA
HETATM   35  C1  UNL     1      21.224  36.874  14.565  1.00  0.00     0.237 C 
ENDBRANCH  32  34
ENDBRANCH  30  31
ENDBRANCH  28  30
ENDBRANCH   1  28
BRANCH   7  36
HETATM   36  N10 UNL     1      19.670  31.179  12.325  1.00  0.00    -0.136 N 
ATOM     37  H10 UNL     1      20.358  31.850  11.986  1.00  0.00     0.205 HD
BRANCH  36  38
HETATM   38  N11 UNL     1      19.168  30.234  11.445  1.00  0.00    -0.331 N 
ATOM     39 2H11 UNL     1      19.357  29.253  11.645  1.00  0.00     0.177 HD
ATOM     40 1H11 UNL     1      18.625  30.489  10.620  1.00  0.00     0.177 HD
ENDBRANCH  36  38
ENDBRANCH   7  36
BRANCH   8  41
HETATM   41  N13 UNL     1      20.523  33.219  13.796  1.00  0.00    -0.192 N 
HETATM   42  N14 UNL     1      19.960  34.221  13.261  1.00  0.00    -0.233 N 
ATOM     43  H14 UNL     1      20.558  34.936  12.844  1.00  0.00     0.209 HD
ATOM     44  H13 UNL     1      21.539  33.125  13.811  1.00  0.00     0.211 HD
BRANCH  42  45
HETATM   45  N15 UNL     1      18.595  34.415  13.203  1.00  0.00    -0.330 N 
ATOM     46 2H15 UNL     1      18.018  33.761  13.733  1.00  0.00     0.178 HD
ATOM     47 1H15 UNL     1      18.137  35.156  12.674  1.00  0.00     0.178 HD
ENDBRANCH  42  45
ENDBRANCH   8  41
TORSDOF 12
ENDMDL
MODEL 2
REMARK VINA RESULT: -8.128495567      5.877      9.362
REMARK  12 active torsions:
REMARK  status: ('A' for Active; 'I' for Inactive)
REMARK    1  A    between atoms: O1_2  and  N1_3 
REMARK    2  A    between atoms: C2_5  and  C3_6 
REMARK    3  A    between atoms: C3_6  and  N2_7 
REMARK    4  A    between atoms: N2_7  and  C4_9 
REMARK    5  A    between atoms: C5_12  and  S1_13 
REMARK    6  A    between atoms: S1_13  and  C6_14 
REMARK    7  A    between atoms: C8_20  and  N6_21 
REMARK    8  A    between atoms: C9_26  and  N8_27 
REMARK    9  A    between atoms: C11_34  and  N10_35 
REMARK   10  A    between atoms: N10_35  and  N11_37 
REMARK   11  A    between atoms: N12_40  and  N13_41 
REMARK   12  A    between atoms: N14_43  and  N15_45 
ROOT
HETATM    1  C4  UNL     1      20.214  36.884  11.091  1.00  0.00     0.718 A 
HETATM    2  N3  UNL     1      20.963  37.622  11.930  1.00  0.00    -0.167 N 
ATOM      3  H3  UNL     1      20.759  37.618  12.929  1.00  0.00     0.186 HD
HETATM    4  C5  UNL     1      21.980  38.364  11.455  1.00  0.00     0.182 A 
HETATM    5  N9  UNL     1      22.291  38.403  10.127  1.00  0.00    -0.166 N 
ATOM      6  H9  UNL     1      23.064  38.970   9.778  1.00  0.00     0.186 HD
HETATM    7  C11 UNL     1      21.538  37.665   9.301  1.00  0.00     0.736 A 
HETATM    8  N12 UNL     1      20.527  36.930   9.792  1.00  0.00     0.107 N 
ENDROOT
BRANCH   4   9
HETATM    9  S1  UNL     1      22.931  39.313  12.598  1.00  0.00    -0.009 SA
BRANCH   9  10
HETATM   10  C6  UNL     1      22.673  38.762  14.298  1.00  0.00     0.197 A 
HETATM   11  N4  UNL     1      23.438  39.074  15.358  1.00  0.00    -0.314 N 
HETATM   12  C7  UNL     1      22.946  38.486  16.467  1.00  0.00     0.161 A 
ATOM     13  H4  UNL     1      24.267  39.667  15.328  1.00  0.00     0.170 HD
HETATM   14  N5  UNL     1      23.306  38.461  17.758  1.00  0.00    -0.174 N 
HETATM   15  C10 UNL     1      21.814  37.780  16.039  1.00  0.00     0.167 A 
HETATM   16  C8  UNL     1      22.587  37.761  18.645  1.00  0.00     0.679 A 
ATOM     17  H5  UNL     1      24.130  38.977  18.066  1.00  0.00     0.186 HD
HETATM   18  N7  UNL     1      21.488  37.074  18.239  1.00  0.00    -0.174 N 
HETATM   19  C9  UNL     1      21.090  37.068  16.966  1.00  0.00     0.152 A 
ATOM     20  H7  UNL     1      20.952  36.546  18.928  1.00  0.00     0.186 HD
HETATM   21  O2  UNL     1      21.718  37.991  14.747  1.00  0.00    -0.280 OA
BRANCH  16  22
HETATM   22  N6  UNL     1      22.904  37.715  19.892  1.00  0.00    -0.234 N 
ATOM     23  H62 UNL     1      23.258  36.834  20.264  1.00  0.00     0.174 HD
ATOM     24  H61 UNL     1      22.808  38.527  20.502  1.00  0.00     0.174 HD
ENDBRANCH  16  22
BRANCH  19  25
HETATM   25  N8  UNL     1      20.051  36.410  16.618  1.00  0.00    -0.383 N 
ATOM     26  H82 UNL     1      19.884  35.471  16.979  1.00  0.00     0.157 HD
ATOM     27  H81 UNL     1      19.374  36.819  15.973  1.00  0.00     0.157 HD
ENDBRANCH  19  25
ENDBRANCH   9  10
ENDBRANCH   4   9
BRANCH   1  28
HETATM   28  N2  UNL     1      19.231  36.164  11.529  1.00  0.00    -0.219 N 
ATOM     29  H2  UNL     1      18.374  36.089  10.981  1.00  0.00     0.178 HD
BRANCH  28  30
HETATM   30  C3  UNL     1      19.340  35.468  12.786  1.00  0.00     0.184 C 
BRANCH  30  31
HETATM   31  C2  UNL     1      19.290  34.000  12.620  1.00  0.00     0.107 C 
HETATM   32  N1  UNL     1      19.356  33.253  13.676  1.00  0.00    -0.281 N 
ATOM     33  H1  UNL     1      19.322  32.239  13.570  1.00  0.00     0.193 HD
BRANCH  32  34
HETATM   34  O1  UNL     1      19.469  33.792  14.936  1.00  0.00    -0.286 OA
HETATM   35  C1  UNL     1      19.534  33.027  16.116  1.00  0.00     0.237 C 
ENDBRANCH  32  34
ENDBRANCH  30  31
ENDBRANCH  28  30
ENDBRANCH   1  28
BRANCH   7  36
HETATM   36  N10 UNL     1      21.801  37.673   8.027  1.00  0.00    -0.136 N 
ATOM     37  H10 UNL     1      21.115  38.072   7.388  1.00  0.00     0.205 HD
BRANCH  36  38
HETATM   38  N11 UNL     1      22.978  37.160   7.508  1.00  0.00    -0.331 N 
ATOM     39 2H11 UNL     1      22.913  36.335   6.912  1.00  0.00     0.177 HD
ATOM     40 1H11 UNL     1      23.890  37.575   7.702  1.00  0.00     0.177 HD
ENDBRANCH  36  38
ENDBRANCH   7  36
BRANCH   8  41
HETATM   41  N13 UNL     1      19.779  36.182   8.888  1.00  0.00    -0.192 N 
HETATM   42  N14 UNL     1      18.752  36.734   8.390  1.00  0.00    -0.233 N 
ATOM     43  H14 UNL     1      18.197  36.194   7.725  1.00  0.00     0.209 HD
ATOM     44  H13 UNL     1      20.046  35.230   8.635  1.00  0.00     0.211 HD
BRANCH  42  45
HETATM   45  N15 UNL     1      18.330  38.015   8.683  1.00  0.00    -0.330 N 
ATOM     46 2H15 UNL     1      17.741  38.472   7.988  1.00  0.00     0.178 HD
ATOM     47 1H15 UNL     1      18.568  38.521   9.536  1.00  0.00     0.178 HD
ENDBRANCH  42  45
ENDBRANCH   8  41
TORSDOF 12
ENDMDL
MODEL 3
REMARK VINA RESULT: -8.034986051      4.204      8.320
REMARK  12 active torsions:
REMARK  status: ('A' for Active; 'I' for Inactive)
REMARK    1  A    between atoms: O1_2  and  N1_3 
REMARK    2  A    between atoms: C2_5  and  C3_6 
REMARK    3  A    between atoms: C3_6  and  N2_7 
REMARK    4  A    between atoms: N2_7  and  C4_9 
REMARK    5  A    between atoms: C5_12  and  S1_13 
REMARK    6  A    between atoms: S1_13  and  C6_14 
REMARK    7  A    between atoms: C8_20  and  N6_21 
REMARK    8  A    between atoms: C9_26  and  N8_27 
REMARK    9  A    between atoms: C11_34  and  N10_35 
REMARK   10  A    between atoms: N10_35  and  N11_37 
REMARK   11  A    between atoms: N12_40  and  N13_41 
REMARK   12  A    between atoms: N14_43  and  N15_45 
ROOT
HETATM    1  C4  UNL     1      19.503  33.748  15.366  1.00  0.00     0.718 A 
HETATM    2  N3  UNL     1      19.168  34.065  16.629  1.00  0.00    -0.167 N 
ATOM      3  H3  UNL     1      18.679  33.384  17.211  1.00  0.00     0.186 HD
HETATM    4  C5  UNL     1      19.474  35.278  17.128  1.00  0.00     0.182 A 
HETATM    5  N9  UNL     1      20.125  36.221  16.389  1.00  0.00    -0.166 N 
ATOM      6  H9  UNL     1      20.352  37.137  16.777  1.00  0.00     0.186 HD
HETATM    7  C11 UNL     1      20.454  35.895  15.133  1.00  0.00     0.736 A 
HETATM    8  N12 UNL     1      20.141  34.680  14.651  1.00  0.00     0.107 N 
ENDROOT
BRANCH   4   9
HETATM    9  S1  UNL     1      19.011  35.642  18.791  1.00  0.00    -0.009 SA
BRANCH   9  10
HETATM   10  C6  UNL     1      17.266  36.089  18.914  1.00  0.00     0.197 A 
HETATM   11  N4  UNL     1      16.762  37.142  19.579  1.00  0.00    -0.314 N 
HETATM   12  C7  UNL     1      15.421  37.163  19.455  1.00  0.00     0.161 A 
ATOM     13  H4  UNL     1      17.313  37.824  20.101  1.00  0.00     0.170 HD
HETATM   14  N5  UNL     1      14.445  37.967  19.902  1.00  0.00    -0.174 N 
HETATM   15  C10 UNL     1      15.106  36.051  18.663  1.00  0.00     0.167 A 
HETATM   16  C8  UNL     1      13.167  37.712  19.595  1.00  0.00     0.679 A 
ATOM     17  H5  UNL     1      14.678  38.777  20.477  1.00  0.00     0.186 HD
HETATM   18  N7  UNL     1      12.853  36.637  18.828  1.00  0.00    -0.174 N 
HETATM   19  C9  UNL     1      13.787  35.807  18.359  1.00  0.00     0.152 A 
ATOM     20  H7  UNL     1      11.874  36.457  18.603  1.00  0.00     0.186 HD
HETATM   21  O2  UNL     1      16.247  35.466  18.383  1.00  0.00    -0.280 OA
BRANCH  16  22
HETATM   22  N6  UNL     1      12.206  38.463  20.007  1.00  0.00    -0.234 N 
ATOM     23  H62 UNL     1      11.691  38.170  20.837  1.00  0.00     0.174 HD
ATOM     24  H61 UNL     1      11.955  39.328  19.528  1.00  0.00     0.174 HD
ENDBRANCH  16  22
BRANCH  19  25
HETATM   25  N8  UNL     1      13.457  34.804  17.640  1.00  0.00    -0.383 N 
ATOM     26  H82 UNL     1      12.510  34.716  17.271  1.00  0.00     0.157 HD
ATOM     27  H81 UNL     1      14.140  34.077  17.424  1.00  0.00     0.157 HD
ENDBRANCH  19  25
ENDBRANCH   9  10
ENDBRANCH   4   9
BRANCH   1  28
HETATM   28  N2  UNL     1      19.217  32.587  14.870  1.00  0.00    -0.219 N 
ATOM     29  H2  UNL     1      18.851  32.518  13.919  1.00  0.00     0.178 HD
BRANCH  28  30
HETATM   30  C3  UNL     1      19.411  31.391  15.650  1.00  0.00     0.184 C 
BRANCH  30  31
HETATM   31  C2  UNL     1      18.289  30.440  15.504  1.00  0.00     0.107 C 
HETATM   32  N1  UNL     1      18.262  29.664  14.466  1.00  0.00    -0.281 N 
ATOM     33  H1  UNL     1      17.492  29.005  14.358  1.00  0.00     0.193 HD
BRANCH  32  34
HETATM   34  O1  UNL     1      19.247  29.709  13.507  1.00  0.00    -0.286 OA
HETATM   35  C1  UNL     1      19.012  30.017  12.154  1.00  0.00     0.237 C 
ENDBRANCH  32  34
ENDBRANCH  30  31
ENDBRANCH  28  30
ENDBRANCH   1  28
BRANCH   7  36
HETATM   36  N10 UNL     1      21.076  36.766  14.394  1.00  0.00    -0.136 N 
ATOM     37  H10 UNL     1      20.579  37.187  13.609  1.00  0.00     0.205 HD
BRANCH  36  38
HETATM   38  N11 UNL     1      22.387  37.142  14.632  1.00  0.00    -0.331 N 
ATOM     39 2H11 UNL     1      23.122  36.651  14.124  1.00  0.00     0.177 HD
ATOM     40 1H11 UNL     1      22.634  37.882  15.291  1.00  0.00     0.177 HD
ENDBRANCH  36  38
ENDBRANCH   7  36
BRANCH   8  41
HETATM   41  N13 UNL     1      20.508  34.396  13.340  1.00  0.00    -0.192 N 
HETATM   42  N14 UNL     1      19.691  34.722  12.426  1.00  0.00    -0.233 N 
ATOM     43  H14 UNL     1      19.952  34.517  11.461  1.00  0.00     0.209 HD
ATOM     44  H13 UNL     1      21.396  33.944  13.122  1.00  0.00     0.211 HD
BRANCH  42  45
HETATM   45  N15 UNL     1      18.474  35.334  12.645  1.00  0.00    -0.330 N 
ATOM     46 2H15 UNL     1      18.468  36.120  13.295  1.00  0.00     0.178 HD
ATOM     47 1H15 UNL     1      17.597  35.054  12.205  1.00  0.00     0.178 HD
ENDBRANCH  42  45
ENDBRANCH   8  41
TORSDOF 12
ENDMDL
MODEL 4
REMARK VINA RESULT: -7.879118570      2.472      8.490
REMARK  12 active torsions:
REMARK  status: ('A' for Active; 'I' for Inactive)
REMARK    1  A    between atoms: O1_2  and  N1_3 
REMARK    2  A    between atoms: C2_5  and  C3_6 
REMARK    3  A    between atoms: C3_6  and  N2_7 
REMARK    4  A    between atoms: N2_7  and  C4_9 
REMARK    5  A    between atoms: C5_12  and  S1_13 
REMARK    6  A    between atoms: S1_13  and  C6_14 
REMARK    7  A    between atoms: C8_20  and  N6_21 
REMARK    8  A    between atoms: C9_26  and  N8_27 
REMARK    9  A    between atoms: C11_34  and  N10_35 
REMARK   10  A    between atoms: N10_35  and  N11_37 
REMARK   11  A    between atoms: N12_40  and  N13_41 
REMARK   12  A    between atoms: N14_43  and  N15_45 
ROOT
HETATM    1  C4  UNL     1      19.255  25.562  17.002  1.00  0.00     0.718 A 
HETATM    2  N3  UNL     1      18.605  26.735  16.919  1.00  0.00    -0.167 N 
ATOM      3  H3  UNL     1      18.123  26.990  16.056  1.00  0.00     0.186 HD
HETATM    4  C5  UNL     1      18.586  27.576  17.971  1.00  0.00     0.182 A 
HETATM    5  N9  UNL     1      19.215  27.281  19.145  1.00  0.00    -0.166 N 
ATOM      6  H9  UNL     1      19.195  27.925  19.935  1.00  0.00     0.186 HD
HETATM    7  C11 UNL     1      19.860  26.110  19.215  1.00  0.00     0.736 A 
HETATM    8  N12 UNL     1      19.868  25.283  18.156  1.00  0.00     0.107 N 
ENDROOT
BRANCH   4   9
HETATM    9  S1  UNL     1      17.717  29.103  17.810  1.00  0.00    -0.009 SA
BRANCH   9  10
HETATM   10  C6  UNL     1      18.221  30.003  16.328  1.00  0.00     0.197 A 
HETATM   11  N4  UNL     1      18.376  31.333  16.222  1.00  0.00    -0.314 N 
HETATM   12  C7  UNL     1      18.760  31.652  14.970  1.00  0.00     0.161 A 
ATOM     13  H4  UNL     1      18.226  32.002  16.977  1.00  0.00     0.170 HD
HETATM   14  N5  UNL     1      19.047  32.797  14.335  1.00  0.00    -0.174 N 
HETATM   15  C10 UNL     1      18.838  30.431  14.286  1.00  0.00     0.167 A 
HETATM   16  C8  UNL     1      19.410  32.781  13.046  1.00  0.00     0.679 A 
ATOM     17  H5  UNL     1      18.989  33.684  14.836  1.00  0.00     0.186 HD
HETATM   18  N7  UNL     1      19.489  31.603  12.376  1.00  0.00    -0.174 N 
HETATM   19  C9  UNL     1      19.214  30.437  12.963  1.00  0.00     0.152 A 
ATOM     20  H7  UNL     1      19.767  31.609  11.394  1.00  0.00     0.186 HD
HETATM   21  O2  UNL     1      18.506  29.504  15.154  1.00  0.00    -0.280 OA
BRANCH  16  22
HETATM   22  N6  UNL     1      19.692  33.862  12.406  1.00  0.00    -0.234 N 
ATOM     23  H62 UNL     1      20.549  34.355  12.653  1.00  0.00     0.174 HD
ATOM     24  H61 UNL     1      19.086  34.226  11.671  1.00  0.00     0.174 HD
ENDBRANCH  16  22
BRANCH  19  25
HETATM   25  N8  UNL     1      19.298  29.346  12.303  1.00  0.00    -0.383 N 
ATOM     26  H82 UNL     1      20.174  29.072  11.858  1.00  0.00     0.157 HD
ATOM     27  H81 UNL     1      18.487  28.733  12.214  1.00  0.00     0.157 HD
ENDBRANCH  19  25
ENDBRANCH   9  10
ENDBRANCH   4   9
BRANCH   1  28
HETATM   28  N2  UNL     1      19.284  24.741  16.000  1.00  0.00    -0.219 N 
ATOM     29  H2  UNL     1      18.729  23.885  16.031  1.00  0.00     0.178 HD
BRANCH  28  30
HETATM   30  C3  UNL     1      20.093  25.028  14.844  1.00  0.00     0.184 C 
BRANCH  30  31
HETATM   31  C2  UNL     1      21.527  24.759  15.083  1.00  0.00     0.107 C 
HETATM   32  N1  UNL     1      22.376  25.724  14.917  1.00  0.00    -0.281 N 
ATOM     33  H1  UNL     1      23.368  25.546  15.079  1.00  0.00     0.193 HD
BRANCH  32  34
HETATM   34  O1  UNL     1      21.974  26.980  14.527  1.00  0.00    -0.286 OA
HETATM   35  C1  UNL     1      22.349  27.583  13.311  1.00  0.00     0.237 C 
ENDBRANCH  32  34
ENDBRANCH  30  31
ENDBRANCH  28  30
ENDBRANCH   1  28
BRANCH   7  36
HETATM   36  N10 UNL     1      20.473  25.789  20.317  1.00  0.00    -0.136 N 
ATOM     37  H10 UNL     1      19.955  25.291  21.040  1.00  0.00     0.205 HD
BRANCH  36  38
HETATM   38  N11 UNL     1      21.804  26.099  20.544  1.00  0.00    -0.331 N 
ATOM     39 2H11 UNL     1      22.016  27.010  20.952  1.00  0.00     0.177 HD
ATOM     40 1H11 UNL     1      22.563  25.455  20.319  1.00  0.00     0.177 HD
ENDBRANCH  36  38
ENDBRANCH   7  36
BRANCH   8  41
HETATM   41  N13 UNL     1      20.554  24.080  18.287  1.00  0.00    -0.192 N 
HETATM   42  N14 UNL     1      19.950  23.129  18.870  1.00  0.00    -0.233 N 
ATOM     43  H14 UNL     1      20.446  22.243  18.971  1.00  0.00     0.209 HD
ATOM     44  H13 UNL     1      21.503  23.966  17.929  1.00  0.00     0.211 HD
BRANCH  42  45
HETATM   45  N15 UNL     1      18.670  23.209  19.379  1.00  0.00    -0.330 N 
ATOM     46 2H15 UNL     1      18.104  22.362  19.327  1.00  0.00     0.178 HD
ATOM     47 1H15 UNL     1      18.263  24.046  19.794  1.00  0.00     0.178 HD
ENDBRANCH  42  45
ENDBRANCH   8  41
TORSDOF 12
ENDMDL
MODEL 5
REMARK VINA RESULT: -7.838506396      4.332      8.427
REMARK  12 active torsions:
REMARK  status: ('A' for Active; 'I' for Inactive)
REMARK    1  A    between atoms: O1_2  and  N1_3 
REMARK    2  A    between atoms: C2_5  and  C3_6 
REMARK    3  A    between atoms: C3_6  and  N2_7 
REMARK    4  A    between atoms: N2_7  and  C4_9 
REMARK    5  A    between atoms: C5_12  and  S1_13 
REMARK    6  A    between atoms: S1_13  and  C6_14 
REMARK    7  A    between atoms: C8_20  and  N6_21 
REMARK    8  A    between atoms: C9_26  and  N8_27 
REMARK    9  A    between atoms: C11_34  and  N10_35 
REMARK   10  A    between atoms: N10_35  and  N11_37 
REMARK   11  A    between atoms: N12_40  and  N13_41 
REMARK   12  A    between atoms: N14_43  and  N15_45 
ROOT
HETATM    1  C4  UNL     1      19.397  33.937  15.396  1.00  0.00     0.718 A 
HETATM    2  N3  UNL     1      19.037  34.351  16.624  1.00  0.00    -0.167 N 
ATOM      3  H3  UNL     1      18.499  33.732  17.231  1.00  0.00     0.186 HD
HETATM    4  C5  UNL     1      19.384  35.578  17.054  1.00  0.00     0.182 A 
HETATM    5  N9  UNL     1      20.102  36.441  16.279  1.00  0.00    -0.166 N 
ATOM      6  H9  UNL     1      20.359  37.369  16.616  1.00  0.00     0.186 HD
HETATM    7  C11 UNL     1      20.455  36.019  15.059  1.00  0.00     0.736 A 
HETATM    8  N12 UNL     1      20.100  34.791  14.645  1.00  0.00     0.107 N 
ENDROOT
BRANCH   4   9
HETATM    9  S1  UNL     1      18.887  36.071  18.674  1.00  0.00    -0.009 SA
BRANCH   9  10
HETATM   10  C6  UNL     1      17.093  36.231  18.801  1.00  0.00     0.197 A 
HETATM   11  N4  UNL     1      16.187  35.318  18.415  1.00  0.00    -0.314 N 
HETATM   12  C7  UNL     1      14.943  35.775  18.660  1.00  0.00     0.161 A 
ATOM     13  H4  UNL     1      16.406  34.413  17.999  1.00  0.00     0.170 HD
HETATM   14  N5  UNL     1      13.707  35.289  18.477  1.00  0.00    -0.174 N 
HETATM   15  C10 UNL     1      15.121  37.043  19.229  1.00  0.00     0.167 A 
HETATM   16  C8  UNL     1      12.638  36.011  18.837  1.00  0.00     0.679 A 
ATOM     17  H5  UNL     1      13.580  34.365  18.063  1.00  0.00     0.186 HD
HETATM   18  N7  UNL     1      12.802  37.240  19.390  1.00  0.00    -0.174 N 
HETATM   19  C9  UNL     1      14.010  37.768  19.592  1.00  0.00     0.152 A 
ATOM     20  H7  UNL     1      11.976  37.777  19.658  1.00  0.00     0.186 HD
HETATM   21  O2  UNL     1      16.418  37.242  19.280  1.00  0.00    -0.280 OA
BRANCH  16  22
HETATM   22  N6  UNL     1      11.437  35.575  18.675  1.00  0.00    -0.234 N 
ATOM     23  H62 UNL     1      10.870  35.995  17.939  1.00  0.00     0.174 HD
ATOM     24  H61 UNL     1      11.051  34.833  19.258  1.00  0.00     0.174 HD
ENDBRANCH  16  22
BRANCH  19  25
HETATM   25  N8  UNL     1      14.129  38.928  20.115  1.00  0.00    -0.383 N 
ATOM     26  H82 UNL     1      13.638  39.164  20.977  1.00  0.00     0.157 HD
ATOM     27  H81 UNL     1      14.719  39.634  19.673  1.00  0.00     0.157 HD
ENDBRANCH  19  25
ENDBRANCH   9  10
ENDBRANCH   4   9
BRANCH   1  28
HETATM   28  N2  UNL     1      19.072  32.760  14.965  1.00  0.00    -0.219 N 
ATOM     29  H2  UNL     1      18.650  32.657  14.041  1.00  0.00     0.178 HD
BRANCH  28  30
HETATM   30  C3  UNL     1      19.301  31.595  15.780  1.00  0.00     0.184 C 
BRANCH  30  31
HETATM   31  C2  UNL     1      18.225  30.592  15.640  1.00  0.00     0.107 C 
HETATM   32  N1  UNL     1      18.241  29.801  14.613  1.00  0.00    -0.281 N 
ATOM     33  H1  UNL     1      17.502  29.107  14.508  1.00  0.00     0.193 HD
BRANCH  32  34
HETATM   34  O1  UNL     1      19.232  29.875  13.662  1.00  0.00    -0.286 OA
HETATM   35  C1  UNL     1      18.990  30.079  12.290  1.00  0.00     0.237 C 
ENDBRANCH  32  34
ENDBRANCH  30  31
ENDBRANCH  28  30
ENDBRANCH   1  28
BRANCH   7  36
HETATM   36  N10 UNL     1      21.140  36.811  14.288  1.00  0.00    -0.136 N 
ATOM     37  H10 UNL     1      20.708  37.156  13.431  1.00  0.00     0.205 HD
BRANCH  36  38
HETATM   38  N11 UNL     1      22.435  37.203  14.587  1.00  0.00    -0.331 N 
ATOM     39 2H11 UNL     1      22.711  37.217  15.568  1.00  0.00     0.177 HD
ATOM     40 1H11 UNL     1      23.105  37.473  13.867  1.00  0.00     0.177 HD
ENDBRANCH  36  38
ENDBRANCH   7  36
BRANCH   8  41
HETATM   41  N13 UNL     1      20.494  34.405  13.368  1.00  0.00    -0.192 N 
HETATM   42  N14 UNL     1      19.710  34.684  12.411  1.00  0.00    -0.233 N 
ATOM     43  H14 UNL     1      19.991  34.405  11.470  1.00  0.00     0.209 HD
ATOM     44  H13 UNL     1      21.376  33.919  13.208  1.00  0.00     0.211 HD
BRANCH  42  45
HETATM   45  N15 UNL     1      18.503  35.338  12.552  1.00  0.00    -0.330 N 
ATOM     46 2H15 UNL     1      18.530  36.358  12.520  1.00  0.00     0.178 HD
ATOM     47 1H15 UNL     1      17.605  34.874  12.682  1.00  0.00     0.178 HD
ENDBRANCH  42  45
ENDBRANCH   8  41
TORSDOF 12
ENDMDL
