MODEL 1
REMARK VINA RESULT: -4.566231766      0.000      0.000
REMARK  3 active torsions:
REMARK  status: ('A' for Active; 'I' for Inactive)
REMARK    1  A    between atoms: C2_2  and  C3_3 
REMARK    2  A    between atoms: C3_3  and  N1_4 
REMARK    3  A    between atoms: C3_3  and  C5_8 
ROOT
HETATM    1  C3  UNL     1      -5.496   1.962  16.034  1.00  0.00     0.295 C 
ENDROOT
BRANCH   1   2
HETATM    2  C2  UNL     1      -6.788   1.504  16.558  1.00  0.00     0.005 C 
HETATM    3  C1  UNL     1      -6.896   1.094  17.827  1.00  0.00     0.009 C 
ENDBRANCH   1   2
BRANCH   1   4
HETATM    4  N1  UNL     1      -5.625   2.538  14.696  1.00  0.00    -0.063 N 
HETATM    5  C4  UNL     1      -4.913   3.755  14.499  1.00  0.00     0.268 C 
ATOM      6  H12 UNL     1      -5.358   1.853  13.990  1.00  0.00     0.278 HD
ATOM      7  H11 UNL     1      -6.610   2.662  14.458  1.00  0.00     0.278 HD
ENDBRANCH   1   4
BRANCH   1   8
HETATM    8  C5  UNL     1      -4.447   0.929  15.953  1.00  0.00     0.265 C 
HETATM    9  N2  UNL     1      -4.696  -0.348  15.378  1.00  0.00    -0.060 NA
HETATM   10  O1  UNL     1      -3.289   1.223  16.415  1.00  0.00    -0.274 OA
ENDBRANCH   1   8
TORSDOF 3
ENDMDL
MODEL 2
REMARK VINA RESULT: -4.452277768      1.730      2.334
REMARK  3 active torsions:
REMARK  status: ('A' for Active; 'I' for Inactive)
REMARK    1  A    between atoms: C2_2  and  C3_3 
REMARK    2  A    between atoms: C3_3  and  N1_4 
REMARK    3  A    between atoms: C3_3  and  C5_8 
ROOT
HETATM    1  C3  UNL     1      -4.584   2.101  14.936  1.00  0.00     0.295 C 
ENDROOT
BRANCH   1   2
HETATM    2  C2  UNL     1      -5.761   2.951  14.730  1.00  0.00     0.005 C 
HETATM    3  C1  UNL     1      -5.696   4.267  14.964  1.00  0.00     0.009 C 
ENDBRANCH   1   2
BRANCH   1   4
HETATM    4  N1  UNL     1      -4.197   1.402  13.712  1.00  0.00    -0.063 N 
HETATM    5  C4  UNL     1      -4.253   2.193  12.529  1.00  0.00     0.268 C 
ATOM      6  H12 UNL     1      -3.269   0.990  13.818  1.00  0.00     0.278 HD
ATOM      7  H11 UNL     1      -4.754   0.555  13.597  1.00  0.00     0.278 HD
ENDBRANCH   1   4
BRANCH   1   8
HETATM    8  C5  UNL     1      -4.723   1.074  15.986  1.00  0.00     0.265 C 
HETATM    9  N2  UNL     1      -5.997   0.606  16.412  1.00  0.00    -0.060 NA
HETATM   10  O1  UNL     1      -3.649   0.608  16.505  1.00  0.00    -0.274 OA
ENDBRANCH   1   8
TORSDOF 3
ENDMDL
MODEL 3
REMARK VINA RESULT: -4.386942172      2.281      3.201
REMARK  3 active torsions:
REMARK  status: ('A' for Active; 'I' for Inactive)
REMARK    1  A    between atoms: C2_2  and  C3_3 
REMARK    2  A    between atoms: C3_3  and  N1_4 
REMARK    3  A    between atoms: C3_3  and  C5_8 
ROOT
HETATM    1  C3  UNL     1      -4.494   1.733  14.222  1.00  0.00     0.295 C 
ENDROOT
BRANCH   1   2
HETATM    2  C2  UNL     1      -4.169   1.347  12.845  1.00  0.00     0.005 C 
HETATM    3  C1  UNL     1      -4.859   1.856  11.818  1.00  0.00     0.009 C 
ENDBRANCH   1   2
BRANCH   1   4
HETATM    4  N1  UNL     1      -3.676   2.855  14.681  1.00  0.00    -0.063 N 
HETATM    5  C4  UNL     1      -4.310   4.127  14.605  1.00  0.00     0.268 C 
ATOM      6  H12 UNL     1      -3.340   2.683  15.628  1.00  0.00     0.278 HD
ATOM      7  H11 UNL     1      -2.787   2.873  14.180  1.00  0.00     0.278 HD
ENDBRANCH   1   4
BRANCH   1   8
HETATM    8  C5  UNL     1      -4.351   0.663  15.227  1.00  0.00     0.265 C 
HETATM    9  N2  UNL     1      -3.796   0.912  16.513  1.00  0.00    -0.060 NA
HETATM   10  O1  UNL     1      -4.752  -0.510  14.904  1.00  0.00    -0.274 OA
ENDBRANCH   1   8
TORSDOF 3
ENDMDL
MODEL 4
REMARK VINA RESULT: -4.282728934      1.915      2.931
REMARK  3 active torsions:
REMARK  status: ('A' for Active; 'I' for Inactive)
REMARK    1  A    between atoms: C2_2  and  C3_3 
REMARK    2  A    between atoms: C3_3  and  N1_4 
REMARK    3  A    between atoms: C3_3  and  C5_8 
ROOT
HETATM    1  C3  UNL     1      -4.483   1.797  14.309  1.00  0.00     0.295 C 
ENDROOT
BRANCH   1   2
HETATM    2  C2  UNL     1      -4.226   1.259  12.968  1.00  0.00     0.005 C 
HETATM    3  C1  UNL     1      -4.764   1.841  11.891  1.00  0.00     0.009 C 
ENDBRANCH   1   2
BRANCH   1   4
HETATM    4  N1  UNL     1      -3.696   3.002  14.570  1.00  0.00    -0.063 N 
HETATM    5  C4  UNL     1      -4.440   4.216  14.556  1.00  0.00     0.268 C 
ATOM      6  H12 UNL     1      -3.189   2.909  15.451  1.00  0.00     0.278 HD
ATOM      7  H11 UNL     1      -2.912   3.061  13.921  1.00  0.00     0.278 HD
ENDBRANCH   1   4
BRANCH   1   8
HETATM    8  C5  UNL     1      -4.219   0.867  15.423  1.00  0.00     0.265 C 
HETATM    9  N2  UNL     1      -4.648  -0.489  15.385  1.00  0.00    -0.060 NA
HETATM   10  O1  UNL     1      -3.578   1.322  16.434  1.00  0.00    -0.274 OA
ENDBRANCH   1   8
TORSDOF 3
ENDMDL
MODEL 5
REMARK VINA RESULT: -4.235336901      0.884      2.563
REMARK  3 active torsions:
REMARK  status: ('A' for Active; 'I' for Inactive)
REMARK    1  A    between atoms: C2_2  and  C3_3 
REMARK    2  A    between atoms: C3_3  and  N1_4 
REMARK    3  A    between atoms: C3_3  and  C5_8 
ROOT
HETATM    1  C3  UNL     1      -5.420   1.817  15.372  1.00  0.00     0.295 C 
ENDROOT
BRANCH   1   2
HETATM    2  C2  UNL     1      -4.852   2.996  14.707  1.00  0.00     0.005 C 
HETATM    3  C1  UNL     1      -5.508   4.161  14.719  1.00  0.00     0.009 C 
ENDBRANCH   1   2
BRANCH   1   4
HETATM    4  N1  UNL     1      -6.188   2.182  16.562  1.00  0.00    -0.063 N 
HETATM    5  C4  UNL     1      -7.124   1.199  16.992  1.00  0.00     0.268 C 
ATOM      6  H12 UNL     1      -5.559   2.430  17.325  1.00  0.00     0.278 HD
ATOM      7  H11 UNL     1      -6.656   3.077  16.420  1.00  0.00     0.278 HD
ENDBRANCH   1   4
BRANCH   1   8
HETATM    8  C5  UNL     1      -4.440   0.798  15.794  1.00  0.00     0.265 C 
HETATM    9  N2  UNL     1      -4.572  -0.568  15.419  1.00  0.00    -0.060 NA
HETATM   10  O1  UNL     1      -3.453   1.187  16.511  1.00  0.00    -0.274 OA
ENDBRANCH   1   8
TORSDOF 3
ENDMDL
