MODEL 1
REMARK VINA RESULT: -4.847182420      0.000      0.000
REMARK  2 active torsions:
REMARK  status: ('A' for Active; 'I' for Inactive)
REMARK    1  A    between atoms: C1_2  and  N1_3 
REMARK       I    between atoms: N1_3  and  C2_5 
REMARK    2  A    between atoms: C2_5  and  C3_7 
ROOT
HETATM    1  N1  UNL     1      -4.395   1.409  14.254  1.00  0.00    -0.305 N 
ATOM      2  H1  UNL     1      -4.465   2.426  14.277  1.00  0.00     0.171 HD
HETATM    3  C2  UNL     1      -4.689   0.634  15.417  1.00  0.00     0.227 C 
HETATM    4  O2  UNL     1      -4.595  -0.621  15.360  1.00  0.00    -0.273 OA
ENDROOT
BRANCH   3   5
HETATM    5  C3  UNL     1      -5.104   1.254  16.693  1.00  0.00     0.078 A 
HETATM    6  C4  UNL     1      -6.633   1.438  16.835  1.00  0.00     0.015 A 
HETATM    7  C5  UNL     1      -5.902   0.483  17.681  1.00  0.00     0.015 A 
ENDBRANCH   3   5
BRANCH   1   8
HETATM    8  C1  UNL     1      -4.006   0.742  13.071  1.00  0.00     0.355 C 
HETATM    9  O1  UNL     1      -4.762   0.674  12.065  1.00  0.00    -0.283 OA
ENDBRANCH   1   8
TORSDOF 2
ENDMDL
MODEL 2
REMARK VINA RESULT: -4.718222633      1.876      1.999
REMARK  2 active torsions:
REMARK  status: ('A' for Active; 'I' for Inactive)
REMARK    1  A    between atoms: C1_2  and  N1_3 
REMARK       I    between atoms: N1_3  and  C2_5 
REMARK    2  A    between atoms: C2_5  and  C3_7 
ROOT
HETATM    1  N1  UNL     1      -4.978   2.575  15.167  1.00  0.00    -0.305 N 
ATOM      2  H1  UNL     1      -5.937   2.860  14.970  1.00  0.00     0.171 HD
HETATM    3  C2  UNL     1      -4.711   1.451  16.007  1.00  0.00     0.227 C 
HETATM    4  O2  UNL     1      -3.516   1.122  16.233  1.00  0.00    -0.273 OA
ENDROOT
BRANCH   3   5
HETATM    5  C3  UNL     1      -5.792   0.652  16.622  1.00  0.00     0.078 A 
HETATM    6  C4  UNL     1      -6.142   1.076  18.067  1.00  0.00     0.015 A 
HETATM    7  C5  UNL     1      -7.093   1.282  16.966  1.00  0.00     0.015 A 
ENDBRANCH   3   5
BRANCH   1   8
HETATM    8  C1  UNL     1      -3.890   3.287  14.616  1.00  0.00     0.355 C 
HETATM    9  O1  UNL     1      -3.360   2.951  13.522  1.00  0.00    -0.283 OA
ENDBRANCH   1   8
TORSDOF 2
ENDMDL
MODEL 3
REMARK VINA RESULT: -4.639213039      2.400      3.833
REMARK  2 active torsions:
REMARK  status: ('A' for Active; 'I' for Inactive)
REMARK    1  A    between atoms: C1_2  and  N1_3 
REMARK       I    between atoms: N1_3  and  C2_5 
REMARK    2  A    between atoms: C2_5  and  C3_7 
ROOT
HETATM    1  N1  UNL     1      -5.891   1.404  16.436  1.00  0.00    -0.305 N 
ATOM      2  H1  UNL     1      -6.767   1.727  16.026  1.00  0.00     0.171 HD
HETATM    3  C2  UNL     1      -4.645   1.667  15.790  1.00  0.00     0.227 C 
HETATM    4  O2  UNL     1      -3.578   1.256  16.321  1.00  0.00    -0.273 OA
ENDROOT
BRANCH   3   5
HETATM    5  C3  UNL     1      -4.559   2.410  14.515  1.00  0.00     0.078 A 
HETATM    6  C4  UNL     1      -5.140   3.842  14.582  1.00  0.00     0.015 A 
HETATM    7  C5  UNL     1      -3.699   3.617  14.402  1.00  0.00     0.015 A 
ENDBRANCH   3   5
BRANCH   1   8
HETATM    8  C1  UNL     1      -5.889   0.688  17.654  1.00  0.00     0.355 C 
HETATM    9  O1  UNL     1      -5.884  -0.573  17.685  1.00  0.00    -0.283 OA
ENDBRANCH   1   8
TORSDOF 2
ENDMDL
MODEL 4
REMARK VINA RESULT: -4.335704991      3.144      3.831
REMARK  2 active torsions:
REMARK  status: ('A' for Active; 'I' for Inactive)
REMARK    1  A    between atoms: C1_2  and  N1_3 
REMARK       I    between atoms: N1_3  and  C2_5 
REMARK    2  A    between atoms: C2_5  and  C3_7 
ROOT
HETATM    1  N1  UNL     1      -5.045   1.828  15.117  1.00  0.00    -0.305 N 
ATOM      2  H1  UNL     1      -5.986   1.765  14.728  1.00  0.00     0.171 HD
HETATM    3  C2  UNL     1      -4.239   2.984  14.886  1.00  0.00     0.227 C 
HETATM    4  O2  UNL     1      -3.080   3.034  15.379  1.00  0.00    -0.273 OA
ENDROOT
BRANCH   3   5
HETATM    5  C3  UNL     1      -4.716   4.131  14.086  1.00  0.00     0.078 A 
HETATM    6  C4  UNL     1      -5.588   5.131  14.879  1.00  0.00     0.015 A 
HETATM    7  C5  UNL     1      -4.253   5.509  14.393  1.00  0.00     0.015 A 
ENDBRANCH   3   5
BRANCH   1   8
HETATM    8  C1  UNL     1      -4.517   0.773  15.894  1.00  0.00     0.355 C 
HETATM    9  O1  UNL     1      -4.692  -0.436  15.581  1.00  0.00    -0.283 OA
ENDBRANCH   1   8
TORSDOF 2
ENDMDL
MODEL 5
REMARK VINA RESULT: -4.334217745      3.461      4.387
REMARK  2 active torsions:
REMARK  status: ('A' for Active; 'I' for Inactive)
REMARK    1  A    between atoms: C1_2  and  N1_3 
REMARK       I    between atoms: N1_3  and  C2_5 
REMARK    2  A    between atoms: C2_5  and  C3_7 
ROOT
HETATM    1  N1  UNL     1      -3.903   2.553  15.137  1.00  0.00    -0.305 N 
ATOM      2  H1  UNL     1      -2.892   2.681  15.091  1.00  0.00     0.171 HD
HETATM    3  C2  UNL     1      -4.780   3.457  14.463  1.00  0.00     0.227 C 
HETATM    4  O2  UNL     1      -6.026   3.275  14.536  1.00  0.00    -0.273 OA
ENDROOT
BRANCH   3   5
HETATM    5  C3  UNL     1      -4.279   4.604  13.677  1.00  0.00     0.078 A 
HETATM    6  C4  UNL     1      -4.328   5.953  14.433  1.00  0.00     0.015 A 
HETATM    7  C5  UNL     1      -3.045   5.320  14.091  1.00  0.00     0.015 A 
ENDBRANCH   3   5
BRANCH   1   8
HETATM    8  C1  UNL     1      -4.460   1.480  15.867  1.00  0.00     0.355 C 
HETATM    9  O1  UNL     1      -3.745   0.557  16.344  1.00  0.00    -0.283 OA
ENDBRANCH   1   8
TORSDOF 2
ENDMDL
