MODEL 1
REMARK VINA RESULT: -4.919840260      0.000      0.000
REMARK  2 active torsions:
REMARK  status: ('A' for Active; 'I' for Inactive)
REMARK    1  A    between atoms: C2_2  and  C3_3 
REMARK    2  A    between atoms: C2_2  and  N1_5 
REMARK       I    between atoms: N1_5  and  C4_7 
ROOT
HETATM    1  N1  UNL     1      -5.290   2.040  15.520  1.00  0.00    -0.335 N 
ATOM      2  H1  UNL     1      -6.288   2.240  15.592  1.00  0.00     0.164 HD
HETATM    3  C4  UNL     1      -4.831   0.886  16.256  1.00  0.00     0.329 C 
HETATM    4  N2  UNL     1      -5.788   0.101  17.040  1.00  0.00    -0.040 NA
HETATM    5  O2  UNL     1      -3.665   0.417  16.328  1.00  0.00    -0.251 OA
ENDROOT
BRANCH   1   6
HETATM    6  C2  UNL     1      -4.554   2.922  14.721  1.00  0.00     0.143 C 
HETATM    7  C1  UNL     1      -5.337   4.254  14.647  1.00  0.00     0.040 C 
BRANCH   6   8
HETATM    8  C3  UNL     1      -4.450   2.375  13.351  1.00  0.00     0.255 C 
HETATM    9  O1  UNL     1      -3.581   1.621  12.960  1.00  0.00    -0.305 OA
ENDBRANCH   6   8
ENDBRANCH   1   6
TORSDOF 2
ENDMDL
MODEL 2
REMARK VINA RESULT: -4.665223279      1.378      1.399
REMARK  2 active torsions:
REMARK  status: ('A' for Active; 'I' for Inactive)
REMARK    1  A    between atoms: C2_2  and  C3_3 
REMARK    2  A    between atoms: C2_2  and  N1_5 
REMARK       I    between atoms: N1_5  and  C4_7 
ROOT
HETATM    1  N1  UNL     1      -4.445   1.533  14.225  1.00  0.00    -0.335 N 
ATOM      2  H1  UNL     1      -4.987   1.006  13.540  1.00  0.00     0.164 HD
HETATM    3  C4  UNL     1      -4.171   0.846  15.465  1.00  0.00     0.329 C 
HETATM    4  N2  UNL     1      -4.674  -0.516  15.663  1.00  0.00    -0.040 NA
HETATM    5  O2  UNL     1      -3.522   1.258  16.461  1.00  0.00    -0.251 OA
ENDROOT
BRANCH   1   6
HETATM    6  C2  UNL     1      -4.069   2.822  13.834  1.00  0.00     0.143 C 
HETATM    7  C1  UNL     1      -5.046   3.819  14.500  1.00  0.00     0.040 C 
BRANCH   6   8
HETATM    8  C3  UNL     1      -4.209   2.953  12.367  1.00  0.00     0.255 C 
HETATM    9  O1  UNL     1      -5.167   2.584  11.718  1.00  0.00    -0.305 OA
ENDBRANCH   6   8
ENDBRANCH   1   6
TORSDOF 2
ENDMDL
MODEL 3
REMARK VINA RESULT: -4.510410807      1.233      1.233
REMARK  2 active torsions:
REMARK  status: ('A' for Active; 'I' for Inactive)
REMARK    1  A    between atoms: C2_2  and  C3_3 
REMARK    2  A    between atoms: C2_2  and  N1_5 
REMARK       I    between atoms: N1_5  and  C4_7 
ROOT
HETATM    1  N1  UNL     1      -4.632   1.969  14.657  1.00  0.00    -0.335 N 
ATOM      2  H1  UNL     1      -5.269   1.644  13.931  1.00  0.00     0.164 HD
HETATM    3  C4  UNL     1      -4.192   0.965  15.598  1.00  0.00     0.329 C 
HETATM    4  N2  UNL     1      -4.675  -0.411  15.463  1.00  0.00    -0.040 NA
HETATM    5  O2  UNL     1      -3.406   1.096  16.572  1.00  0.00    -0.251 OA
ENDROOT
BRANCH   1   6
HETATM    6  C2  UNL     1      -4.303   3.328  14.606  1.00  0.00     0.143 C 
HETATM    7  C1  UNL     1      -5.617   4.135  14.720  1.00  0.00     0.040 C 
BRANCH   6   8
HETATM    8  C3  UNL     1      -3.687   3.637  13.297  1.00  0.00     0.255 C 
HETATM    9  O1  UNL     1      -2.686   3.114  12.851  1.00  0.00    -0.305 OA
ENDBRANCH   6   8
ENDBRANCH   1   6
TORSDOF 2
ENDMDL
MODEL 4
REMARK VINA RESULT: -4.198633110      1.958      2.334
REMARK  2 active torsions:
REMARK  status: ('A' for Active; 'I' for Inactive)
REMARK    1  A    between atoms: C2_2  and  C3_3 
REMARK    2  A    between atoms: C2_2  and  N1_5 
REMARK       I    between atoms: N1_5  and  C4_7 
ROOT
HETATM    1  N1  UNL     1      -4.026   1.502  13.949  1.00  0.00    -0.335 N 
ATOM      2  H1  UNL     1      -3.196   0.946  13.743  1.00  0.00     0.164 HD
HETATM    3  C4  UNL     1      -4.562   1.355  15.282  1.00  0.00     0.329 C 
HETATM    4  N2  UNL     1      -3.910   0.444  16.225  1.00  0.00    -0.040 NA
HETATM    5  O2  UNL     1      -5.560   1.928  15.792  1.00  0.00    -0.251 OA
ENDROOT
BRANCH   1   6
HETATM    6  C2  UNL     1      -4.490   2.304  12.900  1.00  0.00     0.143 C 
HETATM    7  C1  UNL     1      -4.805   1.377  11.703  1.00  0.00     0.040 C 
BRANCH   6   8
HETATM    8  C3  UNL     1      -3.421   3.240  12.486  1.00  0.00     0.255 C 
HETATM    9  O1  UNL     1      -2.236   3.095  12.709  1.00  0.00    -0.305 OA
ENDBRANCH   6   8
ENDBRANCH   1   6
TORSDOF 2
ENDMDL
MODEL 5
REMARK VINA RESULT: -4.187583681      1.700      3.633
REMARK  2 active torsions:
REMARK  status: ('A' for Active; 'I' for Inactive)
REMARK    1  A    between atoms: C2_2  and  C3_3 
REMARK    2  A    between atoms: C2_2  and  N1_5 
REMARK       I    between atoms: N1_5  and  C4_7 
ROOT
HETATM    1  N1  UNL     1      -6.125   2.681  15.908  1.00  0.00    -0.335 N 
ATOM      2  H1  UNL     1      -6.606   3.209  16.636  1.00  0.00     0.164 HD
HETATM    3  C4  UNL     1      -5.811   3.417  14.707  1.00  0.00     0.329 C 
HETATM    4  N2  UNL     1      -6.191   4.828  14.604  1.00  0.00    -0.040 NA
HETATM    5  O2  UNL     1      -5.218   3.013  13.673  1.00  0.00    -0.251 OA
ENDROOT
BRANCH   1   6
HETATM    6  C2  UNL     1      -5.861   1.340  16.211  1.00  0.00     0.143 C 
HETATM    7  C1  UNL     1      -6.575   1.009  17.542  1.00  0.00     0.040 C 
BRANCH   6   8
HETATM    8  C3  UNL     1      -4.407   1.159  16.413  1.00  0.00     0.255 C 
HETATM    9  O1  UNL     1      -3.776   0.162  16.123  1.00  0.00    -0.305 OA
ENDBRANCH   6   8
ENDBRANCH   1   6
TORSDOF 2
ENDMDL
