MODEL 1
REMARK VINA RESULT: -5.631786117      0.000      0.000
REMARK  3 active torsions:
REMARK  status: ('A' for Active; 'I' for Inactive)
REMARK    1  A    between atoms: N4_13  and  C4_14 
REMARK    2  A    between atoms: C4_14  and  C5_15 
REMARK    3  A    between atoms: C5_15  and  O3_16 
ROOT
HETATM    1  N1  UNL     1      18.075  -1.264  36.803  1.00  0.00    -0.234 N 
ATOM      2  H11 UNL     1      18.159  -0.249  36.861  1.00  0.00     0.174 HD
ATOM      3  H12 UNL     1      18.834  -1.870  37.115  1.00  0.00     0.174 HD
HETATM    4  C1  UNL     1      16.951  -1.656  36.329  1.00  0.00     0.686 A 
HETATM    5  N2  UNL     1      16.838  -3.023  36.251  1.00  0.00    -0.141 N 
ATOM      6  H2  UNL     1      17.605  -3.617  36.566  1.00  0.00     0.189 HD
HETATM    7  C2  UNL     1      15.732  -3.570  35.766  1.00  0.00     0.342 A 
HETATM    8  O1  UNL     1      15.582  -4.826  35.674  1.00  0.00    -0.246 OA
HETATM    9  N3  UNL     1      14.738  -2.764  35.356  1.00  0.00    -0.259 N 
ATOM     10  H3  UNL     1      13.886  -3.181  34.981  1.00  0.00     0.175 HD
HETATM   11  C3  UNL     1      14.835  -1.415  35.428  1.00  0.00     0.344 A 
HETATM   12  O2  UNL     1      13.836  -0.785  35.011  1.00  0.00    -0.246 OA
HETATM   13  N4  UNL     1      15.952  -0.859  35.919  1.00  0.00    -0.130 N 
ENDROOT
BRANCH  13  14
HETATM   14  C4  UNL     1      16.089   0.546  36.022  1.00  0.00     0.192 C 
BRANCH  14  15
HETATM   15  C5  UNL     1      16.119   1.345  34.773  1.00  0.00     0.100 C 
HETATM   16  C6  UNL     1      16.609   2.790  35.076  1.00  0.00     0.068 C 
HETATM   17  C7  UNL     1      17.217   3.244  33.760  1.00  0.00     0.235 C 
HETATM   18  N5  UNL     1      17.352   2.067  32.917  1.00  0.00    -0.072 N 
HETATM   19  C8  UNL     1      17.232   0.945  33.855  1.00  0.00     0.271 C 
ATOM     20  H52 UNL     1      16.697   2.034  32.136  1.00  0.00     0.277 HD
ATOM     21  H51 UNL     1      18.200   2.052  32.350  1.00  0.00     0.277 HD
BRANCH  15  22
HETATM   22  O3  UNL     1      14.917   1.548  34.142  1.00  0.00    -0.386 OA
ATOM     23  H3  UNL     1      14.530   0.796  33.708  1.00  0.00     0.210 HD
ENDBRANCH  15  22
ENDBRANCH  14  15
ENDBRANCH  13  14
TORSDOF 3
ENDMDL
MODEL 2
REMARK VINA RESULT: -5.554828132      1.442      2.102
REMARK  3 active torsions:
REMARK  status: ('A' for Active; 'I' for Inactive)
REMARK    1  A    between atoms: N4_13  and  C4_14 
REMARK    2  A    between atoms: C4_14  and  C5_15 
REMARK    3  A    between atoms: C5_15  and  O3_16 
ROOT
HETATM    1  N1  UNL     1      14.179  -1.626  35.258  1.00  0.00    -0.234 N 
ATOM      2  H11 UNL     1      14.016  -0.620  35.313  1.00  0.00     0.174 HD
ATOM      3  H12 UNL     1      13.465  -2.251  34.884  1.00  0.00     0.174 HD
HETATM    4  C1  UNL     1      15.336  -1.979  35.680  1.00  0.00     0.686 A 
HETATM    5  N2  UNL     1      15.555  -3.333  35.605  1.00  0.00    -0.141 N 
ATOM      6  H2  UNL     1      14.832  -3.947  35.229  1.00  0.00     0.189 HD
HETATM    7  C2  UNL     1      16.707  -3.842  36.021  1.00  0.00     0.342 A 
HETATM    8  O1  UNL     1      16.953  -5.085  35.971  1.00  0.00    -0.246 OA
HETATM    9  N3  UNL     1      17.640  -3.012  36.513  1.00  0.00    -0.259 N 
ATOM     10  H3  UNL     1      18.527  -3.400  36.836  1.00  0.00     0.175 HD
HETATM   11  C3  UNL     1      17.439  -1.675  36.593  1.00  0.00     0.344 A 
HETATM   12  O2  UNL     1      18.392  -1.019  37.073  1.00  0.00    -0.246 OA
HETATM   13  N4  UNL     1      16.275  -1.156  36.172  1.00  0.00    -0.130 N 
ENDROOT
BRANCH  13  14
HETATM   14  C4  UNL     1      16.030   0.236  36.227  1.00  0.00     0.192 C 
BRANCH  14  15
HETATM   15  C5  UNL     1      16.027   1.002  34.959  1.00  0.00     0.100 C 
HETATM   16  C6  UNL     1      16.288   2.510  35.246  1.00  0.00     0.068 C 
HETATM   17  C7  UNL     1      16.909   3.016  33.955  1.00  0.00     0.235 C 
HETATM   18  N5  UNL     1      17.262   1.852  33.159  1.00  0.00    -0.072 N 
HETATM   19  C8  UNL     1      17.241   0.746  34.122  1.00  0.00     0.271 C 
ATOM     20  H52 UNL     1      16.669   1.708  32.341  1.00  0.00     0.277 HD
ATOM     21  H51 UNL     1      18.138   1.946  32.644  1.00  0.00     0.277 HD
BRANCH  15  22
HETATM   22  O3  UNL     1      14.851   1.018  34.250  1.00  0.00    -0.386 OA
ATOM     23  H3  UNL     1      14.923   0.993  33.303  1.00  0.00     0.210 HD
ENDBRANCH  15  22
ENDBRANCH  14  15
ENDBRANCH  13  14
TORSDOF 3
ENDMDL
MODEL 3
REMARK VINA RESULT: -5.493602038      1.141      1.151
REMARK  3 active torsions:
REMARK  status: ('A' for Active; 'I' for Inactive)
REMARK    1  A    between atoms: N4_13  and  C4_14 
REMARK    2  A    between atoms: C4_14  and  C5_15 
REMARK    3  A    between atoms: C5_15  and  O3_16 
ROOT
HETATM    1  N1  UNL     1      17.572  -1.346  37.707  1.00  0.00    -0.234 N 
ATOM      2  H11 UNL     1      17.811  -0.356  37.665  1.00  0.00     0.174 HD
ATOM      3  H12 UNL     1      18.087  -1.982  38.315  1.00  0.00     0.174 HD
HETATM    4  C1  UNL     1      16.586  -1.666  36.953  1.00  0.00     0.686 A 
HETATM    5  N2  UNL     1      16.265  -3.000  37.011  1.00  0.00    -0.141 N 
ATOM      6  H2  UNL     1      16.789  -3.625  37.623  1.00  0.00     0.189 HD
HETATM    7  C2  UNL     1      15.273  -3.475  36.270  1.00  0.00     0.342 A 
HETATM    8  O1  UNL     1      14.940  -4.699  36.290  1.00  0.00    -0.246 OA
HETATM    9  N3  UNL     1      14.600  -2.631  35.471  1.00  0.00    -0.259 N 
ATOM     10  H3  UNL     1      13.837  -2.993  34.899  1.00  0.00     0.175 HD
HETATM   11  C3  UNL     1      14.905  -1.313  35.404  1.00  0.00     0.344 A 
HETATM   12  O2  UNL     1      14.199  -0.640  34.619  1.00  0.00    -0.246 OA
HETATM   13  N4  UNL     1      15.908  -0.829  36.153  1.00  0.00    -0.130 N 
ENDROOT
BRANCH  13  14
HETATM   14  C4  UNL     1      16.252   0.544  36.121  1.00  0.00     0.192 C 
BRANCH  14  15
HETATM   15  C5  UNL     1      17.028   1.049  34.964  1.00  0.00     0.100 C 
HETATM   16  C6  UNL     1      16.269   2.227  34.286  1.00  0.00     0.068 C 
HETATM   17  C7  UNL     1      17.377   3.037  33.634  1.00  0.00     0.235 C 
HETATM   18  N5  UNL     1      18.639   2.552  34.168  1.00  0.00    -0.072 N 
HETATM   19  C8  UNL     1      18.251   1.810  35.373  1.00  0.00     0.271 C 
ATOM     20  H52 UNL     1      19.197   2.015  33.504  1.00  0.00     0.277 HD
ATOM     21  H51 UNL     1      19.334   3.282  34.329  1.00  0.00     0.277 HD
BRANCH  15  22
HETATM   22  O3  UNL     1      17.234   0.172  33.928  1.00  0.00    -0.386 OA
ATOM     23  H3  UNL     1      17.143   0.521  33.048  1.00  0.00     0.210 HD
ENDBRANCH  15  22
ENDBRANCH  14  15
ENDBRANCH  13  14
TORSDOF 3
ENDMDL
MODEL 4
REMARK VINA RESULT: -5.462219877      1.751      2.018
REMARK  3 active torsions:
REMARK  status: ('A' for Active; 'I' for Inactive)
REMARK    1  A    between atoms: N4_13  and  C4_14 
REMARK    2  A    between atoms: C4_14  and  C5_15 
REMARK    3  A    between atoms: C5_15  and  O3_16 
ROOT
HETATM    1  N1  UNL     1      18.109  -1.493  36.895  1.00  0.00    -0.234 N 
ATOM      2  H11 UNL     1      18.470  -0.556  36.713  1.00  0.00     0.174 HD
ATOM      3  H12 UNL     1      18.653  -2.167  37.433  1.00  0.00     0.174 HD
HETATM    4  C1  UNL     1      16.944  -1.695  36.402  1.00  0.00     0.686 A 
HETATM    5  N2  UNL     1      16.458  -2.956  36.648  1.00  0.00    -0.141 N 
ATOM      6  H2  UNL     1      17.013  -3.621  37.187  1.00  0.00     0.189 HD
HETATM    7  C2  UNL     1      15.267  -3.310  36.184  1.00  0.00     0.342 A 
HETATM    8  O1  UNL     1      14.777  -4.462  36.386  1.00  0.00    -0.246 OA
HETATM    9  N3  UNL     1      14.557  -2.416  35.476  1.00  0.00    -0.259 N 
ATOM     10  H3  UNL     1      13.641  -2.684  35.116  1.00  0.00     0.175 HD
HETATM   11  C3  UNL     1      15.023  -1.169  35.226  1.00  0.00     0.344 A 
HETATM   12  O2  UNL     1      14.260  -0.438  34.553  1.00  0.00    -0.246 OA
HETATM   13  N4  UNL     1      16.227  -0.808  35.694  1.00  0.00    -0.130 N 
ENDROOT
BRANCH  13  14
HETATM   14  C4  UNL     1      16.745   0.489  35.465  1.00  0.00     0.192 C 
BRANCH  14  15
HETATM   15  C5  UNL     1      16.365   1.575  36.400  1.00  0.00     0.100 C 
HETATM   16  C6  UNL     1      17.641   2.203  37.034  1.00  0.00     0.068 C 
HETATM   17  C7  UNL     1      17.208   3.617  37.380  1.00  0.00     0.235 C 
HETATM   18  N5  UNL     1      15.940   3.857  36.712  1.00  0.00    -0.072 N 
HETATM   19  C8  UNL     1      15.870   2.800  35.697  1.00  0.00     0.271 C 
ATOM     20  H52 UNL     1      15.135   3.893  37.338  1.00  0.00     0.277 HD
ATOM     21  H51 UNL     1      15.832   4.803  36.342  1.00  0.00     0.277 HD
BRANCH  15  22
HETATM   22  O3  UNL     1      15.618   1.215  37.493  1.00  0.00    -0.386 OA
ATOM     23  H3  UNL     1      15.046   1.881  37.858  1.00  0.00     0.210 HD
ENDBRANCH  15  22
ENDBRANCH  14  15
ENDBRANCH  13  14
TORSDOF 3
ENDMDL
MODEL 5
REMARK VINA RESULT: -5.327714258      2.021      5.324
REMARK  3 active torsions:
REMARK  status: ('A' for Active; 'I' for Inactive)
REMARK    1  A    between atoms: N4_13  and  C4_14 
REMARK    2  A    between atoms: C4_14  and  C5_15 
REMARK    3  A    between atoms: C5_15  and  O3_16 
ROOT
HETATM    1  N1  UNL     1      18.980   1.444  35.395  1.00  0.00    -0.234 N 
ATOM      2  H11 UNL     1      18.907   0.434  35.274  1.00  0.00     0.174 HD
ATOM      3  H12 UNL     1      19.849   1.869  35.719  1.00  0.00     0.174 HD
HETATM    4  C1  UNL     1      17.908   2.075  35.089  1.00  0.00     0.686 A 
HETATM    5  N2  UNL     1      18.007   3.434  35.252  1.00  0.00    -0.141 N 
ATOM      6  H2  UNL     1      18.882   3.847  35.577  1.00  0.00     0.189 HD
HETATM    7  C2  UNL     1      16.967   4.212  34.986  1.00  0.00     0.342 A 
HETATM    8  O1  UNL     1      17.012   5.472  35.122  1.00  0.00    -0.246 OA
HETATM    9  N3  UNL     1      15.827   3.644  34.561  1.00  0.00    -0.259 N 
ATOM     10  H3  UNL     1      15.023   4.238  34.357  1.00  0.00     0.175 HD
HETATM   11  C3  UNL     1      15.713   2.304  34.395  1.00  0.00     0.344 A 
HETATM   12  O2  UNL     1      14.595   1.909  33.994  1.00  0.00    -0.246 OA
HETATM   13  N4  UNL     1      16.765   1.515  34.662  1.00  0.00    -0.130 N 
ENDROOT
BRANCH  13  14
HETATM   14  C4  UNL     1      16.691   0.112  34.490  1.00  0.00     0.192 C 
BRANCH  14  15
HETATM   15  C5  UNL     1      16.056  -0.696  35.559  1.00  0.00     0.100 C 
HETATM   16  C6  UNL     1      15.036  -1.694  34.937  1.00  0.00     0.068 C 
HETATM   17  C7  UNL     1      14.989  -2.830  35.944  1.00  0.00     0.235 C 
HETATM   18  N5  UNL     1      16.105  -2.645  36.857  1.00  0.00    -0.072 N 
HETATM   19  C8  UNL     1      16.987  -1.708  36.152  1.00  0.00     0.271 C 
ATOM     20  H52 UNL     1      15.835  -2.345  37.794  1.00  0.00     0.277 HD
ATOM     21  H51 UNL     1      16.559  -3.512  37.146  1.00  0.00     0.277 HD
BRANCH  15  22
HETATM   22  O3  UNL     1      15.304  -0.015  36.483  1.00  0.00    -0.386 OA
ATOM     23  H3  UNL     1      14.524  -0.452  36.805  1.00  0.00     0.210 HD
ENDBRANCH  15  22
ENDBRANCH  14  15
ENDBRANCH  13  14
TORSDOF 3
ENDMDL
