MODEL 1
REMARK VINA RESULT: -4.908045892      0.000      0.000
REMARK  6 active torsions:
REMARK  status: ('A' for Active; 'I' for Inactive)
REMARK    1  A    between atoms: N1_1  and  C1_4 
REMARK    2  A    between atoms: C2_7  and  N3_8 
REMARK    3  A    between atoms: N3_8  and  N4_10 
REMARK    4  A    between atoms: N4_10  and  O1_12 
REMARK    5  A    between atoms: C4_17  and  S1_18 
REMARK    6  A    between atoms: S1_18  and  N6_19 
ROOT
HETATM    1  C1  UNL     1      16.358  -0.771  36.559  1.00  0.00     0.139 A 
HETATM    2  N2  UNL     1      16.094  -2.075  36.842  1.00  0.00    -0.174 N 
ATOM      3  H2  UNL     1      16.541  -2.505  37.652  1.00  0.00     0.186 HD
HETATM    4  C2  UNL     1      15.261  -2.815  36.089  1.00  0.00     0.699 A 
HETATM    5  N5  UNL     1      14.692  -2.214  35.032  1.00  0.00    -0.199 N 
ATOM      6  H5  UNL     1      14.056  -2.757  34.448  1.00  0.00     0.183 HD
HETATM    7  C3  UNL     1      14.921  -0.928  34.709  1.00  0.00     0.135 A 
HETATM    8  C4  UNL     1      15.772  -0.156  35.472  1.00  0.00     0.139 A 
ENDROOT
BRANCH   4   9
HETATM    9  N3  UNL     1      15.016  -4.060  36.371  1.00  0.00    -0.112 N 
ATOM     10  H3  UNL     1      14.057  -4.345  36.565  1.00  0.00     0.207 HD
BRANCH   9  11
HETATM   11  N4  UNL     1      16.033  -5.017  36.414  1.00  0.00    -0.196 N 
ATOM     12  H4  UNL     1      15.861  -5.902  36.893  1.00  0.00     0.216 HD
BRANCH  11  13
HETATM   13  O1  UNL     1      17.152  -4.820  35.880  1.00  0.00    -0.274 OA
ATOM     14  H1  UNL     1      17.256  -4.241  35.134  1.00  0.00     0.246 HD
ENDBRANCH  11  13
ENDBRANCH   9  11
ENDBRANCH   4   9
BRANCH   1  15
HETATM   15  N1  UNL     1      17.158  -0.059  37.282  1.00  0.00    -0.384 N 
ATOM     16  H12 UNL     1      17.959  -0.534  37.700  1.00  0.00     0.157 HD
ATOM     17  H11 UNL     1      17.006   0.937  37.437  1.00  0.00     0.157 HD
ENDBRANCH   1  15
BRANCH   8  18
HETATM   18  S1  UNL     1      16.112   1.523  35.106  1.00  0.00     0.261 S 
HETATM   19  O2  UNL     1      15.671   2.423  36.232  1.00  0.00    -0.201 OA
HETATM   20  O3  UNL     1      17.602   1.679  34.960  1.00  0.00    -0.201 OA
BRANCH  18  21
HETATM   21  N6  UNL     1      15.360   2.048  33.678  1.00  0.00    -0.324 N 
ATOM     22  H62 UNL     1      15.182   1.429  32.888  1.00  0.00     0.169 HD
ATOM     23  H61 UNL     1      15.112   3.037  33.705  1.00  0.00     0.169 HD
ENDBRANCH  18  21
ENDBRANCH   8  18
TORSDOF 6
ENDMDL
MODEL 2
REMARK VINA RESULT: -4.884548924      2.120      5.268
REMARK  6 active torsions:
REMARK  status: ('A' for Active; 'I' for Inactive)
REMARK    1  A    between atoms: N1_1  and  C1_4 
REMARK    2  A    between atoms: C2_7  and  N3_8 
REMARK    3  A    between atoms: N3_8  and  N4_10 
REMARK    4  A    between atoms: N4_10  and  O1_12 
REMARK    5  A    between atoms: C4_17  and  S1_18 
REMARK    6  A    between atoms: S1_18  and  N6_19 
ROOT
HETATM    1  C1  UNL     1      15.255  -2.146  35.391  1.00  0.00     0.139 A 
HETATM    2  N2  UNL     1      14.790  -0.999  34.826  1.00  0.00    -0.174 N 
ATOM      3  H2  UNL     1      13.838  -0.980  34.460  1.00  0.00     0.186 HD
HETATM    4  C2  UNL     1      15.545   0.110  34.734  1.00  0.00     0.699 A 
HETATM    5  N5  UNL     1      16.792   0.045  35.226  1.00  0.00    -0.199 N 
ATOM      6  H5  UNL     1      17.382   0.876  35.168  1.00  0.00     0.183 HD
HETATM    7  C3  UNL     1      17.299  -1.064  35.795  1.00  0.00     0.135 A 
HETATM    8  C4  UNL     1      16.538  -2.209  35.897  1.00  0.00     0.139 A 
ENDROOT
BRANCH   4   9
HETATM    9  N3  UNL     1      15.088   1.199  34.191  1.00  0.00    -0.112 N 
ATOM     10  H3  UNL     1      14.455   1.129  33.396  1.00  0.00     0.207 HD
BRANCH   9  11
HETATM   11  N4  UNL     1      15.443   2.462  34.671  1.00  0.00    -0.196 N 
ATOM     12  H4  UNL     1      15.771   3.168  34.012  1.00  0.00     0.216 HD
BRANCH  11  13
HETATM   13  O1  UNL     1      15.370   2.753  35.890  1.00  0.00    -0.274 OA
ATOM     14  H1  UNL     1      14.583   2.592  36.397  1.00  0.00     0.246 HD
ENDBRANCH  11  13
ENDBRANCH   9  11
ENDBRANCH   4   9
BRANCH   1  15
HETATM   15  N1  UNL     1      14.531  -3.211  35.481  1.00  0.00    -0.384 N 
ATOM     16  H12 UNL     1      14.879  -3.966  36.073  1.00  0.00     0.157 HD
ATOM     17  H11 UNL     1      13.645  -3.308  34.984  1.00  0.00     0.157 HD
ENDBRANCH   1  15
BRANCH   8  18
HETATM   18  S1  UNL     1      17.138  -3.684  36.625  1.00  0.00     0.261 S 
HETATM   19  O2  UNL     1      16.447  -3.961  37.937  1.00  0.00    -0.201 OA
HETATM   20  O3  UNL     1      16.822  -4.827  35.698  1.00  0.00    -0.201 OA
BRANCH  18  21
HETATM   21  N6  UNL     1      18.812  -3.645  36.903  1.00  0.00    -0.324 N 
ATOM     22  H62 UNL     1      19.411  -2.893  36.561  1.00  0.00     0.169 HD
ATOM     23  H61 UNL     1      19.141  -4.447  37.441  1.00  0.00     0.169 HD
ENDBRANCH  18  21
ENDBRANCH   8  18
TORSDOF 6
ENDMDL
MODEL 3
REMARK VINA RESULT: -4.797378638      0.968      1.133
REMARK  6 active torsions:
REMARK  status: ('A' for Active; 'I' for Inactive)
REMARK    1  A    between atoms: N1_1  and  C1_4 
REMARK    2  A    between atoms: C2_7  and  N3_8 
REMARK    3  A    between atoms: N3_8  and  N4_10 
REMARK    4  A    between atoms: N4_10  and  O1_12 
REMARK    5  A    between atoms: C4_17  and  S1_18 
REMARK    6  A    between atoms: S1_18  and  N6_19 
ROOT
HETATM    1  C1  UNL     1      16.335  -0.723  36.410  1.00  0.00     0.139 A 
HETATM    2  N2  UNL     1      16.152  -2.007  36.823  1.00  0.00    -0.174 N 
ATOM      3  H2  UNL     1      16.636  -2.329  37.661  1.00  0.00     0.186 HD
HETATM    4  C2  UNL     1      15.353  -2.863  36.162  1.00  0.00     0.699 A 
HETATM    5  N5  UNL     1      14.733  -2.400  35.064  1.00  0.00    -0.199 N 
ATOM      6  H5  UNL     1      14.122  -3.033  34.547  1.00  0.00     0.183 HD
HETATM    7  C3  UNL     1      14.881  -1.141  34.615  1.00  0.00     0.135 A 
HETATM    8  C4  UNL     1      15.697  -0.251  35.282  1.00  0.00     0.139 A 
ENDROOT
BRANCH   4   9
HETATM    9  N3  UNL     1      15.186  -4.086  36.566  1.00  0.00    -0.112 N 
ATOM     10  H3  UNL     1      14.265  -4.382  36.886  1.00  0.00     0.207 HD
BRANCH   9  11
HETATM   11  N4  UNL     1      16.238  -5.007  36.575  1.00  0.00    -0.196 N 
ATOM     12  H4  UNL     1      16.139  -5.867  37.115  1.00  0.00     0.216 HD
BRANCH  11  13
HETATM   13  O1  UNL     1      17.300  -4.805  35.937  1.00  0.00    -0.274 OA
ATOM     14  H1  UNL     1      17.362  -4.966  35.003  1.00  0.00     0.246 HD
ENDBRANCH  11  13
ENDBRANCH   9  11
ENDBRANCH   4   9
BRANCH   1  15
HETATM   15  N1  UNL     1      17.102   0.100  37.045  1.00  0.00    -0.384 N 
ATOM     16  H12 UNL     1      17.460  -0.199  37.952  1.00  0.00     0.157 HD
ATOM     17  H11 UNL     1      17.346   1.015  36.667  1.00  0.00     0.157 HD
ENDBRANCH   1  15
BRANCH   8  18
HETATM   18  S1  UNL     1      15.932   1.401  34.750  1.00  0.00     0.261 S 
HETATM   19  O2  UNL     1      14.937   1.773  33.679  1.00  0.00    -0.201 OA
HETATM   20  O3  UNL     1      15.690   2.311  35.924  1.00  0.00    -0.201 OA
BRANCH  18  21
HETATM   21  N6  UNL     1      17.493   1.681  34.146  1.00  0.00    -0.324 N 
ATOM     22  H62 UNL     1      18.321   1.696  34.743  1.00  0.00     0.169 HD
ATOM     23  H61 UNL     1      17.505   1.829  33.137  1.00  0.00     0.169 HD
ENDBRANCH  18  21
ENDBRANCH   8  18
TORSDOF 6
ENDMDL
MODEL 4
REMARK VINA RESULT: -4.693431359      2.261      5.367
REMARK  6 active torsions:
REMARK  status: ('A' for Active; 'I' for Inactive)
REMARK    1  A    between atoms: N1_1  and  C1_4 
REMARK    2  A    between atoms: C2_7  and  N3_8 
REMARK    3  A    between atoms: N3_8  and  N4_10 
REMARK    4  A    between atoms: N4_10  and  O1_12 
REMARK    5  A    between atoms: C4_17  and  S1_18 
REMARK    6  A    between atoms: S1_18  and  N6_19 
ROOT
HETATM    1  C1  UNL     1      15.673  -1.651  35.133  1.00  0.00     0.139 A 
HETATM    2  N2  UNL     1      15.715  -0.330  34.813  1.00  0.00    -0.174 N 
ATOM      3  H2  UNL     1      15.291  -0.020  33.938  1.00  0.00     0.186 HD
HETATM    4  C2  UNL     1      16.298   0.580  35.613  1.00  0.00     0.699 A 
HETATM    5  N5  UNL     1      16.844   0.134  36.755  1.00  0.00    -0.199 N 
ATOM      6  H5  UNL     1      17.290   0.807  37.377  1.00  0.00     0.183 HD
HETATM    7  C3  UNL     1      16.828  -1.162  37.117  1.00  0.00     0.135 A 
HETATM    8  C4  UNL     1      16.235  -2.108  36.307  1.00  0.00     0.139 A 
ENDROOT
BRANCH   4   9
HETATM    9  N3  UNL     1      16.331   1.840  35.296  1.00  0.00    -0.112 N 
ATOM     10  H3  UNL     1      16.895   2.478  35.857  1.00  0.00     0.207 HD
BRANCH   9  11
HETATM   11  N4  UNL     1      15.615   2.343  34.206  1.00  0.00    -0.196 N 
ATOM     12  H4  UNL     1      16.079   2.985  33.563  1.00  0.00     0.216 HD
BRANCH  11  13
HETATM   13  O1  UNL     1      14.419   2.027  33.998  1.00  0.00    -0.274 OA
ATOM     14  H1  UNL     1      14.099   1.820  33.127  1.00  0.00     0.246 HD
ENDBRANCH  11  13
ENDBRANCH   9  11
ENDBRANCH   4   9
BRANCH   1  15
HETATM   15  N1  UNL     1      15.113  -2.527  34.365  1.00  0.00    -0.384 N 
ATOM     16  H12 UNL     1      14.497  -2.179  33.629  1.00  0.00     0.157 HD
ATOM     17  H11 UNL     1      15.271  -3.528  34.479  1.00  0.00     0.157 HD
ENDBRANCH   1  15
BRANCH   8  18
HETATM   18  S1  UNL     1      16.181  -3.809  36.720  1.00  0.00     0.261 S 
HETATM   19  O2  UNL     1      14.797  -4.373  36.514  1.00  0.00    -0.201 OA
HETATM   20  O3  UNL     1      17.111  -4.546  35.794  1.00  0.00    -0.201 OA
BRANCH  18  21
HETATM   21  N6  UNL     1      16.645  -4.110  38.324  1.00  0.00    -0.324 N 
ATOM     22  H62 UNL     1      16.712  -3.374  39.027  1.00  0.00     0.169 HD
ATOM     23  H61 UNL     1      16.845  -5.095  38.499  1.00  0.00     0.169 HD
ENDBRANCH  18  21
ENDBRANCH   8  18
TORSDOF 6
ENDMDL
MODEL 5
REMARK VINA RESULT: -4.603836885      1.927      2.821
REMARK  6 active torsions:
REMARK  status: ('A' for Active; 'I' for Inactive)
REMARK    1  A    between atoms: N1_1  and  C1_4 
REMARK    2  A    between atoms: C2_7  and  N3_8 
REMARK    3  A    between atoms: N3_8  and  N4_10 
REMARK    4  A    between atoms: N4_10  and  O1_12 
REMARK    5  A    between atoms: C4_17  and  S1_18 
REMARK    6  A    between atoms: S1_18  and  N6_19 
ROOT
HETATM    1  C1  UNL     1      15.119  -2.245  35.616  1.00  0.00     0.139 A 
HETATM    2  N2  UNL     1      14.743  -3.519  35.911  1.00  0.00    -0.174 N 
ATOM      3  H2  UNL     1      13.841  -3.858  35.576  1.00  0.00     0.186 HD
HETATM    4  C2  UNL     1      15.523  -4.346  36.630  1.00  0.00     0.699 A 
HETATM    5  N5  UNL     1      16.702  -3.864  37.053  1.00  0.00    -0.199 N 
ATOM      6  H5  UNL     1      17.310  -4.474  37.599  1.00  0.00     0.183 HD
HETATM    7  C3  UNL     1      17.120  -2.612  36.788  1.00  0.00     0.135 A 
HETATM    8  C4  UNL     1      16.332  -1.752  36.053  1.00  0.00     0.139 A 
ENDROOT
BRANCH   4   9
HETATM    9  N3  UNL     1      15.153  -5.561  36.904  1.00  0.00    -0.112 N 
ATOM     10  H3  UNL     1      14.803  -6.155  36.153  1.00  0.00     0.207 HD
BRANCH   9  11
HETATM   11  N4  UNL     1      15.221  -6.074  38.202  1.00  0.00    -0.196 N 
ATOM     12  H4  UNL     1      14.442  -6.629  38.557  1.00  0.00     0.216 HD
BRANCH  11  13
HETATM   13  O1  UNL     1      16.214  -5.872  38.943  1.00  0.00    -0.274 OA
ATOM     14  H1  UNL     1      16.583  -5.005  39.062  1.00  0.00     0.246 HD
ENDBRANCH  11  13
ENDBRANCH   9  11
ENDBRANCH   4   9
BRANCH   1  15
HETATM   15  N1  UNL     1      14.371  -1.451  34.925  1.00  0.00    -0.384 N 
ATOM     16  H12 UNL     1      13.580  -1.018  35.404  1.00  0.00     0.157 HD
ATOM     17  H11 UNL     1      14.551  -1.255  33.941  1.00  0.00     0.157 HD
ENDBRANCH   1  15
BRANCH   8  18
HETATM   18  S1  UNL     1      16.817  -0.113  35.674  1.00  0.00     0.261 S 
HETATM   19  O2  UNL     1      16.875   0.105  34.182  1.00  0.00    -0.201 OA
HETATM   20  O3  UNL     1      15.775   0.824  36.225  1.00  0.00    -0.201 OA
BRANCH  18  21
HETATM   21  N6  UNL     1      18.328   0.293  36.331  1.00  0.00    -0.324 N 
ATOM     22  H62 UNL     1      18.835  -0.320  36.968  1.00  0.00     0.169 HD
ATOM     23  H61 UNL     1      18.661   1.205  36.018  1.00  0.00     0.169 HD
ENDBRANCH  18  21
ENDBRANCH   8  18
TORSDOF 6
ENDMDL
