MODEL 1
REMARK VINA RESULT: -5.385732472      0.000      0.000
REMARK  4 active torsions:
REMARK  status: ('A' for Active; 'I' for Inactive)
REMARK    1  A    between atoms: C2_2  and  C3_3 
REMARK    2  A    between atoms: C5_6  and  O2_7 
REMARK    3  A    between atoms: C9_13  and  C10_14 
REMARK    4  A    between atoms: C10_14  and  O4_15 
ROOT
HETATM    1  C3  UNL     1      33.447  15.213 -21.070  1.00  0.00     0.182 C 
HETATM    2  C4  UNL     1      32.082  14.709 -20.630  1.00  0.00     0.084 C 
HETATM    3  O1  UNL     1      34.313  14.149 -21.271  1.00  0.00    -0.320 OA
HETATM    4  C5  UNL     1      35.630  14.452 -21.068  1.00  0.00     0.289 C 
HETATM    5  C6  UNL     1      35.985  14.730 -19.617  1.00  0.00     0.179 C 
HETATM    6  C7  UNL     1      34.720  14.348 -18.833  1.00  0.00     0.071 C 
HETATM    7  C8  UNL     1      34.057  15.734 -18.891  1.00  0.00     0.159 C 
HETATM    8  O3  UNL     1      33.876  16.150 -20.186  1.00  0.00    -0.344 OA
HETATM    9  C9  UNL     1      35.296  16.482 -18.391  1.00  0.00     0.174 C 
HETATM   10  O5  UNL     1      36.191  16.081 -19.382  1.00  0.00    -0.371 OA
ENDROOT
BRANCH   1  11
HETATM   11  C2  UNL     1      33.249  15.866 -22.393  1.00  0.00     0.030 C 
HETATM   12  C1  UNL     1      32.067  16.153 -22.907  1.00  0.00     0.012 C 
ENDBRANCH   1  11
BRANCH   4  13
HETATM   13  O2  UNL     1      36.075  15.468 -21.909  1.00  0.00    -0.368 OA
ATOM     14  H2  UNL     1      37.022  15.487 -21.985  1.00  0.00     0.212 HD
ENDBRANCH   4  13
BRANCH   9  15
HETATM   15  C10 UNL     1      35.074  17.956 -18.354  1.00  0.00     0.198 C 
BRANCH  15  16
HETATM   16  O4  UNL     1      35.721  18.435 -17.200  1.00  0.00    -0.398 OA
ATOM     17  H4  UNL     1      35.215  18.131 -16.456  1.00  0.00     0.209 HD
ENDBRANCH  15  16
ENDBRANCH   9  15
TORSDOF 4
ENDMDL
MODEL 2
REMARK VINA RESULT: -5.218390966      2.192      3.923
REMARK  4 active torsions:
REMARK  status: ('A' for Active; 'I' for Inactive)
REMARK    1  A    between atoms: C2_2  and  C3_3 
REMARK    2  A    between atoms: C5_6  and  O2_7 
REMARK    3  A    between atoms: C9_13  and  C10_14 
REMARK    4  A    between atoms: C10_14  and  O4_15 
ROOT
HETATM    1  C3  UNL     1      34.010  16.186 -17.190  1.00  0.00     0.182 C 
HETATM    2  C4  UNL     1      35.111  16.667 -16.258  1.00  0.00     0.084 C 
HETATM    3  O1  UNL     1      33.947  14.801 -17.187  1.00  0.00    -0.320 OA
HETATM    4  C5  UNL     1      33.478  14.258 -18.351  1.00  0.00     0.289 C 
HETATM    5  C6  UNL     1      34.422  14.415 -19.532  1.00  0.00     0.179 C 
HETATM    6  C7  UNL     1      35.717  14.968 -18.916  1.00  0.00     0.071 C 
HETATM    7  C8  UNL     1      35.356  16.455 -19.064  1.00  0.00     0.159 C 
HETATM    8  O3  UNL     1      34.188  16.755 -18.410  1.00  0.00    -0.344 OA
HETATM    9  C9  UNL     1      34.979  16.342 -20.543  1.00  0.00     0.174 C 
HETATM   10  O5  UNL     1      33.980  15.376 -20.427  1.00  0.00    -0.371 OA
ENDROOT
BRANCH   1  11
HETATM   11  C2  UNL     1      32.728  16.679 -16.619  1.00  0.00     0.030 C 
HETATM   12  C1  UNL     1      32.632  17.703 -15.790  1.00  0.00     0.012 C 
ENDBRANCH   1  11
BRANCH   4  13
HETATM   13  O2  UNL     1      32.194  14.697 -18.660  1.00  0.00    -0.368 OA
ATOM     14  H2  UNL     1      31.641  13.997 -18.987  1.00  0.00     0.212 HD
ENDBRANCH   4  13
BRANCH   9  15
HETATM   15  C10 UNL     1      34.489  17.640 -21.090  1.00  0.00     0.198 C 
BRANCH  15  16
HETATM   16  O4  UNL     1      35.118  18.656 -20.347  1.00  0.00    -0.398 OA
ATOM     17  H4  UNL     1      35.825  18.245 -19.864  1.00  0.00     0.209 HD
ENDBRANCH  15  16
ENDBRANCH   9  15
TORSDOF 4
ENDMDL
MODEL 3
REMARK VINA RESULT: -5.177565562      1.630      4.003
REMARK  4 active torsions:
REMARK  status: ('A' for Active; 'I' for Inactive)
REMARK    1  A    between atoms: C2_2  and  C3_3 
REMARK    2  A    between atoms: C5_6  and  O2_7 
REMARK    3  A    between atoms: C9_13  and  C10_14 
REMARK    4  A    between atoms: C10_14  and  O4_15 
ROOT
HETATM    1  C3  UNL     1      34.733  15.542 -19.482  1.00  0.00     0.182 C 
HETATM    2  C4  UNL     1      35.020  16.940 -18.956  1.00  0.00     0.084 C 
HETATM    3  O1  UNL     1      35.890  14.970 -19.987  1.00  0.00    -0.320 OA
HETATM    4  C5  UNL     1      35.676  14.055 -20.980  1.00  0.00     0.289 C 
HETATM    5  C6  UNL     1      35.165  14.659 -22.278  1.00  0.00     0.179 C 
HETATM    6  C7  UNL     1      35.277  16.176 -22.066  1.00  0.00     0.071 C 
HETATM    7  C8  UNL     1      33.872  16.371 -21.473  1.00  0.00     0.159 C 
HETATM    8  O3  UNL     1      33.690  15.605 -20.350  1.00  0.00    -0.344 OA
HETATM    9  C9  UNL     1      33.160  15.619 -22.600  1.00  0.00     0.174 C 
HETATM   10  O5  UNL     1      33.819  14.396 -22.479  1.00  0.00    -0.371 OA
ENDROOT
BRANCH   1  11
HETATM   11  C2  UNL     1      34.323  14.725 -18.307  1.00  0.00     0.030 C 
HETATM   12  C1  UNL     1      33.068  14.524 -17.947  1.00  0.00     0.012 C 
ENDBRANCH   1  11
BRANCH   4  13
HETATM   13  O2  UNL     1      34.879  12.994 -20.559  1.00  0.00    -0.368 OA
ATOM     14  H2  UNL     1      35.387  12.216 -20.364  1.00  0.00     0.212 HD
ENDBRANCH   4  13
BRANCH   9  15
HETATM   15  C10 UNL     1      31.691  15.527 -22.362  1.00  0.00     0.198 C 
BRANCH  15  16
HETATM   16  O4  UNL     1      31.474  14.359 -21.607  1.00  0.00    -0.398 OA
ATOM     17  H4  UNL     1      30.788  13.872 -22.047  1.00  0.00     0.209 HD
ENDBRANCH  15  16
ENDBRANCH   9  15
TORSDOF 4
ENDMDL
MODEL 4
REMARK VINA RESULT: -5.165497415      1.746      2.277
REMARK  4 active torsions:
REMARK  status: ('A' for Active; 'I' for Inactive)
REMARK    1  A    between atoms: C2_2  and  C3_3 
REMARK    2  A    between atoms: C5_6  and  O2_7 
REMARK    3  A    between atoms: C9_13  and  C10_14 
REMARK    4  A    between atoms: C10_14  and  O4_15 
ROOT
HETATM    1  C3  UNL     1      32.845  15.039 -21.775  1.00  0.00     0.182 C 
HETATM    2  C4  UNL     1      32.272  13.717 -22.259  1.00  0.00     0.084 C 
HETATM    3  O1  UNL     1      34.073  15.279 -22.373  1.00  0.00    -0.320 OA
HETATM    4  C5  UNL     1      34.921  16.045 -21.624  1.00  0.00     0.289 C 
HETATM    5  C6  UNL     1      35.437  15.353 -20.373  1.00  0.00     0.179 C 
HETATM    6  C7  UNL     1      34.964  13.898 -20.516  1.00  0.00     0.071 C 
HETATM    7  C8  UNL     1      33.615  14.086 -19.802  1.00  0.00     0.159 C 
HETATM    8  O3  UNL     1      32.851  15.045 -20.418  1.00  0.00    -0.344 OA
HETATM    9  C9  UNL     1      34.221  14.772 -18.575  1.00  0.00     0.174 C 
HETATM   10  O5  UNL     1      34.838  15.843 -19.223  1.00  0.00    -0.371 OA
ENDROOT
BRANCH   1  11
HETATM   11  C2  UNL     1      31.917  16.101 -22.250  1.00  0.00     0.030 C 
HETATM   12  C1  UNL     1      31.698  16.377 -23.524  1.00  0.00     0.012 C 
ENDBRANCH   1  11
BRANCH   4  13
HETATM   13  O2  UNL     1      34.387  17.298 -21.333  1.00  0.00    -0.368 OA
ATOM     14  H2  UNL     1      34.192  17.402 -20.410  1.00  0.00     0.212 HD
ENDBRANCH   4  13
BRANCH   9  15
HETATM   15  C10 UNL     1      33.173  15.192 -17.602  1.00  0.00     0.198 C 
BRANCH  15  16
HETATM   16  O4  UNL     1      32.020  14.442 -17.898  1.00  0.00    -0.398 OA
ATOM     17  H4  UNL     1      31.374  14.661 -17.238  1.00  0.00     0.209 HD
ENDBRANCH  15  16
ENDBRANCH   9  15
TORSDOF 4
ENDMDL
MODEL 5
REMARK VINA RESULT: -5.144167244      1.544      4.044
REMARK  4 active torsions:
REMARK  status: ('A' for Active; 'I' for Inactive)
REMARK    1  A    between atoms: C2_2  and  C3_3 
REMARK    2  A    between atoms: C5_6  and  O2_7 
REMARK    3  A    between atoms: C9_13  and  C10_14 
REMARK    4  A    between atoms: C10_14  and  O4_15 
ROOT
HETATM    1  C3  UNL     1      33.532  14.886 -19.061  1.00  0.00     0.182 C 
HETATM    2  C4  UNL     1      32.039  14.620 -18.960  1.00  0.00     0.084 C 
HETATM    3  O1  UNL     1      33.782  16.249 -19.039  1.00  0.00    -0.320 OA
HETATM    4  C5  UNL     1      34.917  16.623 -19.703  1.00  0.00     0.289 C 
HETATM    5  C6  UNL     1      34.835  16.456 -21.211  1.00  0.00     0.179 C 
HETATM    6  C7  UNL     1      33.362  16.110 -21.480  1.00  0.00     0.071 C 
HETATM    7  C8  UNL     1      33.521  14.585 -21.364  1.00  0.00     0.159 C 
HETATM    8  O3  UNL     1      34.024  14.224 -20.140  1.00  0.00    -0.344 OA
HETATM    9  C9  UNL     1      34.705  14.513 -22.331  1.00  0.00     0.174 C 
HETATM   10  O5  UNL     1      35.573  15.370 -21.656  1.00  0.00    -0.371 OA
ENDROOT
BRANCH   1  11
HETATM   11  C2  UNL     1      34.147  14.313 -17.833  1.00  0.00     0.030 C 
HETATM   12  C1  UNL     1      33.872  14.723 -16.608  1.00  0.00     0.012 C 
ENDBRANCH   1  11
BRANCH   4  13
HETATM   13  O2  UNL     1      36.058  16.018 -19.182  1.00  0.00    -0.368 OA
ATOM     14  H2  UNL     1      36.023  15.936 -18.236  1.00  0.00     0.212 HD
ENDBRANCH   4  13
BRANCH   9  15
HETATM   15  C10 UNL     1      35.228  13.122 -22.462  1.00  0.00     0.198 C 
BRANCH  15  16
HETATM   16  O4  UNL     1      36.243  12.978 -21.498  1.00  0.00    -0.398 OA
ATOM     17  H4  UNL     1      35.865  13.225 -20.663  1.00  0.00     0.209 HD
ENDBRANCH  15  16
ENDBRANCH   9  15
TORSDOF 4
ENDMDL
