MODEL 1
REMARK VINA RESULT: -7.146009386      0.000      0.000
REMARK  17 active torsions:
REMARK  status: ('A' for Active; 'I' for Inactive)
REMARK    1  A    between atoms: N1_1  and  C1_4 
REMARK    2  A    between atoms: C2_7  and  O1_8 
REMARK    3  A    between atoms: C3_10  and  N3_11 
REMARK    4  A    between atoms: N3_11  and  C4_13 
REMARK    5  A    between atoms: C4_13  and  C5_14 
REMARK    6  A    between atoms: C4_13  and  C11_34 
REMARK    7  A    between atoms: N6_19  and  C6_20 
REMARK    8  A    between atoms: C8_22  and  O2_23 
REMARK    9  A    between atoms: C8_22  and  O3_25 
REMARK   10  A    between atoms: C9_27  and  C10_28 
REMARK   11  A    between atoms: C10_28  and  O4_29 
REMARK   12  A    between atoms: C11_34  and  N8_35 
REMARK   13  A    between atoms: C11_34  and  C12_38 
REMARK   14  A    between atoms: C11_34  and  C13_41 
REMARK   15  A    between atoms: N8_35  and  O6_36 
REMARK   16  A    between atoms: C13_41  and  O9_42 
REMARK   17  A    between atoms: N9_44  and  O10_46 
ROOT
HETATM    1  C4  UNL     1      -0.796   3.697  37.571  1.00  0.00     0.199 C 
ENDROOT
BRANCH   1   2
HETATM    2  N3  UNL     1      -2.105   4.283  37.788  1.00  0.00    -0.367 N 
ATOM      3  H3  UNL     1      -2.289   5.175  37.329  1.00  0.00     0.161 HD
BRANCH   2   4
HETATM    4  C3  UNL     1      -3.143   3.749  38.564  1.00  0.00     0.150 A 
HETATM    5  C2  UNL     1      -3.354   4.243  39.847  1.00  0.00     0.187 A 
HETATM    6  N2  UNL     1      -4.360   3.765  40.600  1.00  0.00    -0.168 N 
HETATM    7  C1  UNL     1      -5.190   2.806  40.152  1.00  0.00     0.680 A 
ATOM      8  H2  UNL     1      -4.498   4.140  41.538  1.00  0.00     0.186 HD
HETATM    9  N10 UNL     1      -5.013   2.307  38.914  1.00  0.00    -0.154 N 
HETATM   10  C14 UNL     1      -3.998   2.773  38.122  1.00  0.00     0.290 A 
ATOM     11  H10 UNL     1      -5.638   1.580  38.565  1.00  0.00     0.187 HD
HETATM   12  O11 UNL     1      -3.928   2.244  36.991  1.00  0.00    -0.265 OA
BRANCH   5  13
HETATM   13  O1  UNL     1      -2.563   5.232  40.417  1.00  0.00    -0.344 OA
ATOM     14  H1  UNL     1      -1.635   5.202  40.221  1.00  0.00     0.219 HD
ENDBRANCH   5  13
BRANCH   7  15
HETATM   15  N1  UNL     1      -6.154   2.347  40.872  1.00  0.00    -0.234 N 
ATOM     16  H12 UNL     1      -6.329   2.770  41.783  1.00  0.00     0.174 HD
ATOM     17  H11 UNL     1      -6.744   1.577  40.558  1.00  0.00     0.174 HD
ENDBRANCH   7  15
ENDBRANCH   2   4
ENDBRANCH   1   2
BRANCH   1  18
HETATM   18  C5  UNL     1      -0.575   3.072  36.274  1.00  0.00     0.139 A 
HETATM   19  N4  UNL     1      -1.409   2.925  35.244  1.00  0.00    -0.270 N 
HETATM   20  N5  UNL     1      -0.809   2.274  34.272  1.00  0.00    -0.222 N 
ATOM     21  H4  UNL     1      -2.369   3.268  35.213  1.00  0.00     0.190 HD
HETATM   22  N6  UNL     1       0.430   1.973  34.634  1.00  0.00    -0.188 N 
ATOM     23  H5  UNL     1      -1.233   2.035  33.376  1.00  0.00     0.210 HD
HETATM   24  N7  UNL     1       0.574   2.447  35.828  1.00  0.00    -0.266 N 
ATOM     25  H7  UNL     1       1.432   2.370  36.374  1.00  0.00     0.190 HD
BRANCH  22  26
HETATM   26  C6  UNL     1       1.362   1.257  33.798  1.00  0.00     0.270 C 
HETATM   27  C7  UNL     1       2.244   2.211  33.023  1.00  0.00     0.128 C 
HETATM   28  C8  UNL     1       3.555   1.487  32.893  1.00  0.00     0.192 C 
HETATM   29  C9  UNL     1       3.320   0.238  33.700  1.00  0.00     0.209 C 
HETATM   30  O5  UNL     1       2.264   0.532  34.538  1.00  0.00    -0.350 OA
BRANCH  28  31
HETATM   31  O2  UNL     1       4.634   2.231  33.364  1.00  0.00    -0.363 OA
ATOM     32  H2  UNL     1       5.449   2.021  32.923  1.00  0.00     0.213 HD
ENDBRANCH  28  31
BRANCH  28  33
HETATM   33  O3  UNL     1       3.846   1.157  31.567  1.00  0.00    -0.363 OA
ATOM     34  H3  UNL     1       4.239   0.296  31.491  1.00  0.00     0.213 HD
ENDBRANCH  28  33
BRANCH  29  35
HETATM   35  C10 UNL     1       4.587  -0.081  34.462  1.00  0.00     0.201 C 
BRANCH  35  36
HETATM   36  O4  UNL     1       4.585   0.623  35.657  1.00  0.00    -0.398 OA
ATOM     37  H4  UNL     1       4.226   1.490  35.505  1.00  0.00     0.209 HD
ENDBRANCH  35  36
ENDBRANCH  29  35
ENDBRANCH  22  26
ENDBRANCH   1  18
BRANCH   1  38
HETATM   38  C11 UNL     1       0.221   4.741  37.979  1.00  0.00     0.236 C 
BRANCH  38  39
HETATM   39  N8  UNL     1      -0.487   6.037  38.153  1.00  0.00    -0.070 NA
BRANCH  39  40
HETATM   40  O6  UNL     1      -0.360   6.451  39.415  1.00  0.00    -0.294 OA
ATOM     41  H6  UNL     1      -0.891   7.227  39.552  1.00  0.00     0.238 HD
ENDBRANCH  39  40
ENDBRANCH  38  39
BRANCH  38  42
HETATM   42  C12 UNL     1       1.215   4.977  36.904  1.00  0.00     0.212 C 
HETATM   43  O7  UNL     1       0.978   5.853  35.989  1.00  0.00    -0.646 OA
HETATM   44  O8  UNL     1       2.424   4.344  36.759  1.00  0.00    -0.646 OA
ENDBRANCH  38  42
BRANCH  38  45
HETATM   45  C13 UNL     1       0.892   4.508  39.256  1.00  0.00     0.176 C 
HETATM   46  N9  UNL     1       2.111   4.809  39.451  1.00  0.00    -0.249 N 
ATOM     47  H9  UNL     1       2.617   5.228  38.671  1.00  0.00     0.196 HD
BRANCH  45  48
HETATM   48  O9  UNL     1       0.166   3.935  40.288  1.00  0.00    -0.346 OA
ATOM     49  H9  UNL     1       0.185   4.354  41.140  1.00  0.00     0.219 HD
ENDBRANCH  45  48
BRANCH  46  50
HETATM   50  O10 UNL     1       2.797   4.621  40.608  1.00  0.00    -0.288 OA
ATOM     51  H10 UNL     1       3.742   4.573  40.689  1.00  0.00     0.244 HD
ENDBRANCH  46  50
ENDBRANCH  38  45
ENDBRANCH   1  38
TORSDOF 17
ENDMDL
MODEL 2
REMARK VINA RESULT: -7.130514615      2.202      3.399
REMARK  17 active torsions:
REMARK  status: ('A' for Active; 'I' for Inactive)
REMARK    1  A    between atoms: N1_1  and  C1_4 
REMARK    2  A    between atoms: C2_7  and  O1_8 
REMARK    3  A    between atoms: C3_10  and  N3_11 
REMARK    4  A    between atoms: N3_11  and  C4_13 
REMARK    5  A    between atoms: C4_13  and  C5_14 
REMARK    6  A    between atoms: C4_13  and  C11_34 
REMARK    7  A    between atoms: N6_19  and  C6_20 
REMARK    8  A    between atoms: C8_22  and  O2_23 
REMARK    9  A    between atoms: C8_22  and  O3_25 
REMARK   10  A    between atoms: C9_27  and  C10_28 
REMARK   11  A    between atoms: C10_28  and  O4_29 
REMARK   12  A    between atoms: C11_34  and  N8_35 
REMARK   13  A    between atoms: C11_34  and  C12_38 
REMARK   14  A    between atoms: C11_34  and  C13_41 
REMARK   15  A    between atoms: N8_35  and  O6_36 
REMARK   16  A    between atoms: C13_41  and  O9_42 
REMARK   17  A    between atoms: N9_44  and  O10_46 
ROOT
HETATM    1  C4  UNL     1      -1.459   3.003  38.282  1.00  0.00     0.199 C 
ENDROOT
BRANCH   1   2
HETATM    2  N3  UNL     1      -2.847   2.585  38.318  1.00  0.00    -0.367 N 
ATOM      3  H3  UNL     1      -3.549   3.326  38.327  1.00  0.00     0.161 HD
BRANCH   2   4
HETATM    4  C3  UNL     1      -3.324   1.267  38.341  1.00  0.00     0.150 A 
HETATM    5  C2  UNL     1      -3.645   0.683  39.561  1.00  0.00     0.187 A 
HETATM    6  N2  UNL     1      -4.129  -0.571  39.606  1.00  0.00    -0.168 N 
HETATM    7  C1  UNL     1      -4.320  -1.299  38.492  1.00  0.00     0.680 A 
ATOM      8  H2  UNL     1      -4.359  -0.981  40.511  1.00  0.00     0.186 HD
HETATM    9  N10 UNL     1      -4.020  -0.762  37.294  1.00  0.00    -0.154 N 
HETATM   10  C14 UNL     1      -3.526   0.512  37.214  1.00  0.00     0.290 A 
ATOM     11  H10 UNL     1      -4.162  -1.307  36.443  1.00  0.00     0.187 HD
HETATM   12  O11 UNL     1      -3.286   0.912  36.054  1.00  0.00    -0.265 OA
BRANCH   5  13
HETATM   13  O1  UNL     1      -3.491   1.336  40.777  1.00  0.00    -0.344 OA
ATOM     14  H1  UNL     1      -4.161   1.183  41.432  1.00  0.00     0.219 HD
ENDBRANCH   5  13
BRANCH   7  15
HETATM   15  N1  UNL     1      -4.784  -2.500  38.532  1.00  0.00    -0.234 N 
ATOM     16  H12 UNL     1      -4.307  -3.189  39.113  1.00  0.00     0.174 HD
ATOM     17  H11 UNL     1      -5.609  -2.779  38.003  1.00  0.00     0.174 HD
ENDBRANCH   7  15
ENDBRANCH   2   4
ENDBRANCH   1   2
BRANCH   1  18
HETATM   18  C5  UNL     1      -0.961   3.480  36.999  1.00  0.00     0.139 A 
HETATM   19  N4  UNL     1      -1.586   4.171  36.044  1.00  0.00    -0.270 N 
HETATM   20  N5  UNL     1      -0.771   4.371  35.032  1.00  0.00    -0.222 N 
ATOM     21  H4  UNL     1      -2.552   4.496  36.091  1.00  0.00     0.190 HD
HETATM   22  N6  UNL     1       0.406   3.820  35.290  1.00  0.00    -0.188 N 
ATOM     23  H5  UNL     1      -1.009   4.875  34.177  1.00  0.00     0.210 HD
HETATM   24  N7  UNL     1       0.298   3.288  36.462  1.00  0.00    -0.266 N 
ATOM     25  H7  UNL     1       1.050   2.787  36.935  1.00  0.00     0.190 HD
BRANCH  22  26
HETATM   26  C6  UNL     1       1.529   3.857  34.385  1.00  0.00     0.270 C 
HETATM   27  C7  UNL     1       2.802   4.235  35.110  1.00  0.00     0.128 C 
HETATM   28  C8  UNL     1       3.884   3.489  34.377  1.00  0.00     0.192 C 
HETATM   29  C9  UNL     1       3.103   2.680  33.376  1.00  0.00     0.209 C 
HETATM   30  O5  UNL     1       1.818   2.615  33.874  1.00  0.00    -0.350 OA
BRANCH  28  31
HETATM   31  O2  UNL     1       4.659   2.694  35.219  1.00  0.00    -0.363 OA
ATOM     32  H2  UNL     1       5.564   2.978  35.265  1.00  0.00     0.213 HD
ENDBRANCH  28  31
BRANCH  28  33
HETATM   33  O3  UNL     1       4.765   4.352  33.720  1.00  0.00    -0.363 OA
ATOM     34  H3  UNL     1       5.583   3.925  33.497  1.00  0.00     0.213 HD
ENDBRANCH  28  33
BRANCH  29  35
HETATM   35  C10 UNL     1       3.746   1.316  33.264  1.00  0.00     0.201 C 
BRANCH  35  36
HETATM   36  O4  UNL     1       4.974   1.445  32.634  1.00  0.00    -0.398 OA
ATOM     37  H4  UNL     1       4.853   1.903  31.810  1.00  0.00     0.209 HD
ENDBRANCH  35  36
ENDBRANCH  29  35
ENDBRANCH  22  26
ENDBRANCH   1  18
BRANCH   1  38
HETATM   38  C11 UNL     1      -1.257   3.938  39.454  1.00  0.00     0.236 C 
BRANCH  38  39
HETATM   39  N8  UNL     1      -0.456   5.102  38.989  1.00  0.00    -0.070 NA
BRANCH  39  40
HETATM   40  O6  UNL     1      -0.679   6.147  39.788  1.00  0.00    -0.294 OA
ATOM     41  H6  UNL     1       0.031   6.773  39.701  1.00  0.00     0.238 HD
ENDBRANCH  39  40
ENDBRANCH  38  39
BRANCH  38  42
HETATM   42  C12 UNL     1      -0.443   3.303  40.520  1.00  0.00     0.212 C 
HETATM   43  O7  UNL     1      -0.579   2.046  40.769  1.00  0.00    -0.646 OA
HETATM   44  O8  UNL     1       0.488   3.923  41.314  1.00  0.00    -0.646 OA
ENDBRANCH  38  42
BRANCH  38  45
HETATM   45  C13 UNL     1      -2.472   4.523  40.018  1.00  0.00     0.176 C 
HETATM   46  N9  UNL     1      -2.801   4.370  41.235  1.00  0.00    -0.249 N 
ATOM     47  H9  UNL     1      -2.177   3.815  41.820  1.00  0.00     0.196 HD
BRANCH  45  48
HETATM   48  O9  UNL     1      -3.291   5.268  39.186  1.00  0.00    -0.346 OA
ATOM     49  H9  UNL     1      -3.950   4.813  38.674  1.00  0.00     0.219 HD
ENDBRANCH  45  48
BRANCH  46  50
HETATM   50  O10 UNL     1      -3.913   4.882  41.824  1.00  0.00    -0.288 OA
ATOM     51  H10 UNL     1      -4.664   5.244  41.368  1.00  0.00     0.244 HD
ENDBRANCH  46  50
ENDBRANCH  38  45
ENDBRANCH   1  38
TORSDOF 17
ENDMDL
MODEL 3
REMARK VINA RESULT: -6.985367299      2.275      3.410
REMARK  17 active torsions:
REMARK  status: ('A' for Active; 'I' for Inactive)
REMARK    1  A    between atoms: N1_1  and  C1_4 
REMARK    2  A    between atoms: C2_7  and  O1_8 
REMARK    3  A    between atoms: C3_10  and  N3_11 
REMARK    4  A    between atoms: N3_11  and  C4_13 
REMARK    5  A    between atoms: C4_13  and  C5_14 
REMARK    6  A    between atoms: C4_13  and  C11_34 
REMARK    7  A    between atoms: N6_19  and  C6_20 
REMARK    8  A    between atoms: C8_22  and  O2_23 
REMARK    9  A    between atoms: C8_22  and  O3_25 
REMARK   10  A    between atoms: C9_27  and  C10_28 
REMARK   11  A    between atoms: C10_28  and  O4_29 
REMARK   12  A    between atoms: C11_34  and  N8_35 
REMARK   13  A    between atoms: C11_34  and  C12_38 
REMARK   14  A    between atoms: C11_34  and  C13_41 
REMARK   15  A    between atoms: N8_35  and  O6_36 
REMARK   16  A    between atoms: C13_41  and  O9_42 
REMARK   17  A    between atoms: N9_44  and  O10_46 
ROOT
HETATM    1  C4  UNL     1       1.101   2.783  37.564  1.00  0.00     0.199 C 
ENDROOT
BRANCH   1   2
HETATM    2  N3  UNL     1      -0.051   2.909  36.692  1.00  0.00    -0.367 N 
ATOM      3  H3  UNL     1       0.114   3.316  35.771  1.00  0.00     0.161 HD
BRANCH   2   4
HETATM    4  C3  UNL     1      -1.368   2.529  36.985  1.00  0.00     0.150 A 
HETATM    5  C2  UNL     1      -2.330   3.514  37.186  1.00  0.00     0.187 A 
HETATM    6  N2  UNL     1      -3.605   3.173  37.442  1.00  0.00    -0.168 N 
HETATM    7  C1  UNL     1      -3.997   1.890  37.513  1.00  0.00     0.680 A 
ATOM      8  H2  UNL     1      -4.294   3.911  37.587  1.00  0.00     0.186 HD
HETATM    9  N10 UNL     1      -3.091   0.912  37.322  1.00  0.00    -0.154 N 
HETATM   10  C14 UNL     1      -1.784   1.225  37.059  1.00  0.00     0.290 A 
ATOM     11  H10 UNL     1      -3.379  -0.066  37.373  1.00  0.00     0.187 HD
HETATM   12  O11 UNL     1      -1.031   0.242  36.894  1.00  0.00    -0.265 OA
BRANCH   5  13
HETATM   13  O1  UNL     1      -2.044   4.872  37.137  1.00  0.00    -0.344 OA
ATOM     14  H1  UNL     1      -1.976   5.324  37.970  1.00  0.00     0.219 HD
ENDBRANCH   5  13
BRANCH   7  15
HETATM   15  N1  UNL     1      -5.218   1.562  37.758  1.00  0.00    -0.234 N 
ATOM     16  H12 UNL     1      -5.962   2.006  37.219  1.00  0.00     0.174 HD
ATOM     17  H11 UNL     1      -5.461   0.875  38.471  1.00  0.00     0.174 HD
ENDBRANCH   7  15
ENDBRANCH   2   4
ENDBRANCH   1   2
BRANCH   1  18
HETATM   18  C5  UNL     1       2.167   1.905  37.102  1.00  0.00     0.139 A 
HETATM   19  N4  UNL     1       2.977   1.106  37.799  1.00  0.00    -0.270 N 
HETATM   20  N5  UNL     1       3.820   0.506  36.988  1.00  0.00    -0.222 N 
ATOM     21  H4  UNL     1       2.947   0.979  38.811  1.00  0.00     0.190 HD
HETATM   22  N6  UNL     1       3.591   0.891  35.741  1.00  0.00    -0.188 N 
ATOM     23  H5  UNL     1       4.541  -0.156  37.275  1.00  0.00     0.210 HD
HETATM   24  N7  UNL     1       2.606   1.725  35.804  1.00  0.00    -0.266 N 
ATOM     25  H7  UNL     1       2.200   2.194  34.994  1.00  0.00     0.190 HD
BRANCH  22  26
HETATM   26  C6  UNL     1       4.341   0.421  34.601  1.00  0.00     0.270 C 
HETATM   27  C7  UNL     1       4.599   1.542  33.619  1.00  0.00     0.128 C 
HETATM   28  C8  UNL     1       5.934   1.206  33.012  1.00  0.00     0.192 C 
HETATM   29  C9  UNL     1       6.347  -0.016  33.788  1.00  0.00     0.209 C 
HETATM   30  O5  UNL     1       5.605   0.016  34.950  1.00  0.00    -0.350 OA
BRANCH  28  31
HETATM   31  O2  UNL     1       6.855   2.245  33.120  1.00  0.00    -0.363 OA
ATOM     32  H2  UNL     1       7.529   2.076  33.767  1.00  0.00     0.213 HD
ENDBRANCH  28  31
BRANCH  28  33
HETATM   33  O3  UNL     1       5.831   0.903  31.651  1.00  0.00    -0.363 OA
ATOM     34  H3  UNL     1       6.132   1.617  31.103  1.00  0.00     0.213 HD
ENDBRANCH  28  33
BRANCH  29  35
HETATM   35  C10 UNL     1       7.834   0.071  34.052  1.00  0.00     0.201 C 
BRANCH  35  36
HETATM   36  O4  UNL     1       8.512  -0.004  32.844  1.00  0.00    -0.398 OA
ATOM     37  H4  UNL     1       9.433   0.175  32.995  1.00  0.00     0.209 HD
ENDBRANCH  35  36
ENDBRANCH  29  35
ENDBRANCH  22  26
ENDBRANCH   1  18
BRANCH   1  38
HETATM   38  C11 UNL     1       1.522   4.189  37.934  1.00  0.00     0.236 C 
BRANCH  38  39
HETATM   39  N8  UNL     1       2.826   4.113  38.644  1.00  0.00    -0.070 NA
BRANCH  39  40
HETATM   40  O6  UNL     1       2.855   5.017  39.625  1.00  0.00    -0.294 OA
ATOM     41  H6  UNL     1       3.368   5.769  39.350  1.00  0.00     0.238 HD
ENDBRANCH  39  40
ENDBRANCH  38  39
BRANCH  38  42
HETATM   42  C12 UNL     1       0.580   4.798  38.905  1.00  0.00     0.212 C 
HETATM   43  O7  UNL     1       0.139   4.102  39.897  1.00  0.00    -0.646 OA
HETATM   44  O8  UNL     1       0.097   6.082  38.877  1.00  0.00    -0.646 OA
ENDBRANCH  38  42
BRANCH  38  45
HETATM   45  C13 UNL     1       1.759   5.096  36.813  1.00  0.00     0.176 C 
HETATM   46  N9  UNL     1       2.920   5.312  36.345  1.00  0.00    -0.249 N 
ATOM     47  H9  UNL     1       3.699   4.822  36.785  1.00  0.00     0.196 HD
BRANCH  45  48
HETATM   48  O9  UNL     1       0.672   5.741  36.246  1.00  0.00    -0.346 OA
ATOM     49  H9  UNL     1       0.061   5.228  35.731  1.00  0.00     0.219 HD
ENDBRANCH  45  48
BRANCH  46  50
HETATM   50  O10 UNL     1       3.213   6.140  35.308  1.00  0.00    -0.288 OA
ATOM     51  H10 UNL     1       3.972   6.069  34.741  1.00  0.00     0.244 HD
ENDBRANCH  46  50
ENDBRANCH  38  45
ENDBRANCH   1  38
TORSDOF 17
ENDMDL
MODEL 4
REMARK VINA RESULT: -6.962310568      2.598      4.201
REMARK  17 active torsions:
REMARK  status: ('A' for Active; 'I' for Inactive)
REMARK    1  A    between atoms: N1_1  and  C1_4 
REMARK    2  A    between atoms: C2_7  and  O1_8 
REMARK    3  A    between atoms: C3_10  and  N3_11 
REMARK    4  A    between atoms: N3_11  and  C4_13 
REMARK    5  A    between atoms: C4_13  and  C5_14 
REMARK    6  A    between atoms: C4_13  and  C11_34 
REMARK    7  A    between atoms: N6_19  and  C6_20 
REMARK    8  A    between atoms: C8_22  and  O2_23 
REMARK    9  A    between atoms: C8_22  and  O3_25 
REMARK   10  A    between atoms: C9_27  and  C10_28 
REMARK   11  A    between atoms: C10_28  and  O4_29 
REMARK   12  A    between atoms: C11_34  and  N8_35 
REMARK   13  A    between atoms: C11_34  and  C12_38 
REMARK   14  A    between atoms: C11_34  and  C13_41 
REMARK   15  A    between atoms: N8_35  and  O6_36 
REMARK   16  A    between atoms: C13_41  and  O9_42 
REMARK   17  A    between atoms: N9_44  and  O10_46 
ROOT
HETATM    1  C4  UNL     1       0.729   3.194  36.274  1.00  0.00     0.199 C 
ENDROOT
BRANCH   1   2
HETATM    2  N3  UNL     1      -0.627   2.810  36.618  1.00  0.00    -0.367 N 
ATOM      3  H3  UNL     1      -1.124   2.228  35.943  1.00  0.00     0.161 HD
BRANCH   2   4
HETATM    4  C3  UNL     1      -1.325   3.157  37.783  1.00  0.00     0.150 A 
HETATM    5  C2  UNL     1      -2.262   4.184  37.732  1.00  0.00     0.187 A 
HETATM    6  N2  UNL     1      -2.963   4.516  38.830  1.00  0.00    -0.168 N 
HETATM    7  C1  UNL     1      -2.790   3.881  40.003  1.00  0.00     0.680 A 
ATOM      8  H2  UNL     1      -3.645   5.272  38.772  1.00  0.00     0.186 HD
HETATM    9  N10 UNL     1      -1.892   2.882  40.085  1.00  0.00    -0.154 N 
HETATM   10  C14 UNL     1      -1.162   2.519  38.985  1.00  0.00     0.290 A 
ATOM     11  H10 UNL     1      -1.754   2.394  40.971  1.00  0.00     0.187 HD
HETATM   12  O11 UNL     1      -0.361   1.578  39.172  1.00  0.00    -0.265 OA
BRANCH   5  13
HETATM   13  O1  UNL     1      -2.527   4.911  36.579  1.00  0.00    -0.344 OA
ATOM     14  H1  UNL     1      -1.816   5.438  36.234  1.00  0.00     0.219 HD
ENDBRANCH   5  13
BRANCH   7  15
HETATM   15  N1  UNL     1      -3.461   4.198  41.056  1.00  0.00    -0.234 N 
ATOM     16  H12 UNL     1      -3.165   5.010  41.599  1.00  0.00     0.174 HD
ATOM     17  H11 UNL     1      -4.274   3.664  41.360  1.00  0.00     0.174 HD
ENDBRANCH   7  15
ENDBRANCH   2   4
ENDBRANCH   1   2
BRANCH   1  18
HETATM   18  C5  UNL     1       1.777   2.245  36.625  1.00  0.00     0.139 A 
HETATM   19  N4  UNL     1       2.500   2.146  37.741  1.00  0.00    -0.270 N 
HETATM   20  N5  UNL     1       3.362   1.159  37.630  1.00  0.00    -0.222 N 
ATOM     21  H4  UNL     1       2.399   2.746  38.560  1.00  0.00     0.190 HD
HETATM   22  N6  UNL     1       3.232   0.585  36.443  1.00  0.00    -0.188 N 
ATOM     23  H5  UNL     1       4.029   0.878  38.348  1.00  0.00     0.210 HD
HETATM   24  N7  UNL     1       2.288   1.229  35.840  1.00  0.00    -0.266 N 
ATOM     25  H7  UNL     1       1.959   1.013  34.899  1.00  0.00     0.190 HD
BRANCH  22  26
HETATM   26  C6  UNL     1       4.028  -0.533  35.997  1.00  0.00     0.270 C 
HETATM   27  C7  UNL     1       5.361  -0.068  35.451  1.00  0.00     0.128 C 
HETATM   28  C8  UNL     1       6.312  -1.183  35.792  1.00  0.00     0.192 C 
HETATM   29  C9  UNL     1       5.445  -2.120  36.590  1.00  0.00     0.209 C 
HETATM   30  O5  UNL     1       4.387  -1.355  37.036  1.00  0.00    -0.350 OA
BRANCH  28  31
HETATM   31  O2  UNL     1       7.425  -0.746  36.506  1.00  0.00    -0.363 OA
ATOM     32  H2  UNL     1       7.642  -1.313  37.237  1.00  0.00     0.213 HD
ENDBRANCH  28  31
BRANCH  28  33
HETATM   33  O3  UNL     1       6.797  -1.828  34.651  1.00  0.00    -0.363 OA
ATOM     34  H3  UNL     1       7.713  -1.633  34.494  1.00  0.00     0.213 HD
ENDBRANCH  28  33
BRANCH  29  35
HETATM   35  C10 UNL     1       6.271  -2.677  37.728  1.00  0.00     0.201 C 
BRANCH  35  36
HETATM   36  O4  UNL     1       6.094  -1.879  38.848  1.00  0.00    -0.398 OA
ATOM     37  H4  UNL     1       5.968  -2.436  39.608  1.00  0.00     0.209 HD
ENDBRANCH  35  36
ENDBRANCH  29  35
ENDBRANCH  22  26
ENDBRANCH   1  18
BRANCH   1  38
HETATM   38  C11 UNL     1       0.701   3.638  34.828  1.00  0.00     0.236 C 
BRANCH  38  39
HETATM   39  N8  UNL     1       0.205   5.039  34.780  1.00  0.00    -0.070 NA
BRANCH  39  40
HETATM   40  O6  UNL     1       0.454   5.642  35.944  1.00  0.00    -0.294 OA
ATOM     41  H6  UNL     1      -0.343   6.041  36.273  1.00  0.00     0.238 HD
ENDBRANCH  39  40
ENDBRANCH  38  39
BRANCH  38  42
HETATM   42  C12 UNL     1      -0.274   2.847  34.037  1.00  0.00     0.212 C 
HETATM   43  O7  UNL     1      -0.200   1.561  34.024  1.00  0.00    -0.646 OA
HETATM   44  O8  UNL     1      -1.304   3.346  33.279  1.00  0.00    -0.646 OA
ENDBRANCH  38  42
BRANCH  38  45
HETATM   45  C13 UNL     1       1.996   3.677  34.151  1.00  0.00     0.176 C 
HETATM   46  N9  UNL     1       2.877   4.554  34.415  1.00  0.00    -0.249 N 
ATOM     47  H9  UNL     1       2.647   5.245  35.129  1.00  0.00     0.196 HD
BRANCH  45  48
HETATM   48  O9  UNL     1       2.265   2.719  33.187  1.00  0.00    -0.346 OA
ATOM     49  H9  UNL     1       2.872   2.939  32.490  1.00  0.00     0.219 HD
ENDBRANCH  45  48
BRANCH  46  50
HETATM   50  O10 UNL     1       4.098   4.650  33.827  1.00  0.00    -0.288 OA
ATOM     51  H10 UNL     1       4.919   4.359  34.207  1.00  0.00     0.244 HD
ENDBRANCH  46  50
ENDBRANCH  38  45
ENDBRANCH   1  38
TORSDOF 17
ENDMDL
MODEL 5
REMARK VINA RESULT: -6.957864910      3.363      8.021
REMARK  17 active torsions:
REMARK  status: ('A' for Active; 'I' for Inactive)
REMARK    1  A    between atoms: N1_1  and  C1_4 
REMARK    2  A    between atoms: C2_7  and  O1_8 
REMARK    3  A    between atoms: C3_10  and  N3_11 
REMARK    4  A    between atoms: N3_11  and  C4_13 
REMARK    5  A    between atoms: C4_13  and  C5_14 
REMARK    6  A    between atoms: C4_13  and  C11_34 
REMARK    7  A    between atoms: N6_19  and  C6_20 
REMARK    8  A    between atoms: C8_22  and  O2_23 
REMARK    9  A    between atoms: C8_22  and  O3_25 
REMARK   10  A    between atoms: C9_27  and  C10_28 
REMARK   11  A    between atoms: C10_28  and  O4_29 
REMARK   12  A    between atoms: C11_34  and  N8_35 
REMARK   13  A    between atoms: C11_34  and  C12_38 
REMARK   14  A    between atoms: C11_34  and  C13_41 
REMARK   15  A    between atoms: N8_35  and  O6_36 
REMARK   16  A    between atoms: C13_41  and  O9_42 
REMARK   17  A    between atoms: N9_44  and  O10_46 
ROOT
HETATM    1  C4  UNL     1       0.507   2.972  37.193  1.00  0.00     0.199 C 
ENDROOT
BRANCH   1   2
HETATM    2  N3  UNL     1       1.870   3.437  37.024  1.00  0.00    -0.367 N 
ATOM      3  H3  UNL     1       2.165   4.216  37.613  1.00  0.00     0.161 HD
BRANCH   2   4
HETATM    4  C3  UNL     1       2.824   2.927  36.132  1.00  0.00     0.150 A 
HETATM    5  C2  UNL     1       3.404   3.778  35.198  1.00  0.00     0.187 A 
HETATM    6  N2  UNL     1       4.341   3.316  34.351  1.00  0.00    -0.168 N 
HETATM    7  C1  UNL     1       4.748   2.035  34.371  1.00  0.00     0.680 A 
ATOM      8  H2  UNL     1       4.754   3.957  33.673  1.00  0.00     0.186 HD
HETATM    9  N10 UNL     1       4.207   1.185  35.263  1.00  0.00    -0.154 N 
HETATM   10  C14 UNL     1       3.251   1.624  36.141  1.00  0.00     0.290 A 
ATOM     11  H10 UNL     1       4.509   0.211  35.287  1.00  0.00     0.187 HD
HETATM   12  O11 UNL     1       2.820   0.753  36.927  1.00  0.00    -0.265 OA
BRANCH   5  13
HETATM   13  O1  UNL     1       3.065   5.119  35.083  1.00  0.00    -0.344 OA
ATOM     14  H1  UNL     1       2.807   5.565  35.881  1.00  0.00     0.219 HD
ENDBRANCH   5  13
BRANCH   7  15
HETATM   15  N1  UNL     1       5.645   1.591  33.560  1.00  0.00    -0.234 N 
ATOM     16  H12 UNL     1       6.476   2.158  33.391  1.00  0.00     0.174 HD
ATOM     17  H11 UNL     1       5.547   0.695  33.084  1.00  0.00     0.174 HD
ENDBRANCH   7  15
ENDBRANCH   2   4
ENDBRANCH   1   2
BRANCH   1  18
HETATM   18  C5  UNL     1       0.188   2.363  38.477  1.00  0.00     0.139 A 
HETATM   19  N4  UNL     1      -0.412   1.202  38.746  1.00  0.00    -0.270 N 
HETATM   20  N5  UNL     1      -0.528   1.049  40.046  1.00  0.00    -0.222 N 
ATOM     21  H4  UNL     1      -0.733   0.532  38.047  1.00  0.00     0.190 HD
HETATM   22  N6  UNL     1      -0.012   2.100  40.668  1.00  0.00    -0.188 N 
ATOM     23  H5  UNL     1      -0.951   0.244  40.507  1.00  0.00     0.210 HD
HETATM   24  N7  UNL     1       0.416   2.886  39.736  1.00  0.00    -0.266 N 
ATOM     25  H7  UNL     1       0.869   3.784  39.908  1.00  0.00     0.190 HD
BRANCH  22  26
HETATM   26  C6  UNL     1       0.022   2.252  42.102  1.00  0.00     0.270 C 
HETATM   27  C7  UNL     1      -0.721   3.497  42.536  1.00  0.00     0.128 C 
HETATM   28  C8  UNL     1      -1.298   3.137  43.878  1.00  0.00     0.192 C 
HETATM   29  C9  UNL     1      -0.913   1.689  44.022  1.00  0.00     0.209 C 
HETATM   30  O5  UNL     1      -0.657   1.245  42.741  1.00  0.00    -0.350 OA
BRANCH  28  31
HETATM   31  O2  UNL     1      -2.676   3.333  43.946  1.00  0.00    -0.363 OA
ATOM     32  H2  UNL     1      -3.130   3.035  43.167  1.00  0.00     0.213 HD
ENDBRANCH  28  31
BRANCH  28  33
HETATM   33  O3  UNL     1      -0.736   3.892  44.911  1.00  0.00    -0.363 OA
ATOM     34  H3  UNL     1      -1.373   4.465  45.321  1.00  0.00     0.213 HD
ENDBRANCH  28  33
BRANCH  29  35
HETATM   35  C10 UNL     1      -2.067   0.953  44.667  1.00  0.00     0.201 C 
BRANCH  35  36
HETATM   36  O4  UNL     1      -2.184   1.363  45.986  1.00  0.00    -0.398 OA
ATOM     37  H4  UNL     1      -2.919   1.961  46.061  1.00  0.00     0.209 HD
ENDBRANCH  35  36
ENDBRANCH  29  35
ENDBRANCH  22  26
ENDBRANCH   1  18
BRANCH   1  38
HETATM   38  C11 UNL     1      -0.396   4.107  36.762  1.00  0.00     0.236 C 
BRANCH  38  39
HETATM   39  N8  UNL     1      -1.781   3.795  37.206  1.00  0.00    -0.070 NA
BRANCH  39  40
HETATM   40  O6  UNL     1      -2.632   4.671  36.667  1.00  0.00    -0.294 OA
ATOM     41  H6  UNL     1      -2.150   5.310  36.157  1.00  0.00     0.238 HD
ENDBRANCH  39  40
ENDBRANCH  38  39
BRANCH  38  42
HETATM   42  C12 UNL     1      -0.471   4.208  35.284  1.00  0.00     0.212 C 
HETATM   43  O7  UNL     1      -1.216   3.392  34.620  1.00  0.00    -0.646 OA
HETATM   44  O8  UNL     1       0.191   5.114  34.494  1.00  0.00    -0.646 OA
ENDBRANCH  38  42
BRANCH  38  45
HETATM   45  C13 UNL     1      -0.101   5.412  37.350  1.00  0.00     0.176 C 
HETATM   46  N9  UNL     1      -0.737   5.869  38.350  1.00  0.00    -0.249 N 
ATOM     47  H9  UNL     1      -1.477   5.284  38.739  1.00  0.00     0.196 HD
BRANCH  45  48
HETATM   48  O9  UNL     1       0.911   6.173  36.789  1.00  0.00    -0.346 OA
ATOM     49  H9  UNL     1       1.655   6.406  37.332  1.00  0.00     0.219 HD
ENDBRANCH  45  48
BRANCH  46  50
HETATM   50  O10 UNL     1      -0.516   7.070  38.946  1.00  0.00    -0.288 OA
ATOM     51  H10 UNL     1      -1.146   7.550  39.471  1.00  0.00     0.244 HD
ENDBRANCH  46  50
ENDBRANCH  38  45
ENDBRANCH   1  38
TORSDOF 17
ENDMDL
