MODEL 1
REMARK VINA RESULT: -6.560641912      0.000      0.000
REMARK  20 active torsions:
REMARK  status: ('A' for Active; 'I' for Inactive)
REMARK    1  A    between atoms: N1_1  and  N2_4 
REMARK    2  A    between atoms: N3_6  and  C1_8 
REMARK    3  A    between atoms: C2_9  and  O1_10 
REMARK    4  A    between atoms: C3_12  and  O2_13 
REMARK    5  A    between atoms: C4_15  and  O3_16 
REMARK    6  A    between atoms: N4_18  and  N5_19 
REMARK    7  A    between atoms: C5_20  and  O4_21 
REMARK    8  A    between atoms: O4_21  and  C6_22 
REMARK    9  A    between atoms: C7_24  and  C8_25 
REMARK   10  A    between atoms: C8_25  and  O6_26 
REMARK   11  A    between atoms: C9_28  and  O7_29 
REMARK   12  A    between atoms: C10_31  and  O8_32 
REMARK   13  A    between atoms: C11_34  and  O9_35 
REMARK   14  A    between atoms: C12_37  and  C13_38 
REMARK   15  A    between atoms: C13_38  and  O10_39 
REMARK   16  A    between atoms: C13_38  and  O11_41 
REMARK   17  A    between atoms: N6_43  and  C14_44 
REMARK   18  A    between atoms: C14_44  and  O12_45 
REMARK   19  A    between atoms: C14_44  and  N7_47 
REMARK   20  A    between atoms: N7_47  and  N8_48 
ROOT
HETATM    1  N5  UNL     1       0.086   2.708  38.776  1.00  0.00    -0.207 N 
HETATM    2  C5  UNL     1       1.536   2.687  38.516  1.00  0.00     0.285 C 
HETATM    3  C12 UNL     1       1.641   4.123  38.998  1.00  0.00     0.192 C 
HETATM    4  N6  UNL     1       0.313   3.864  39.488  1.00  0.00    -0.152 NA
ENDROOT
BRANCH   1   5
HETATM    5  N4  UNL     1      -0.894   1.817  38.345  1.00  0.00    -0.195 N 
HETATM    6  C1  UNL     1      -1.882   2.067  37.430  1.00  0.00     0.183 A 
HETATM    7  C2  UNL     1      -2.657   0.943  37.267  1.00  0.00     0.151 A 
HETATM    8  C3  UNL     1      -2.144  -0.043  38.099  1.00  0.00     0.156 A 
HETATM    9  C4  UNL     1      -1.067   0.530  38.742  1.00  0.00     0.201 A 
BRANCH   6  10
HETATM   10  N3  UNL     1      -2.013   3.349  36.791  1.00  0.00    -0.267 N 
HETATM   11  N2  UNL     1      -3.017   4.046  37.139  1.00  0.00    -0.248 N 
ATOM     12  H2  UNL     1      -3.645   3.649  37.836  1.00  0.00     0.207 HD
ATOM     13  H3  UNL     1      -1.339   3.679  36.100  1.00  0.00     0.190 HD
BRANCH  11  14
HETATM   14  N1  UNL     1      -3.326   5.302  36.646  1.00  0.00    -0.331 N 
ATOM     15  H12 UNL     1      -2.858   5.575  35.782  1.00  0.00     0.178 HD
ATOM     16  H11 UNL     1      -3.974   5.960  37.077  1.00  0.00     0.178 HD
ENDBRANCH  11  14
ENDBRANCH   6  10
BRANCH   7  17
HETATM   17  O1  UNL     1      -3.732   0.840  36.429  1.00  0.00    -0.355 OA
ATOM     18  H1  UNL     1      -3.748   0.355  35.613  1.00  0.00     0.218 HD
ENDBRANCH   7  17
BRANCH   8  19
HETATM   19  O2  UNL     1      -2.628  -1.353  38.251  1.00  0.00    -0.354 OA
ATOM     20  H2  UNL     1      -3.458  -1.613  38.631  1.00  0.00     0.218 HD
ENDBRANCH   8  19
BRANCH   9  21
HETATM   21  O3  UNL     1      -0.321  -0.201  39.661  1.00  0.00    -0.343 OA
ATOM     22  H3  UNL     1       0.055   0.222  40.423  1.00  0.00     0.219 HD
ENDBRANCH   9  21
ENDBRANCH   1   5
BRANCH   2  23
HETATM   23  O4  UNL     1       1.766   2.492  37.181  1.00  0.00    -0.329 OA
BRANCH  23  24
HETATM   24  C6  UNL     1       1.858   3.693  36.475  1.00  0.00     0.294 C 
HETATM   25  O5  UNL     1       0.741   3.772  35.689  1.00  0.00    -0.348 OA
HETATM   26  C7  UNL     1       0.829   3.297  34.422  1.00  0.00     0.179 C 
HETATM   27  C9  UNL     1       1.998   3.677  33.620  1.00  0.00     0.180 C 
HETATM   28  C10 UNL     1       3.015   4.446  34.425  1.00  0.00     0.183 C 
HETATM   29  C11 UNL     1       3.157   3.704  35.731  1.00  0.00     0.204 C 
BRANCH  26  30
HETATM   30  C8  UNL     1      -0.446   3.630  33.677  1.00  0.00     0.198 C 
BRANCH  30  31
HETATM   31  O6  UNL     1      -1.165   4.548  34.410  1.00  0.00    -0.398 OA
ATOM     32  H6  UNL     1      -2.062   4.246  34.488  1.00  0.00     0.209 HD
ENDBRANCH  30  31
ENDBRANCH  26  30
BRANCH  27  33
HETATM   33  O7  UNL     1       2.625   2.541  33.103  1.00  0.00    -0.390 OA
ATOM     34  H7  UNL     1       3.113   2.760  32.318  1.00  0.00     0.210 HD
ENDBRANCH  27  33
BRANCH  28  35
HETATM   35  O8  UNL     1       4.222   4.423  33.720  1.00  0.00    -0.390 OA
ATOM     36  H8  UNL     1       4.881   4.041  34.288  1.00  0.00     0.210 HD
ENDBRANCH  28  35
BRANCH  29  37
HETATM   37  O9  UNL     1       3.546   2.396  35.472  1.00  0.00    -0.388 OA
ATOM     38  H9  UNL     1       3.009   2.043  34.773  1.00  0.00     0.210 HD
ENDBRANCH  29  37
ENDBRANCH  23  24
ENDBRANCH   2  23
BRANCH   4  39
HETATM   39  C14 UNL     1      -0.611   4.946  39.391  1.00  0.00     0.331 C 
BRANCH  39  40
HETATM   40  O12 UNL     1      -0.702   5.442  38.092  1.00  0.00    -0.364 OA
ATOM     41  H12 UNL     1      -0.766   6.390  38.075  1.00  0.00     0.213 HD
ENDBRANCH  39  40
BRANCH  39  42
HETATM   42  N7  UNL     1      -1.960   4.553  39.790  1.00  0.00    -0.098 NA
BRANCH  42  43
HETATM   43  N8  UNL     1      -1.910   4.180  41.131  1.00  0.00    -0.345 N 
ATOM     44  H82 UNL     1      -1.162   4.417  41.784  1.00  0.00     0.172 HD
ATOM     45  H81 UNL     1      -2.749   3.635  41.331  1.00  0.00     0.172 HD
ENDBRANCH  42  43
ENDBRANCH  39  42
ENDBRANCH   4  39
BRANCH   3  46
HETATM   46  C13 UNL     1       2.643   4.316  40.092  1.00  0.00     0.277 C 
BRANCH  46  47
HETATM   47  O10 UNL     1       2.622   5.640  40.531  1.00  0.00    -0.370 OA
ATOM     48  H10 UNL     1       2.418   5.673  41.458  1.00  0.00     0.212 HD
ENDBRANCH  46  47
BRANCH  46  49
HETATM   49  O11 UNL     1       2.369   3.479  41.197  1.00  0.00    -0.370 OA
ATOM     50  H11 UNL     1       2.919   3.695  41.941  1.00  0.00     0.212 HD
ENDBRANCH  46  49
ENDBRANCH   3  46
TORSDOF 20
ENDMDL
MODEL 2
REMARK VINA RESULT: -6.194657928      2.541      4.326
REMARK  20 active torsions:
REMARK  status: ('A' for Active; 'I' for Inactive)
REMARK    1  A    between atoms: N1_1  and  N2_4 
REMARK    2  A    between atoms: N3_6  and  C1_8 
REMARK    3  A    between atoms: C2_9  and  O1_10 
REMARK    4  A    between atoms: C3_12  and  O2_13 
REMARK    5  A    between atoms: C4_15  and  O3_16 
REMARK    6  A    between atoms: N4_18  and  N5_19 
REMARK    7  A    between atoms: C5_20  and  O4_21 
REMARK    8  A    between atoms: O4_21  and  C6_22 
REMARK    9  A    between atoms: C7_24  and  C8_25 
REMARK   10  A    between atoms: C8_25  and  O6_26 
REMARK   11  A    between atoms: C9_28  and  O7_29 
REMARK   12  A    between atoms: C10_31  and  O8_32 
REMARK   13  A    between atoms: C11_34  and  O9_35 
REMARK   14  A    between atoms: C12_37  and  C13_38 
REMARK   15  A    between atoms: C13_38  and  O10_39 
REMARK   16  A    between atoms: C13_38  and  O11_41 
REMARK   17  A    between atoms: N6_43  and  C14_44 
REMARK   18  A    between atoms: C14_44  and  O12_45 
REMARK   19  A    between atoms: C14_44  and  N7_47 
REMARK   20  A    between atoms: N7_47  and  N8_48 
ROOT
HETATM    1  N5  UNL     1       1.073   1.876  39.137  1.00  0.00    -0.207 N 
HETATM    2  C5  UNL     1       0.566   2.616  37.968  1.00  0.00     0.285 C 
HETATM    3  C12 UNL     1      -0.127   3.599  38.894  1.00  0.00     0.192 C 
HETATM    4  N6  UNL     1       0.701   2.968  39.887  1.00  0.00    -0.152 NA
ENDROOT
BRANCH   1   5
HETATM    5  N4  UNL     1       1.630   0.600  39.191  1.00  0.00    -0.195 N 
HETATM    6  C1  UNL     1       2.720   0.153  38.494  1.00  0.00     0.183 A 
HETATM    7  C2  UNL     1       2.965  -1.163  38.811  1.00  0.00     0.151 A 
HETATM    8  C3  UNL     1       2.004  -1.555  39.734  1.00  0.00     0.156 A 
HETATM    9  C4  UNL     1       1.206  -0.450  39.940  1.00  0.00     0.201 A 
BRANCH   6  10
HETATM   10  N3  UNL     1       3.436   1.005  37.583  1.00  0.00    -0.267 N 
HETATM   11  N2  UNL     1       3.741   0.492  36.460  1.00  0.00    -0.248 N 
ATOM     12  H2  UNL     1       3.457  -0.473  36.293  1.00  0.00     0.207 HD
ATOM     13  H3  UNL     1       3.685   1.965  37.823  1.00  0.00     0.190 HD
BRANCH  11  14
HETATM   14  N1  UNL     1       4.427   1.138  35.447  1.00  0.00    -0.331 N 
ATOM     15  H12 UNL     1       4.443   2.157  35.492  1.00  0.00     0.178 HD
ATOM     16  H11 UNL     1       4.907   0.677  34.675  1.00  0.00     0.178 HD
ENDBRANCH  11  14
ENDBRANCH   6  10
BRANCH   7  17
HETATM   17  O1  UNL     1       3.978  -1.924  38.298  1.00  0.00    -0.355 OA
ATOM     18  H1  UNL     1       3.866  -2.676  37.729  1.00  0.00     0.218 HD
ENDBRANCH   7  17
BRANCH   8  19
HETATM   19  O2  UNL     1       1.877  -2.821  40.330  1.00  0.00    -0.354 OA
ATOM     20  H2  UNL     1       1.178  -3.114  40.902  1.00  0.00     0.218 HD
ENDBRANCH   8  19
BRANCH   9  21
HETATM   21  O3  UNL     1       0.132  -0.509  40.821  1.00  0.00    -0.343 OA
ATOM     22  H3  UNL     1      -0.314   0.285  41.092  1.00  0.00     0.219 HD
ENDBRANCH   9  21
ENDBRANCH   1   5
BRANCH   2  23
HETATM   23  O4  UNL     1      -0.262   1.812  37.231  1.00  0.00    -0.329 OA
BRANCH  23  24
HETATM   24  C6  UNL     1       0.150   1.697  35.903  1.00  0.00     0.294 C 
HETATM   25  O5  UNL     1       1.366   2.317  35.814  1.00  0.00    -0.348 OA
HETATM   26  C7  UNL     1       1.380   3.625  35.456  1.00  0.00     0.179 C 
HETATM   27  C9  UNL     1       0.556   4.038  34.314  1.00  0.00     0.180 C 
HETATM   28  C10 UNL     1      -0.313   2.916  33.804  1.00  0.00     0.183 C 
HETATM   29  C11 UNL     1      -0.918   2.272  35.026  1.00  0.00     0.204 C 
BRANCH  26  30
HETATM   30  C8  UNL     1       2.813   4.069  35.254  1.00  0.00     0.198 C 
BRANCH  30  31
HETATM   31  O6  UNL     1       3.546   3.736  36.371  1.00  0.00    -0.398 OA
ATOM     32  H6  UNL     1       3.381   4.378  37.051  1.00  0.00     0.209 HD
ENDBRANCH  30  31
ENDBRANCH  26  30
BRANCH  27  33
HETATM   33  O7  UNL     1      -0.276   5.101  34.673  1.00  0.00    -0.390 OA
ATOM     34  H7  UNL     1      -0.095   5.861  34.132  1.00  0.00     0.210 HD
ENDBRANCH  27  33
BRANCH  28  35
HETATM   35  O8  UNL     1      -1.314   3.482  33.007  1.00  0.00    -0.390 OA
ATOM     36  H8  UNL     1      -1.604   2.818  32.393  1.00  0.00     0.210 HD
ENDBRANCH  28  35
BRANCH  29  37
HETATM   37  O9  UNL     1      -1.629   3.228  35.740  1.00  0.00    -0.388 OA
ATOM     38  H9  UNL     1      -1.859   2.874  36.592  1.00  0.00     0.210 HD
ENDBRANCH  29  37
ENDBRANCH  23  24
ENDBRANCH   2  23
BRANCH   4  39
HETATM   39  C14 UNL     1       0.103   2.775  41.168  1.00  0.00     0.331 C 
BRANCH  39  40
HETATM   40  O12 UNL     1       0.994   2.216  42.083  1.00  0.00    -0.364 OA
ATOM     41  H12 UNL     1       0.550   1.695  42.742  1.00  0.00     0.213 HD
ENDBRANCH  39  40
BRANCH  39  42
HETATM   42  N7  UNL     1      -0.369   4.030  41.748  1.00  0.00    -0.098 NA
BRANCH  42  43
HETATM   43  N8  UNL     1      -1.760   3.973  41.800  1.00  0.00    -0.345 N 
ATOM     44  H82 UNL     1      -2.358   3.504  41.119  1.00  0.00     0.172 HD
ATOM     45  H81 UNL     1      -2.058   4.479  42.633  1.00  0.00     0.172 HD
ENDBRANCH  42  43
ENDBRANCH  39  42
ENDBRANCH   4  39
BRANCH   3  46
HETATM   46  C13 UNL     1       0.245   5.026  38.640  1.00  0.00     0.277 C 
BRANCH  46  47
HETATM   47  O10 UNL     1      -0.454   5.514  37.537  1.00  0.00    -0.370 OA
ATOM     48  H10 UNL     1      -0.617   6.444  37.639  1.00  0.00     0.212 HD
ENDBRANCH  46  47
BRANCH  46  49
HETATM   49  O11 UNL     1      -0.056   5.843  39.752  1.00  0.00    -0.370 OA
ATOM     50  H11 UNL     1      -0.376   6.696  39.480  1.00  0.00     0.212 HD
ENDBRANCH  46  49
ENDBRANCH   3  46
TORSDOF 20
ENDMDL
MODEL 3
REMARK VINA RESULT: -6.176908369      1.644      2.418
REMARK  20 active torsions:
REMARK  status: ('A' for Active; 'I' for Inactive)
REMARK    1  A    between atoms: N1_1  and  N2_4 
REMARK    2  A    between atoms: N3_6  and  C1_8 
REMARK    3  A    between atoms: C2_9  and  O1_10 
REMARK    4  A    between atoms: C3_12  and  O2_13 
REMARK    5  A    between atoms: C4_15  and  O3_16 
REMARK    6  A    between atoms: N4_18  and  N5_19 
REMARK    7  A    between atoms: C5_20  and  O4_21 
REMARK    8  A    between atoms: O4_21  and  C6_22 
REMARK    9  A    between atoms: C7_24  and  C8_25 
REMARK   10  A    between atoms: C8_25  and  O6_26 
REMARK   11  A    between atoms: C9_28  and  O7_29 
REMARK   12  A    between atoms: C10_31  and  O8_32 
REMARK   13  A    between atoms: C11_34  and  O9_35 
REMARK   14  A    between atoms: C12_37  and  C13_38 
REMARK   15  A    between atoms: C13_38  and  O10_39 
REMARK   16  A    between atoms: C13_38  and  O11_41 
REMARK   17  A    between atoms: N6_43  and  C14_44 
REMARK   18  A    between atoms: C14_44  and  O12_45 
REMARK   19  A    between atoms: C14_44  and  N7_47 
REMARK   20  A    between atoms: N7_47  and  N8_48 
ROOT
HETATM    1  N5  UNL     1      -0.523   2.835  38.679  1.00  0.00    -0.207 N 
HETATM    2  C5  UNL     1       0.902   2.738  38.320  1.00  0.00     0.285 C 
HETATM    3  C12 UNL     1       1.111   4.173  38.768  1.00  0.00     0.192 C 
HETATM    4  N6  UNL     1      -0.190   3.988  39.354  1.00  0.00    -0.152 NA
ENDROOT
BRANCH   1   5
HETATM    5  N4  UNL     1      -1.573   1.989  38.332  1.00  0.00    -0.195 N 
HETATM    6  C1  UNL     1      -2.189   1.907  37.112  1.00  0.00     0.183 A 
HETATM    7  C2  UNL     1      -3.183   0.958  37.157  1.00  0.00     0.151 A 
HETATM    8  C3  UNL     1      -3.194   0.425  38.439  1.00  0.00     0.156 A 
HETATM    9  C4  UNL     1      -2.196   1.082  39.127  1.00  0.00     0.201 A 
BRANCH   6  10
HETATM   10  N3  UNL     1      -1.790   2.737  36.007  1.00  0.00    -0.267 N 
HETATM   11  N2  UNL     1      -1.327   2.130  34.990  1.00  0.00    -0.248 N 
ATOM     12  H2  UNL     1      -1.275   1.112  35.035  1.00  0.00     0.207 HD
ATOM     13  H3  UNL     1      -1.875   3.753  36.036  1.00  0.00     0.190 HD
BRANCH  11  14
HETATM   14  N1  UNL     1      -0.888   2.739  33.829  1.00  0.00    -0.331 N 
ATOM     15  H12 UNL     1      -0.881   3.758  33.828  1.00  0.00     0.178 HD
ATOM     16  H11 UNL     1      -0.576   2.250  32.990  1.00  0.00     0.178 HD
ENDBRANCH  11  14
ENDBRANCH   6  10
BRANCH   7  17
HETATM   17  O1  UNL     1      -3.998   0.617  36.113  1.00  0.00    -0.355 OA
ATOM     18  H1  UNL     1      -4.761   1.107  35.829  1.00  0.00     0.218 HD
ENDBRANCH   7  17
BRANCH   8  19
HETATM   19  O2  UNL     1      -4.049  -0.577  38.928  1.00  0.00    -0.354 OA
ATOM     20  H2  UNL     1      -4.075  -1.486  38.656  1.00  0.00     0.218 HD
ENDBRANCH   8  19
BRANCH   9  21
HETATM   21  O3  UNL     1      -1.941   0.780  40.461  1.00  0.00    -0.343 OA
ATOM     22  H3  UNL     1      -1.052   0.790  40.797  1.00  0.00     0.219 HD
ENDBRANCH   9  21
ENDBRANCH   1   5
BRANCH   2  23
HETATM   23  O4  UNL     1       1.028   2.513  36.975  1.00  0.00    -0.329 OA
BRANCH  23  24
HETATM   24  C6  UNL     1       2.336   2.189  36.609  1.00  0.00     0.294 C 
HETATM   25  O5  UNL     1       2.809   3.241  35.874  1.00  0.00    -0.348 OA
HETATM   26  C7  UNL     1       2.671   3.179  34.527  1.00  0.00     0.179 C 
HETATM   27  C9  UNL     1       3.036   1.928  33.850  1.00  0.00     0.180 C 
HETATM   28  C10 UNL     1       3.381   0.833  34.827  1.00  0.00     0.183 C 
HETATM   29  C11 UNL     1       2.313   0.875  35.892  1.00  0.00     0.204 C 
BRANCH  26  30
HETATM   30  C8  UNL     1       3.403   4.346  33.898  1.00  0.00     0.198 C 
BRANCH  30  31
HETATM   31  O6  UNL     1       4.756   4.089  33.921  1.00  0.00    -0.398 OA
ATOM     32  H6  UNL     1       5.094   4.140  33.035  1.00  0.00     0.209 HD
ENDBRANCH  30  31
ENDBRANCH  26  30
BRANCH  27  33
HETATM   33  O7  UNL     1       1.981   1.481  33.052  1.00  0.00    -0.390 OA
ATOM     34  H7  UNL     1       1.229   1.263  33.588  1.00  0.00     0.210 HD
ENDBRANCH  27  33
BRANCH  28  35
HETATM   35  O8  UNL     1       3.330  -0.383  34.138  1.00  0.00    -0.390 OA
ATOM     36  H8  UNL     1       2.625  -0.898  34.512  1.00  0.00     0.210 HD
ENDBRANCH  28  35
BRANCH  29  37
HETATM   37  O9  UNL     1       1.069   0.702  35.297  1.00  0.00    -0.388 OA
ATOM     38  H9  UNL     1       1.144   0.862  34.364  1.00  0.00     0.210 HD
ENDBRANCH  29  37
ENDBRANCH  23  24
ENDBRANCH   2  23
BRANCH   4  39
HETATM   39  C14 UNL     1      -1.065   5.114  39.302  1.00  0.00     0.331 C 
BRANCH  39  40
HETATM   40  O12 UNL     1      -0.477   6.258  39.839  1.00  0.00    -0.364 OA
ATOM     41  H12 UNL     1      -1.017   6.654  40.513  1.00  0.00     0.213 HD
ENDBRANCH  39  40
BRANCH  39  42
HETATM   42  N7  UNL     1      -1.458   5.440  37.934  1.00  0.00    -0.098 NA
BRANCH  42  43
HETATM   43  N8  UNL     1      -2.843   5.587  37.918  1.00  0.00    -0.345 N 
ATOM     44  H82 UNL     1      -3.475   5.320  38.673  1.00  0.00     0.172 HD
ATOM     45  H81 UNL     1      -3.098   6.004  37.022  1.00  0.00     0.172 HD
ENDBRANCH  42  43
ENDBRANCH  39  42
ENDBRANCH   4  39
BRANCH   3  46
HETATM   46  C13 UNL     1       2.195   4.331  39.787  1.00  0.00     0.277 C 
BRANCH  46  47
HETATM   47  O10 UNL     1       3.425   4.509  39.153  1.00  0.00    -0.370 OA
ATOM     48  H10 UNL     1       4.039   4.927  39.746  1.00  0.00     0.212 HD
ENDBRANCH  46  47
BRANCH  46  49
HETATM   49  O11 UNL     1       1.961   5.446  40.622  1.00  0.00    -0.370 OA
ATOM     50  H11 UNL     1       2.774   5.874  40.866  1.00  0.00     0.212 HD
ENDBRANCH  46  49
ENDBRANCH   3  46
TORSDOF 20
ENDMDL
MODEL 4
REMARK VINA RESULT: -6.115242578      1.228      2.563
REMARK  20 active torsions:
REMARK  status: ('A' for Active; 'I' for Inactive)
REMARK    1  A    between atoms: N1_1  and  N2_4 
REMARK    2  A    between atoms: N3_6  and  C1_8 
REMARK    3  A    between atoms: C2_9  and  O1_10 
REMARK    4  A    between atoms: C3_12  and  O2_13 
REMARK    5  A    between atoms: C4_15  and  O3_16 
REMARK    6  A    between atoms: N4_18  and  N5_19 
REMARK    7  A    between atoms: C5_20  and  O4_21 
REMARK    8  A    between atoms: O4_21  and  C6_22 
REMARK    9  A    between atoms: C7_24  and  C8_25 
REMARK   10  A    between atoms: C8_25  and  O6_26 
REMARK   11  A    between atoms: C9_28  and  O7_29 
REMARK   12  A    between atoms: C10_31  and  O8_32 
REMARK   13  A    between atoms: C11_34  and  O9_35 
REMARK   14  A    between atoms: C12_37  and  C13_38 
REMARK   15  A    between atoms: C13_38  and  O10_39 
REMARK   16  A    between atoms: C13_38  and  O11_41 
REMARK   17  A    between atoms: N6_43  and  C14_44 
REMARK   18  A    between atoms: C14_44  and  O12_45 
REMARK   19  A    between atoms: C14_44  and  N7_47 
REMARK   20  A    between atoms: N7_47  and  N8_48 
ROOT
HETATM    1  N5  UNL     1       0.010   2.878  38.581  1.00  0.00    -0.207 N 
HETATM    2  C5  UNL     1       1.481   2.823  38.518  1.00  0.00     0.285 C 
HETATM    3  C12 UNL     1       1.549   4.295  38.883  1.00  0.00     0.192 C 
HETATM    4  N6  UNL     1       0.164   4.091  39.214  1.00  0.00    -0.152 NA
ENDROOT
BRANCH   1   5
HETATM    5  N4  UNL     1      -0.922   1.960  38.102  1.00  0.00    -0.195 N 
HETATM    6  C1  UNL     1      -1.092   0.669  38.527  1.00  0.00     0.183 A 
HETATM    7  C2  UNL     1      -2.108   0.077  37.815  1.00  0.00     0.151 A 
HETATM    8  C3  UNL     1      -2.593   1.020  36.917  1.00  0.00     0.156 A 
HETATM    9  C4  UNL     1      -1.841   2.157  37.124  1.00  0.00     0.201 A 
BRANCH   6  10
HETATM   10  N3  UNL     1      -0.277   0.103  39.567  1.00  0.00    -0.267 N 
HETATM   11  N2  UNL     1       0.286  -1.005  39.296  1.00  0.00    -0.248 N 
ATOM     12  H2  UNL     1       0.119  -1.401  38.372  1.00  0.00     0.207 HD
ATOM     13  H3  UNL     1      -0.157   0.562  40.471  1.00  0.00     0.190 HD
BRANCH  11  14
HETATM   14  N1  UNL     1       1.107  -1.714  40.154  1.00  0.00    -0.331 N 
ATOM     15  H12 UNL     1       1.762  -1.164  40.710  1.00  0.00     0.178 HD
ATOM     16  H11 UNL     1       1.104  -2.727  40.268  1.00  0.00     0.178 HD
ENDBRANCH  11  14
ENDBRANCH   6  10
BRANCH   7  17
HETATM   17  O1  UNL     1      -2.544  -1.208  37.980  1.00  0.00    -0.355 OA
ATOM     18  H1  UNL     1      -2.946  -1.554  38.767  1.00  0.00     0.218 HD
ENDBRANCH   7  17
BRANCH   8  19
HETATM   19  O2  UNL     1      -3.635   0.844  35.991  1.00  0.00    -0.354 OA
ATOM     20  H2  UNL     1      -3.552   0.572  35.085  1.00  0.00     0.218 HD
ENDBRANCH   8  19
BRANCH   9  21
HETATM   21  O3  UNL     1      -2.076   3.304  36.372  1.00  0.00    -0.343 OA
ATOM     22  H3  UNL     1      -1.404   3.971  36.287  1.00  0.00     0.219 HD
ENDBRANCH   9  21
ENDBRANCH   1   5
BRANCH   2  23
HETATM   23  O4  UNL     1       1.881   2.510  37.247  1.00  0.00    -0.329 OA
BRANCH  23  24
HETATM   24  C6  UNL     1       1.912   3.624  36.407  1.00  0.00     0.294 C 
HETATM   25  O5  UNL     1       0.850   3.502  35.554  1.00  0.00    -0.348 OA
HETATM   26  C7  UNL     1       1.069   2.895  34.361  1.00  0.00     0.179 C 
HETATM   27  C9  UNL     1       2.253   3.295  33.588  1.00  0.00     0.180 C 
HETATM   28  C10 UNL     1       3.136   4.248  34.353  1.00  0.00     0.183 C 
HETATM   29  C11 UNL     1       3.253   3.679  35.745  1.00  0.00     0.204 C 
BRANCH  26  30
HETATM   30  C8  UNL     1      -0.175   3.013  33.508  1.00  0.00     0.198 C 
BRANCH  30  31
HETATM   31  O6  UNL     1      -0.811   4.198  33.805  1.00  0.00    -0.398 OA
ATOM     32  H6  UNL     1      -0.275   4.920  33.500  1.00  0.00     0.209 HD
ENDBRANCH  30  31
ENDBRANCH  26  30
BRANCH  27  33
HETATM   33  O7  UNL     1       3.015   2.174  33.251  1.00  0.00    -0.390 OA
ATOM     34  H7  UNL     1       3.070   2.083  32.307  1.00  0.00     0.210 HD
ENDBRANCH  27  33
BRANCH  28  35
HETATM   35  O8  UNL     1       4.387   4.263  33.728  1.00  0.00    -0.390 OA
ATOM     36  H8  UNL     1       4.968   4.796  34.258  1.00  0.00     0.210 HD
ENDBRANCH  28  35
BRANCH  29  37
HETATM   37  O9  UNL     1       3.777   2.394  35.670  1.00  0.00    -0.388 OA
ATOM     38  H9  UNL     1       4.722   2.447  35.577  1.00  0.00     0.210 HD
ENDBRANCH  29  37
ENDBRANCH  23  24
ENDBRANCH   2  23
BRANCH   4  39
HETATM   39  C14 UNL     1      -0.719   5.168  38.902  1.00  0.00     0.331 C 
BRANCH  39  40
HETATM   40  O12 UNL     1      -0.748   5.441  37.536  1.00  0.00    -0.364 OA
ATOM     41  H12 UNL     1      -1.086   4.710  37.032  1.00  0.00     0.213 HD
ENDBRANCH  39  40
BRANCH  39  42
HETATM   42  N7  UNL     1      -2.093   4.885  39.308  1.00  0.00    -0.098 NA
BRANCH  42  43
HETATM   43  N8  UNL     1      -2.935   5.373  38.312  1.00  0.00    -0.345 N 
ATOM     44  H82 UNL     1      -2.660   6.012  37.566  1.00  0.00     0.172 HD
ATOM     45  H81 UNL     1      -3.862   4.976  38.469  1.00  0.00     0.172 HD
ENDBRANCH  42  43
ENDBRANCH  39  42
ENDBRANCH   4  39
BRANCH   3  46
HETATM   46  C13 UNL     1       2.402   4.577  40.080  1.00  0.00     0.277 C 
BRANCH  46  47
HETATM   47  O10 UNL     1       3.656   5.034  39.676  1.00  0.00    -0.370 OA
ATOM     48  H10 UNL     1       4.165   5.301  40.433  1.00  0.00     0.212 HD
ENDBRANCH  46  47
BRANCH  46  49
HETATM   49  O11 UNL     1       1.819   5.561  40.910  1.00  0.00    -0.370 OA
ATOM     50  H11 UNL     1       2.410   5.822  41.606  1.00  0.00     0.212 HD
ENDBRANCH  46  49
ENDBRANCH   3  46
TORSDOF 20
ENDMDL
MODEL 5
REMARK VINA RESULT: -6.087132803      1.374      2.529
REMARK  20 active torsions:
REMARK  status: ('A' for Active; 'I' for Inactive)
REMARK    1  A    between atoms: N1_1  and  N2_4 
REMARK    2  A    between atoms: N3_6  and  C1_8 
REMARK    3  A    between atoms: C2_9  and  O1_10 
REMARK    4  A    between atoms: C3_12  and  O2_13 
REMARK    5  A    between atoms: C4_15  and  O3_16 
REMARK    6  A    between atoms: N4_18  and  N5_19 
REMARK    7  A    between atoms: C5_20  and  O4_21 
REMARK    8  A    between atoms: O4_21  and  C6_22 
REMARK    9  A    between atoms: C7_24  and  C8_25 
REMARK   10  A    between atoms: C8_25  and  O6_26 
REMARK   11  A    between atoms: C9_28  and  O7_29 
REMARK   12  A    between atoms: C10_31  and  O8_32 
REMARK   13  A    between atoms: C11_34  and  O9_35 
REMARK   14  A    between atoms: C12_37  and  C13_38 
REMARK   15  A    between atoms: C13_38  and  O10_39 
REMARK   16  A    between atoms: C13_38  and  O11_41 
REMARK   17  A    between atoms: N6_43  and  C14_44 
REMARK   18  A    between atoms: C14_44  and  O12_45 
REMARK   19  A    between atoms: C14_44  and  N7_47 
REMARK   20  A    between atoms: N7_47  and  N8_48 
ROOT
HETATM    1  N5  UNL     1      -0.209   2.793  38.760  1.00  0.00    -0.207 N 
HETATM    2  C5  UNL     1       1.243   2.777  38.513  1.00  0.00     0.285 C 
HETATM    3  C12 UNL     1       1.323   4.243  38.897  1.00  0.00     0.192 C 
HETATM    4  N6  UNL     1      -0.005   3.998  39.394  1.00  0.00    -0.152 NA
ENDROOT
BRANCH   1   5
HETATM    5  N4  UNL     1      -1.172   1.861  38.383  1.00  0.00    -0.195 N 
HETATM    6  C1  UNL     1      -1.494   0.704  39.041  1.00  0.00     0.183 A 
HETATM    7  C2  UNL     1      -2.491   0.045  38.361  1.00  0.00     0.151 A 
HETATM    8  C3  UNL     1      -2.808   0.807  37.245  1.00  0.00     0.156 A 
HETATM    9  C4  UNL     1      -1.980   1.909  37.293  1.00  0.00     0.201 A 
BRANCH   6  10
HETATM   10  N3  UNL     1      -0.827   0.315  40.255  1.00  0.00    -0.267 N 
HETATM   11  N2  UNL     1      -1.579  -0.059  41.210  1.00  0.00    -0.248 N 
ATOM     12  H2  UNL     1      -2.585  -0.057  41.044  1.00  0.00     0.207 HD
ATOM     13  H3  UNL     1       0.189   0.338  40.345  1.00  0.00     0.190 HD
BRANCH  11  14
HETATM   14  N1  UNL     1      -1.141  -0.470  42.456  1.00  0.00    -0.331 N 
ATOM     15  H12 UNL     1      -0.371  -1.139  42.466  1.00  0.00     0.178 HD
ATOM     16  H11 UNL     1      -1.525  -0.158  43.347  1.00  0.00     0.178 HD
ENDBRANCH  11  14
ENDBRANCH   6  10
BRANCH   7  17
HETATM   17  O1  UNL     1      -3.052  -1.143  38.737  1.00  0.00    -0.355 OA
ATOM     18  H1  UNL     1      -3.815  -1.541  38.336  1.00  0.00     0.218 HD
ENDBRANCH   7  17
BRANCH   8  19
HETATM   19  O2  UNL     1      -3.775   0.511  36.269  1.00  0.00    -0.354 OA
ATOM     20  H2  UNL     1      -4.480   1.076  35.975  1.00  0.00     0.218 HD
ENDBRANCH   8  19
BRANCH   9  21
HETATM   21  O3  UNL     1      -2.044   2.885  36.304  1.00  0.00    -0.343 OA
ATOM     22  H3  UNL     1      -1.604   2.757  35.471  1.00  0.00     0.219 HD
ENDBRANCH   9  21
ENDBRANCH   1   5
BRANCH   2  23
HETATM   23  O4  UNL     1       1.488   2.495  37.196  1.00  0.00    -0.329 OA
BRANCH  23  24
HETATM   24  C6  UNL     1       1.571   3.646  36.411  1.00  0.00     0.294 C 
HETATM   25  O5  UNL     1       0.569   3.563  35.485  1.00  0.00    -0.348 OA
HETATM   26  C7  UNL     1       0.868   3.011  34.283  1.00  0.00     0.179 C 
HETATM   27  C9  UNL     1       2.098   3.444  33.609  1.00  0.00     0.180 C 
HETATM   28  C10 UNL     1       2.926   4.362  34.473  1.00  0.00     0.183 C 
HETATM   29  C11 UNL     1       2.953   3.731  35.843  1.00  0.00     0.204 C 
BRANCH  26  30
HETATM   30  C8  UNL     1      -0.318   3.166  33.355  1.00  0.00     0.198 C 
BRANCH  30  31
HETATM   31  O6  UNL     1      -1.131   4.170  33.834  1.00  0.00    -0.398 OA
ATOM     32  H6  UNL     1      -1.544   3.877  34.637  1.00  0.00     0.209 HD
ENDBRANCH  30  31
ENDBRANCH  26  30
BRANCH  27  33
HETATM   33  O7  UNL     1       2.885   2.341  33.273  1.00  0.00    -0.390 OA
ATOM     34  H7  UNL     1       3.498   2.568  32.584  1.00  0.00     0.210 HD
ENDBRANCH  27  33
BRANCH  28  35
HETATM   35  O8  UNL     1       4.216   4.406  33.933  1.00  0.00    -0.390 OA
ATOM     36  H8  UNL     1       4.711   5.053  34.421  1.00  0.00     0.210 HD
ENDBRANCH  28  35
BRANCH  29  37
HETATM   37  O9  UNL     1       3.485   2.451  35.744  1.00  0.00    -0.388 OA
ATOM     38  H9  UNL     1       3.285   2.095  34.886  1.00  0.00     0.210 HD
ENDBRANCH  29  37
ENDBRANCH  23  24
ENDBRANCH   2  23
BRANCH   4  39
HETATM   39  C14 UNL     1      -0.944   5.058  39.216  1.00  0.00     0.331 C 
BRANCH  39  40
HETATM   40  O12 UNL     1      -0.474   6.266  39.728  1.00  0.00    -0.364 OA
ATOM     41  H12 UNL     1      -0.857   7.014  39.286  1.00  0.00     0.213 HD
ENDBRANCH  39  40
BRANCH  39  42
HETATM   42  N7  UNL     1      -1.253   5.286  37.807  1.00  0.00    -0.098 NA
BRANCH  42  43
HETATM   43  N8  UNL     1      -2.622   5.520  37.709  1.00  0.00    -0.345 N 
ATOM     44  H82 UNL     1      -3.052   6.365  37.330  1.00  0.00     0.172 HD
ATOM     45  H81 UNL     1      -3.103   4.702  38.082  1.00  0.00     0.172 HD
ENDBRANCH  42  43
ENDBRANCH  39  42
ENDBRANCH   4  39
BRANCH   3  46
HETATM   46  C13 UNL     1       2.313   4.525  39.983  1.00  0.00     0.277 C 
BRANCH  46  47
HETATM   47  O10 UNL     1       3.519   4.956  39.432  1.00  0.00    -0.370 OA
ATOM     48  H10 UNL     1       4.025   5.429  40.082  1.00  0.00     0.212 HD
ENDBRANCH  46  47
BRANCH  46  49
HETATM   49  O11 UNL     1       1.844   5.529  40.861  1.00  0.00    -0.370 OA
ATOM     50  H11 UNL     1       2.368   5.570  41.652  1.00  0.00     0.212 HD
ENDBRANCH  46  49
ENDBRANCH   3  46
TORSDOF 20
ENDMDL
