MODEL 1
REMARK VINA RESULT: -6.613791519      0.000      0.000
REMARK  19 active torsions:
REMARK  status: ('A' for Active; 'I' for Inactive)
REMARK    1  A    between atoms: N1_1  and  O1_4 
REMARK    2  A    between atoms: O1_4  and  C1_5 
REMARK    3  A    between atoms: C1_5  and  O2_6 
REMARK    4  A    between atoms: C1_5  and  N2_8 
REMARK    5  A    between atoms: N2_8  and  C2_10 
REMARK    6  A    between atoms: C3_11  and  C4_12 
REMARK    7  A    between atoms: C6_14  and  C7_15 
REMARK    8  A    between atoms: C7_15  and  O3_16 
REMARK    9  A    between atoms: C7_15  and  O4_18 
REMARK   10  A    between atoms: C8_21  and  N3_22 
REMARK   11  A    between atoms: N3_22  and  C9_24 
REMARK   12  A    between atoms: C10_25  and  O6_26 
REMARK   13  A    between atoms: C11_28  and  O7_29 
REMARK   14  A    between atoms: C12_31  and  O8_32 
REMARK   15  A    between atoms: C13_34  and  O9_35 
REMARK   16  A    between atoms: C14_37  and  O10_38 
REMARK   17  A    between atoms: C15_41  and  C16_42 
REMARK   18  A    between atoms: C16_42  and  N4_43 
REMARK   19  A    between atoms: C16_42  and  O12_47 
ROOT
HETATM    1  C4  UNL     1      -0.886   1.996  37.209  1.00  0.00     0.054 A 
HETATM    2  C5  UNL     1      -2.291   2.101  37.383  1.00  0.00     0.056 A 
HETATM    3  C6  UNL     1      -2.813   0.885  37.086  1.00  0.00     0.111 A 
HETATM    4  O5  UNL     1      -1.846   0.110  36.764  1.00  0.00    -0.292 OA
HETATM    5  C8  UNL     1      -0.660   0.724  36.816  1.00  0.00     0.157 A 
ENDROOT
BRANCH   1   6
HETATM    6  C3  UNL     1      -0.058   3.173  37.395  1.00  0.00     0.124 A 
HETATM    7  C2  UNL     1       0.016   4.280  36.615  1.00  0.00     0.136 A 
HETATM    8  C17 UNL     1       0.887   5.317  36.953  1.00  0.00     0.276 A 
HETATM    9  N5  UNL     1       1.642   5.210  38.037  1.00  0.00    -0.302 N 
HETATM   10  O13 UNL     1       0.956   6.337  36.243  1.00  0.00    -0.266 OA
HETATM   11  C15 UNL     1       1.563   4.111  38.796  1.00  0.00     0.183 A 
ATOM     12  H5  UNL     1       2.281   5.963  38.292  1.00  0.00     0.171 HD
HETATM   13  O11 UNL     1       0.757   3.170  38.473  1.00  0.00    -0.289 OA
BRANCH   7  14
HETATM   14  N2  UNL     1      -0.699   4.426  35.374  1.00  0.00    -0.334 N 
ATOM     15  H2  UNL     1      -1.518   5.032  35.328  1.00  0.00     0.164 HD
BRANCH  14  16
HETATM   16  C1  UNL     1      -0.258   3.715  34.188  1.00  0.00     0.394 C 
BRANCH  16  17
HETATM   17  O1  UNL     1       0.629   4.520  33.491  1.00  0.00    -0.234 OA
BRANCH  17  18
HETATM   18  N1  UNL     1       1.899   4.047  33.505  1.00  0.00    -0.306 N 
ATOM     19  H12 UNL     1       2.479   4.004  32.667  1.00  0.00     0.184 HD
ATOM     20  H11 UNL     1       2.202   3.744  34.430  1.00  0.00     0.184 HD
ENDBRANCH  17  18
ENDBRANCH  16  17
BRANCH  16  21
HETATM   21  O2  UNL     1      -1.309   3.390  33.367  1.00  0.00    -0.353 OA
ATOM     22  H2  UNL     1      -2.115   3.719  33.748  1.00  0.00     0.214 HD
ENDBRANCH  16  21
ENDBRANCH  14  16
ENDBRANCH   7  14
BRANCH  11  23
HETATM   23  C16 UNL     1       2.439   4.027  40.019  1.00  0.00     0.392 C 
BRANCH  23  24
HETATM   24  N4  UNL     1       1.850   3.132  40.991  1.00  0.00    -0.045 N 
ATOM     25  H43 UNL     1       1.151   3.601  41.568  1.00  0.00     0.277 HD
ATOM     26  H42 UNL     1       1.242   2.440  40.554  1.00  0.00     0.277 HD
ATOM     27  H41 UNL     1       2.581   2.697  41.554  1.00  0.00     0.277 HD
ENDBRANCH  23  24
BRANCH  23  28
HETATM   28  O12 UNL     1       2.582   5.320  40.566  1.00  0.00    -0.364 OA
ATOM     29  H12 UNL     1       2.653   5.246  41.511  1.00  0.00     0.212 HD
ENDBRANCH  23  28
ENDBRANCH  11  23
ENDBRANCH   1   6
BRANCH   5  30
HETATM   30  N3  UNL     1       0.567   0.086  36.481  1.00  0.00    -0.360 N 
ATOM     31  H3  UNL     1       0.852  -0.735  37.015  1.00  0.00     0.162 HD
BRANCH  30  32
HETATM   32  C9  UNL     1       1.424   0.551  35.421  1.00  0.00     0.146 C 
HETATM   33  C10 UNL     1       2.561   1.352  35.914  1.00  0.00     0.174 C 
HETATM   34  C11 UNL     1       3.885   1.143  35.252  1.00  0.00     0.180 C 
HETATM   35  C12 UNL     1       3.823   0.865  33.786  1.00  0.00     0.180 C 
HETATM   36  C13 UNL     1       2.588   0.118  33.360  1.00  0.00     0.180 C 
HETATM   37  C14 UNL     1       1.949  -0.589  34.570  1.00  0.00     0.174 C 
BRANCH  33  38
HETATM   38  O6  UNL     1       2.688   1.184  37.290  1.00  0.00    -0.391 OA
ATOM     39  H6  UNL     1       3.608   1.172  37.527  1.00  0.00     0.210 HD
ENDBRANCH  33  38
BRANCH  34  40
HETATM   40  O7  UNL     1       4.645   0.178  35.907  1.00  0.00    -0.390 OA
ATOM     41  H7  UNL     1       5.200   0.560  36.577  1.00  0.00     0.210 HD
ENDBRANCH  34  40
BRANCH  35  42
HETATM   42  O8  UNL     1       3.921   2.041  33.042  1.00  0.00    -0.390 OA
ATOM     43  H8  UNL     1       3.264   2.674  33.307  1.00  0.00     0.210 HD
ENDBRANCH  35  42
BRANCH  36  44
HETATM   44  O9  UNL     1       1.661   1.008  32.822  1.00  0.00    -0.390 OA
ATOM     45  H9  UNL     1       0.780   0.684  32.969  1.00  0.00     0.210 HD
ENDBRANCH  36  44
BRANCH  37  46
HETATM   46  O10 UNL     1       0.927  -1.377  34.059  1.00  0.00    -0.391 OA
ATOM     47  H10 UNL     1       0.256  -0.859  33.629  1.00  0.00     0.210 HD
ENDBRANCH  37  46
ENDBRANCH  30  32
ENDBRANCH   5  30
BRANCH   3  48
HETATM   48  C7  UNL     1      -4.251   0.468  37.115  1.00  0.00     0.312 C 
BRANCH  48  49
HETATM   49  O3  UNL     1      -5.020   1.449  36.491  1.00  0.00    -0.365 OA
ATOM     50  H3  UNL     1      -5.932   1.323  36.726  1.00  0.00     0.213 HD
ENDBRANCH  48  49
BRANCH  48  51
HETATM   51  O4  UNL     1      -4.338  -0.679  36.315  1.00  0.00    -0.365 OA
ATOM     52  H4  UNL     1      -4.807  -1.324  36.832  1.00  0.00     0.213 HD
ENDBRANCH  48  51
ENDBRANCH   3  48
TORSDOF 19
ENDMDL
MODEL 2
REMARK VINA RESULT: -6.429310777      2.013      3.734
REMARK  19 active torsions:
REMARK  status: ('A' for Active; 'I' for Inactive)
REMARK    1  A    between atoms: N1_1  and  O1_4 
REMARK    2  A    between atoms: O1_4  and  C1_5 
REMARK    3  A    between atoms: C1_5  and  O2_6 
REMARK    4  A    between atoms: C1_5  and  N2_8 
REMARK    5  A    between atoms: N2_8  and  C2_10 
REMARK    6  A    between atoms: C3_11  and  C4_12 
REMARK    7  A    between atoms: C6_14  and  C7_15 
REMARK    8  A    between atoms: C7_15  and  O3_16 
REMARK    9  A    between atoms: C7_15  and  O4_18 
REMARK   10  A    between atoms: C8_21  and  N3_22 
REMARK   11  A    between atoms: N3_22  and  C9_24 
REMARK   12  A    between atoms: C10_25  and  O6_26 
REMARK   13  A    between atoms: C11_28  and  O7_29 
REMARK   14  A    between atoms: C12_31  and  O8_32 
REMARK   15  A    between atoms: C13_34  and  O9_35 
REMARK   16  A    between atoms: C14_37  and  O10_38 
REMARK   17  A    between atoms: C15_41  and  C16_42 
REMARK   18  A    between atoms: C16_42  and  N4_43 
REMARK   19  A    between atoms: C16_42  and  O12_47 
ROOT
HETATM    1  C4  UNL     1      -1.273   2.170  37.748  1.00  0.00     0.054 A 
HETATM    2  C5  UNL     1      -2.424   1.787  38.483  1.00  0.00     0.056 A 
HETATM    3  C6  UNL     1      -3.436   1.665  37.588  1.00  0.00     0.111 A 
HETATM    4  O5  UNL     1      -2.970   1.942  36.428  1.00  0.00    -0.292 OA
HETATM    5  C8  UNL     1      -1.672   2.257  36.460  1.00  0.00     0.157 A 
ENDROOT
BRANCH   1   6
HETATM    6  C3  UNL     1      -0.035   2.441  38.456  1.00  0.00     0.124 A 
HETATM    7  C2  UNL     1       0.269   3.506  39.240  1.00  0.00     0.136 A 
HETATM    8  C17 UNL     1       1.527   3.598  39.837  1.00  0.00     0.276 A 
HETATM    9  N5  UNL     1       2.421   2.642  39.630  1.00  0.00    -0.302 N 
HETATM   10  O13 UNL     1       1.810   4.571  40.561  1.00  0.00    -0.266 OA
HETATM   11  C15 UNL     1       2.110   1.599  38.852  1.00  0.00     0.183 A 
ATOM     12  H5  UNL     1       3.343   2.701  40.063  1.00  0.00     0.171 HD
HETATM   13  O11 UNL     1       0.951   1.528  38.312  1.00  0.00    -0.289 OA
BRANCH   7  14
HETATM   14  N2  UNL     1      -0.613   4.627  39.432  1.00  0.00    -0.334 N 
ATOM     15  H2  UNL     1      -1.224   4.659  40.248  1.00  0.00     0.164 HD
BRANCH  14  16
HETATM   16  C1  UNL     1      -0.636   5.714  38.469  1.00  0.00     0.394 C 
BRANCH  16  17
HETATM   17  O1  UNL     1      -1.597   5.437  37.510  1.00  0.00    -0.234 OA
BRANCH  17  18
HETATM   18  N1  UNL     1      -2.864   5.565  37.974  1.00  0.00    -0.306 N 
ATOM     19  H12 UNL     1      -3.072   5.869  38.925  1.00  0.00     0.184 HD
ATOM     20  H11 UNL     1      -3.570   5.328  37.279  1.00  0.00     0.184 HD
ENDBRANCH  17  18
ENDBRANCH  16  17
BRANCH  16  21
HETATM   21  O2  UNL     1       0.580   5.877  37.854  1.00  0.00    -0.353 OA
ATOM     22  H2  UNL     1       1.227   6.125  38.503  1.00  0.00     0.214 HD
ENDBRANCH  16  21
ENDBRANCH  14  16
ENDBRANCH   7  14
BRANCH  11  23
HETATM   23  C16 UNL     1       3.156   0.535  38.640  1.00  0.00     0.392 C 
BRANCH  23  24
HETATM   24  N4  UNL     1       3.649   0.588  37.281  1.00  0.00    -0.045 N 
ATOM     25  H43 UNL     1       2.981   0.196  36.616  1.00  0.00     0.277 HD
ATOM     26  H42 UNL     1       3.676   1.541  36.920  1.00  0.00     0.277 HD
ATOM     27  H41 UNL     1       4.560   0.132  37.221  1.00  0.00     0.277 HD
ENDBRANCH  23  24
BRANCH  23  28
HETATM   28  O12 UNL     1       2.581  -0.726  38.904  1.00  0.00    -0.364 OA
ATOM     29  H12 UNL     1       3.129  -1.187  39.529  1.00  0.00     0.212 HD
ENDBRANCH  23  28
ENDBRANCH  11  23
ENDBRANCH   1   6
BRANCH   5  30
HETATM   30  N3  UNL     1      -0.927   2.626  35.306  1.00  0.00    -0.360 N 
ATOM     31  H3  UNL     1      -1.414   2.697  34.412  1.00  0.00     0.162 HD
BRANCH  30  32
HETATM   32  C9  UNL     1       0.485   2.905  35.345  1.00  0.00     0.146 C 
HETATM   33  C10 UNL     1       1.305   1.770  34.878  1.00  0.00     0.174 C 
HETATM   34  C11 UNL     1       2.497   2.087  34.034  1.00  0.00     0.180 C 
HETATM   35  C12 UNL     1       3.210   3.349  34.393  1.00  0.00     0.180 C 
HETATM   36  C13 UNL     1       2.308   4.422  34.940  1.00  0.00     0.180 C 
HETATM   37  C14 UNL     1       0.846   4.142  34.546  1.00  0.00     0.174 C 
BRANCH  33  38
HETATM   38  O6  UNL     1       0.494   0.846  34.225  1.00  0.00    -0.391 OA
ATOM     39  H6  UNL     1       0.928   0.002  34.200  1.00  0.00     0.210 HD
ENDBRANCH  33  38
BRANCH  34  40
HETATM   40  O7  UNL     1       2.192   2.060  32.676  1.00  0.00    -0.390 OA
ATOM     41  H7  UNL     1       2.886   1.658  32.166  1.00  0.00     0.210 HD
ENDBRANCH  34  40
BRANCH  35  42
HETATM   42  O8  UNL     1       4.237   3.109  35.306  1.00  0.00    -0.390 OA
ATOM     43  H8  UNL     1       5.017   3.606  35.089  1.00  0.00     0.210 HD
ENDBRANCH  35  42
BRANCH  36  44
HETATM   44  O9  UNL     1       2.399   4.450  36.331  1.00  0.00    -0.390 OA
ATOM     45  H9  UNL     1       1.706   3.920  36.708  1.00  0.00     0.210 HD
ENDBRANCH  36  44
BRANCH  37  46
HETATM   46  O10 UNL     1       0.120   5.255  34.946  1.00  0.00    -0.391 OA
ATOM     47  H10 UNL     1      -0.542   5.499  34.311  1.00  0.00     0.210 HD
ENDBRANCH  37  46
ENDBRANCH  30  32
ENDBRANCH   5  30
BRANCH   3  48
HETATM   48  C7  UNL     1      -4.858   1.279  37.853  1.00  0.00     0.312 C 
BRANCH  48  49
HETATM   49  O3  UNL     1      -5.354   2.061  38.896  1.00  0.00    -0.365 OA
ATOM     50  H3  UNL     1      -6.105   2.553  38.584  1.00  0.00     0.213 HD
ENDBRANCH  48  49
BRANCH  48  51
HETATM   51  O4  UNL     1      -5.577   1.638  36.706  1.00  0.00    -0.365 OA
ATOM     52  H4  UNL     1      -5.421   0.948  36.072  1.00  0.00     0.213 HD
ENDBRANCH  48  51
ENDBRANCH   3  48
TORSDOF 19
ENDMDL
MODEL 3
REMARK VINA RESULT: -6.337881134      3.304      6.594
REMARK  19 active torsions:
REMARK  status: ('A' for Active; 'I' for Inactive)
REMARK    1  A    between atoms: N1_1  and  O1_4 
REMARK    2  A    between atoms: O1_4  and  C1_5 
REMARK    3  A    between atoms: C1_5  and  O2_6 
REMARK    4  A    between atoms: C1_5  and  N2_8 
REMARK    5  A    between atoms: N2_8  and  C2_10 
REMARK    6  A    between atoms: C3_11  and  C4_12 
REMARK    7  A    between atoms: C6_14  and  C7_15 
REMARK    8  A    between atoms: C7_15  and  O3_16 
REMARK    9  A    between atoms: C7_15  and  O4_18 
REMARK   10  A    between atoms: C8_21  and  N3_22 
REMARK   11  A    between atoms: N3_22  and  C9_24 
REMARK   12  A    between atoms: C10_25  and  O6_26 
REMARK   13  A    between atoms: C11_28  and  O7_29 
REMARK   14  A    between atoms: C12_31  and  O8_32 
REMARK   15  A    between atoms: C13_34  and  O9_35 
REMARK   16  A    between atoms: C14_37  and  O10_38 
REMARK   17  A    between atoms: C15_41  and  C16_42 
REMARK   18  A    between atoms: C16_42  and  N4_43 
REMARK   19  A    between atoms: C16_42  and  O12_47 
ROOT
HETATM    1  C4  UNL     1       1.538   1.735  38.069  1.00  0.00     0.054 A 
HETATM    2  C5  UNL     1       1.986   0.404  37.866  1.00  0.00     0.056 A 
HETATM    3  C6  UNL     1       1.930  -0.214  39.072  1.00  0.00     0.111 A 
HETATM    4  O5  UNL     1       1.499   0.634  39.929  1.00  0.00    -0.292 OA
HETATM    5  C8  UNL     1       1.248   1.828  39.384  1.00  0.00     0.157 A 
ENDROOT
BRANCH   1   6
HETATM    6  C3  UNL     1       1.549   2.666  36.955  1.00  0.00     0.124 A 
HETATM    7  C2  UNL     1       0.607   3.581  36.615  1.00  0.00     0.136 A 
HETATM    8  C17 UNL     1       0.791   4.390  35.492  1.00  0.00     0.276 A 
HETATM    9  N5  UNL     1       1.888   4.256  34.762  1.00  0.00    -0.302 N 
HETATM   10  O13 UNL     1      -0.069   5.234  35.178  1.00  0.00    -0.266 OA
HETATM   11  C15 UNL     1       2.808   3.347  35.105  1.00  0.00     0.183 A 
ATOM     12  H5  UNL     1       2.031   4.843  33.940  1.00  0.00     0.171 HD
HETATM   13  O11 UNL     1       2.625   2.614  36.139  1.00  0.00    -0.289 OA
BRANCH   7  14
HETATM   14  N2  UNL     1      -0.651   3.717  37.301  1.00  0.00    -0.334 N 
ATOM     15  H2  UNL     1      -0.748   4.400  38.053  1.00  0.00     0.164 HD
BRANCH  14  16
HETATM   16  C1  UNL     1      -1.783   2.888  36.927  1.00  0.00     0.394 C 
BRANCH  16  17
HETATM   17  O1  UNL     1      -2.931   3.663  36.960  1.00  0.00    -0.234 OA
BRANCH  17  18
HETATM   18  N1  UNL     1      -2.684   4.966  37.240  1.00  0.00    -0.306 N 
ATOM     19  H12 UNL     1      -2.025   5.528  36.702  1.00  0.00     0.184 HD
ATOM     20  H11 UNL     1      -3.222   5.313  38.033  1.00  0.00     0.184 HD
ENDBRANCH  17  18
ENDBRANCH  16  17
BRANCH  16  21
HETATM   21  O2  UNL     1      -1.936   1.821  37.776  1.00  0.00    -0.353 OA
ATOM     22  H2  UNL     1      -2.398   1.126  37.323  1.00  0.00     0.214 HD
ENDBRANCH  16  21
ENDBRANCH  14  16
ENDBRANCH   7  14
BRANCH  11  23
HETATM   23  C16 UNL     1       4.041   3.224  34.247  1.00  0.00     0.392 C 
BRANCH  23  24
HETATM   24  N4  UNL     1       5.143   2.712  35.033  1.00  0.00    -0.045 N 
ATOM     25  H43 UNL     1       4.821   2.224  35.869  1.00  0.00     0.277 HD
ATOM     26  H42 UNL     1       5.608   1.930  34.573  1.00  0.00     0.277 HD
ATOM     27  H41 UNL     1       5.793   3.465  35.256  1.00  0.00     0.277 HD
ENDBRANCH  23  24
BRANCH  23  28
HETATM   28  O12 UNL     1       4.360   4.495  33.725  1.00  0.00    -0.364 OA
ATOM     29  H12 UNL     1       4.938   4.383  32.979  1.00  0.00     0.212 HD
ENDBRANCH  23  28
ENDBRANCH  11  23
ENDBRANCH   1   6
BRANCH   5  30
HETATM   30  N3  UNL     1       0.781   2.946  40.130  1.00  0.00    -0.360 N 
ATOM     31  H3  UNL     1       1.427   3.714  40.314  1.00  0.00     0.162 HD
BRANCH  30  32
HETATM   32  C9  UNL     1      -0.563   3.040  40.638  1.00  0.00     0.146 C 
HETATM   33  C10 UNL     1      -0.743   2.325  41.916  1.00  0.00     0.174 C 
HETATM   34  C11 UNL     1      -1.600   2.978  42.952  1.00  0.00     0.180 C 
HETATM   35  C12 UNL     1      -2.769   3.740  42.419  1.00  0.00     0.180 C 
HETATM   36  C13 UNL     1      -2.523   4.365  41.072  1.00  0.00     0.180 C 
HETATM   37  C14 UNL     1      -1.011   4.479  40.805  1.00  0.00     0.174 C 
BRANCH  33  38
HETATM   38  O6  UNL     1       0.502   2.015  42.457  1.00  0.00    -0.391 OA
ATOM     39  H6  UNL     1       0.866   2.783  42.880  1.00  0.00     0.210 HD
ENDBRANCH  33  38
BRANCH  34  40
HETATM   40  O7  UNL     1      -0.851   3.764  43.823  1.00  0.00    -0.390 OA
ATOM     41  H7  UNL     1      -1.326   4.541  44.095  1.00  0.00     0.210 HD
ENDBRANCH  34  40
BRANCH  35  42
HETATM   42  O8  UNL     1      -3.907   2.937  42.347  1.00  0.00    -0.390 OA
ATOM     43  H8  UNL     1      -3.979   2.370  43.106  1.00  0.00     0.210 HD
ENDBRANCH  35  42
BRANCH  36  44
HETATM   44  O9  UNL     1      -3.096   3.577  40.076  1.00  0.00    -0.390 OA
ATOM     45  H9  UNL     1      -2.425   3.050  39.658  1.00  0.00     0.210 HD
ENDBRANCH  36  44
BRANCH  37  46
HETATM   46  O10 UNL     1      -0.883   5.208  39.631  1.00  0.00    -0.391 OA
ATOM     47  H10 UNL     1      -1.670   5.698  39.424  1.00  0.00     0.210 HD
ENDBRANCH  37  46
ENDBRANCH  30  32
ENDBRANCH   5  30
BRANCH   3  48
HETATM   48  C7  UNL     1       2.294  -1.629  39.398  1.00  0.00     0.312 C 
BRANCH  48  49
HETATM   49  O3  UNL     1       3.682  -1.731  39.489  1.00  0.00    -0.365 OA
ATOM     50  H3  UNL     1       4.071  -0.907  39.219  1.00  0.00     0.213 HD
ENDBRANCH  48  49
BRANCH  48  51
HETATM   51  O4  UNL     1       1.790  -1.872  40.682  1.00  0.00    -0.365 OA
ATOM     52  H4  UNL     1       1.179  -1.167  40.862  1.00  0.00     0.213 HD
ENDBRANCH  48  51
ENDBRANCH   3  48
TORSDOF 19
ENDMDL
MODEL 4
REMARK VINA RESULT: -6.302441884      2.428      5.904
REMARK  19 active torsions:
REMARK  status: ('A' for Active; 'I' for Inactive)
REMARK    1  A    between atoms: N1_1  and  O1_4 
REMARK    2  A    between atoms: O1_4  and  C1_5 
REMARK    3  A    between atoms: C1_5  and  O2_6 
REMARK    4  A    between atoms: C1_5  and  N2_8 
REMARK    5  A    between atoms: N2_8  and  C2_10 
REMARK    6  A    between atoms: C3_11  and  C4_12 
REMARK    7  A    between atoms: C6_14  and  C7_15 
REMARK    8  A    between atoms: C7_15  and  O3_16 
REMARK    9  A    between atoms: C7_15  and  O4_18 
REMARK   10  A    between atoms: C8_21  and  N3_22 
REMARK   11  A    between atoms: N3_22  and  C9_24 
REMARK   12  A    between atoms: C10_25  and  O6_26 
REMARK   13  A    between atoms: C11_28  and  O7_29 
REMARK   14  A    between atoms: C12_31  and  O8_32 
REMARK   15  A    between atoms: C13_34  and  O9_35 
REMARK   16  A    between atoms: C14_37  and  O10_38 
REMARK   17  A    between atoms: C15_41  and  C16_42 
REMARK   18  A    between atoms: C16_42  and  N4_43 
REMARK   19  A    between atoms: C16_42  and  O12_47 
ROOT
HETATM    1  C4  UNL     1       1.979   1.424  36.461  1.00  0.00     0.054 A 
HETATM    2  C5  UNL     1       2.277   0.284  35.671  1.00  0.00     0.056 A 
HETATM    3  C6  UNL     1       3.171  -0.455  36.375  1.00  0.00     0.111 A 
HETATM    4  O5  UNL     1       3.405   0.155  37.477  1.00  0.00    -0.292 OA
HETATM    5  C8  UNL     1       2.717   1.295  37.584  1.00  0.00     0.157 A 
ENDROOT
BRANCH   1   6
HETATM    6  C3  UNL     1       1.088   2.442  35.932  1.00  0.00     0.124 A 
HETATM    7  C2  UNL     1       1.265   3.226  34.840  1.00  0.00     0.136 A 
HETATM    8  C17 UNL     1       0.292   4.164  34.488  1.00  0.00     0.276 A 
HETATM    9  N5  UNL     1      -0.800   4.283  35.230  1.00  0.00    -0.302 N 
HETATM   10  O13 UNL     1       0.446   4.885  33.485  1.00  0.00    -0.266 OA
HETATM   11  C15 UNL     1      -0.960   3.505  36.306  1.00  0.00     0.183 A 
ATOM     12  H5  UNL     1      -1.516   4.965  34.980  1.00  0.00     0.171 HD
HETATM   13  O11 UNL     1      -0.059   2.649  36.615  1.00  0.00    -0.289 OA
BRANCH   7  14
HETATM   14  N2  UNL     1       2.464   3.223  34.044  1.00  0.00    -0.334 N 
ATOM     15  H2  UNL     1       2.640   2.456  33.394  1.00  0.00     0.164 HD
BRANCH  14  16
HETATM   16  C1  UNL     1       3.425   4.304  34.163  1.00  0.00     0.394 C 
BRANCH  16  17
HETATM   17  O1  UNL     1       4.698   3.791  33.967  1.00  0.00    -0.234 OA
BRANCH  17  18
HETATM   18  N1  UNL     1       5.065   2.902  34.922  1.00  0.00    -0.306 N 
ATOM     19  H12 UNL     1       5.689   3.147  35.691  1.00  0.00     0.184 HD
ATOM     20  H11 UNL     1       4.655   1.979  34.787  1.00  0.00     0.184 HD
ENDBRANCH  17  18
ENDBRANCH  16  17
BRANCH  16  21
HETATM   21  O2  UNL     1       3.368   4.905  35.396  1.00  0.00    -0.353 OA
ATOM     22  H2  UNL     1       2.603   4.589  35.861  1.00  0.00     0.214 HD
ENDBRANCH  16  21
ENDBRANCH  14  16
ENDBRANCH   7  14
BRANCH  11  23
HETATM   23  C16 UNL     1      -2.215   3.673  37.124  1.00  0.00     0.392 C 
BRANCH  23  24
HETATM   24  N4  UNL     1      -2.325   5.040  37.588  1.00  0.00    -0.045 N 
ATOM     25  H43 UNL     1      -1.439   5.541  37.514  1.00  0.00     0.277 HD
ATOM     26  H42 UNL     1      -2.876   5.616  36.952  1.00  0.00     0.277 HD
ATOM     27  H41 UNL     1      -2.696   5.057  38.538  1.00  0.00     0.277 HD
ENDBRANCH  23  24
BRANCH  23  28
HETATM   28  O12 UNL     1      -2.166   2.786  38.219  1.00  0.00    -0.364 OA
ATOM     29  H12 UNL     1      -2.030   3.288  39.014  1.00  0.00     0.212 HD
ENDBRANCH  23  28
ENDBRANCH  11  23
ENDBRANCH   1   6
BRANCH   5  30
HETATM   30  N3  UNL     1       2.819   2.168  38.704  1.00  0.00    -0.360 N 
ATOM     31  H3  UNL     1       3.711   2.231  39.194  1.00  0.00     0.162 HD
BRANCH  30  32
HETATM   32  C9  UNL     1       1.717   2.967  39.173  1.00  0.00     0.146 C 
HETATM   33  C10 UNL     1       0.705   2.175  39.899  1.00  0.00     0.174 C 
HETATM   34  C11 UNL     1       0.093   2.792  41.115  1.00  0.00     0.180 C 
HETATM   35  C12 UNL     1      -0.114   4.270  41.038  1.00  0.00     0.180 C 
HETATM   36  C13 UNL     1       0.917   4.986  40.208  1.00  0.00     0.180 C 
HETATM   37  C14 UNL     1       2.176   4.114  40.053  1.00  0.00     0.174 C 
BRANCH  33  38
HETATM   38  O6  UNL     1       1.230   0.925  40.215  1.00  0.00    -0.391 OA
ATOM     39  H6  UNL     1       0.677   0.501  40.861  1.00  0.00     0.210 HD
ENDBRANCH  33  38
BRANCH  34  40
HETATM   40  O7  UNL     1       0.783   2.448  42.273  1.00  0.00    -0.390 OA
ATOM     41  H7  UNL     1       1.207   3.201  42.670  1.00  0.00     0.210 HD
ENDBRANCH  34  40
BRANCH  35  42
HETATM   42  O8  UNL     1      -1.384   4.579  40.552  1.00  0.00    -0.390 OA
ATOM     43  H8  UNL     1      -1.622   5.477  40.752  1.00  0.00     0.210 HD
ENDBRANCH  35  42
BRANCH  36  44
HETATM   44  O9  UNL     1       0.399   5.254  38.943  1.00  0.00    -0.390 OA
ATOM     45  H9  UNL     1       0.970   5.859  38.484  1.00  0.00     0.210 HD
ENDBRANCH  36  44
BRANCH  37  46
HETATM   46  O10 UNL     1       3.122   4.912  39.423  1.00  0.00    -0.391 OA
ATOM     47  H10 UNL     1       3.995   4.778  39.773  1.00  0.00     0.210 HD
ENDBRANCH  37  46
ENDBRANCH  30  32
ENDBRANCH   5  30
BRANCH   3  48
HETATM   48  C7  UNL     1       3.802  -1.755  35.983  1.00  0.00     0.312 C 
BRANCH  48  49
HETATM   49  O3  UNL     1       4.815  -1.507  35.058  1.00  0.00    -0.365 OA
ATOM     50  H3  UNL     1       4.677  -2.056  34.294  1.00  0.00     0.213 HD
ENDBRANCH  48  49
BRANCH  48  51
HETATM   51  O4  UNL     1       4.424  -2.247  37.138  1.00  0.00    -0.365 OA
ATOM     52  H4  UNL     1       5.343  -2.016  37.059  1.00  0.00     0.213 HD
ENDBRANCH  48  51
ENDBRANCH   3  48
TORSDOF 19
ENDMDL
MODEL 5
REMARK VINA RESULT: -6.281883119      2.364      5.531
REMARK  19 active torsions:
REMARK  status: ('A' for Active; 'I' for Inactive)
REMARK    1  A    between atoms: N1_1  and  O1_4 
REMARK    2  A    between atoms: O1_4  and  C1_5 
REMARK    3  A    between atoms: C1_5  and  O2_6 
REMARK    4  A    between atoms: C1_5  and  N2_8 
REMARK    5  A    between atoms: N2_8  and  C2_10 
REMARK    6  A    between atoms: C3_11  and  C4_12 
REMARK    7  A    between atoms: C6_14  and  C7_15 
REMARK    8  A    between atoms: C7_15  and  O3_16 
REMARK    9  A    between atoms: C7_15  and  O4_18 
REMARK   10  A    between atoms: C8_21  and  N3_22 
REMARK   11  A    between atoms: N3_22  and  C9_24 
REMARK   12  A    between atoms: C10_25  and  O6_26 
REMARK   13  A    between atoms: C11_28  and  O7_29 
REMARK   14  A    between atoms: C12_31  and  O8_32 
REMARK   15  A    between atoms: C13_34  and  O9_35 
REMARK   16  A    between atoms: C14_37  and  O10_38 
REMARK   17  A    between atoms: C15_41  and  C16_42 
REMARK   18  A    between atoms: C16_42  and  N4_43 
REMARK   19  A    between atoms: C16_42  and  O12_47 
ROOT
HETATM    1  C4  UNL     1       1.480   0.895  36.134  1.00  0.00     0.054 A 
HETATM    2  C5  UNL     1       1.574  -0.179  35.211  1.00  0.00     0.056 A 
HETATM    3  C6  UNL     1       2.391  -1.105  35.772  1.00  0.00     0.111 A 
HETATM    4  O5  UNL     1       2.765  -0.661  36.913  1.00  0.00    -0.292 OA
HETATM    5  C8  UNL     1       2.251   0.542  37.185  1.00  0.00     0.157 A 
ENDROOT
BRANCH   1   6
HETATM    6  C3  UNL     1       0.715   2.075  35.775  1.00  0.00     0.124 A 
HETATM    7  C2  UNL     1       1.005   3.011  34.837  1.00  0.00     0.136 A 
HETATM    8  C17 UNL     1       0.144   4.092  34.638  1.00  0.00     0.276 A 
HETATM    9  N5  UNL     1      -0.953   4.197  35.373  1.00  0.00    -0.302 N 
HETATM   10  O13 UNL     1       0.403   4.952  33.776  1.00  0.00    -0.266 OA
HETATM   11  C15 UNL     1      -1.226   3.269  36.297  1.00  0.00     0.183 A 
ATOM     12  H5  UNL     1      -1.589   4.983  35.234  1.00  0.00     0.171 HD
HETATM   13  O11 UNL     1      -0.427   2.283  36.466  1.00  0.00    -0.289 OA
BRANCH   7  14
HETATM   14  N2  UNL     1       2.223   3.016  34.070  1.00  0.00    -0.334 N 
ATOM     15  H2  UNL     1       2.236   2.613  33.133  1.00  0.00     0.164 HD
BRANCH  14  16
HETATM   16  C1  UNL     1       3.435   3.592  34.625  1.00  0.00     0.394 C 
BRANCH  16  17
HETATM   17  O1  UNL     1       3.141   4.134  35.867  1.00  0.00    -0.234 OA
BRANCH  17  18
HETATM   18  N1  UNL     1       3.052   5.486  35.848  1.00  0.00    -0.306 N 
ATOM     19  H12 UNL     1       3.464   6.054  35.108  1.00  0.00     0.184 HD
ATOM     20  H11 UNL     1       2.536   5.863  36.642  1.00  0.00     0.184 HD
ENDBRANCH  17  18
ENDBRANCH  16  17
BRANCH  16  21
HETATM   21  O2  UNL     1       3.951   4.574  33.817  1.00  0.00    -0.353 OA
ATOM     22  H2  UNL     1       3.956   4.266  32.918  1.00  0.00     0.214 HD
ENDBRANCH  16  21
ENDBRANCH  14  16
ENDBRANCH   7  14
BRANCH  11  23
HETATM   23  C16 UNL     1      -2.483   3.427  37.113  1.00  0.00     0.392 C 
BRANCH  23  24
HETATM   24  N4  UNL     1      -2.977   4.783  37.006  1.00  0.00    -0.045 N 
ATOM     25  H43 UNL     1      -3.403   5.105  37.875  1.00  0.00     0.277 HD
ATOM     26  H42 UNL     1      -2.219   5.463  36.951  1.00  0.00     0.277 HD
ATOM     27  H41 UNL     1      -3.617   4.860  36.215  1.00  0.00     0.277 HD
ENDBRANCH  23  24
BRANCH  23  28
HETATM   28  O12 UNL     1      -2.195   3.116  38.458  1.00  0.00    -0.364 OA
ATOM     29  H12 UNL     1      -2.495   2.232  38.639  1.00  0.00     0.212 HD
ENDBRANCH  23  28
ENDBRANCH  11  23
ENDBRANCH   1   6
BRANCH   5  30
HETATM   30  N3  UNL     1       2.533   1.262  38.380  1.00  0.00    -0.360 N 
ATOM     31  H3  UNL     1       3.313   0.956  38.962  1.00  0.00     0.162 HD
BRANCH  30  32
HETATM   32  C9  UNL     1       1.764   2.403  38.803  1.00  0.00     0.146 C 
HETATM   33  C10 UNL     1       0.704   2.053  39.768  1.00  0.00     0.174 C 
HETATM   34  C11 UNL     1       0.469   2.997  40.903  1.00  0.00     0.180 C 
HETATM   35  C12 UNL     1       0.647   4.443  40.570  1.00  0.00     0.180 C 
HETATM   36  C13 UNL     1       1.690   4.700  39.516  1.00  0.00     0.180 C 
HETATM   37  C14 UNL     1       2.637   3.492  39.397  1.00  0.00     0.174 C 
BRANCH  33  38
HETATM   38  O6  UNL     1       0.925   0.769  40.259  1.00  0.00    -0.391 OA
ATOM     39  H6  UNL     1       0.138   0.450  40.684  1.00  0.00     0.210 HD
ENDBRANCH  33  38
BRANCH  34  40
HETATM   40  O7  UNL     1       1.214   2.652  42.026  1.00  0.00    -0.390 OA
ATOM     41  H7  UNL     1       0.693   2.179  42.664  1.00  0.00     0.210 HD
ENDBRANCH  34  40
BRANCH  35  42
HETATM   42  O8  UNL     1      -0.556   5.023  40.170  1.00  0.00    -0.390 OA
ATOM     43  H8  UNL     1      -0.851   5.675  40.796  1.00  0.00     0.210 HD
ENDBRANCH  35  42
BRANCH  36  44
HETATM   44  O9  UNL     1       1.072   4.908  38.284  1.00  0.00    -0.390 OA
ATOM     45  H9  UNL     1       1.731   5.006  37.607  1.00  0.00     0.210 HD
ENDBRANCH  36  44
BRANCH  37  46
HETATM   46  O10 UNL     1       3.650   3.882  38.531  1.00  0.00    -0.391 OA
ATOM     47  H10 UNL     1       4.444   4.122  38.993  1.00  0.00     0.210 HD
ENDBRANCH  37  46
ENDBRANCH  30  32
ENDBRANCH   5  30
BRANCH   3  48
HETATM   48  C7  UNL     1       2.811  -2.426  35.205  1.00  0.00     0.312 C 
BRANCH  48  49
HETATM   49  O3  UNL     1       3.123  -2.262  33.856  1.00  0.00    -0.365 OA
ATOM     50  H3  UNL     1       2.789  -3.007  33.369  1.00  0.00     0.213 HD
ENDBRANCH  48  49
BRANCH  48  51
HETATM   51  O4  UNL     1       4.006  -2.763  35.854  1.00  0.00    -0.365 OA
ATOM     52  H4  UNL     1       4.413  -3.437  35.321  1.00  0.00     0.213 HD
ENDBRANCH  48  51
ENDBRANCH   3  48
TORSDOF 19
ENDMDL
