MODEL 1
REMARK VINA RESULT: -6.490543469      0.000      0.000
REMARK  18 active torsions:
REMARK  status: ('A' for Active; 'I' for Inactive)
REMARK    1  A    between atoms: N1_1  and  C1_4 
REMARK    2  A    between atoms: C3_9  and  N4_10 
REMARK    3  A    between atoms: N4_10  and  C4_12 
REMARK    4  A    between atoms: C4_12  and  N5_13 
REMARK    5  A    between atoms: C4_12  and  O1_17 
REMARK    6  A    between atoms: C5_19  and  O2_20 
REMARK    7  A    between atoms: N6_25  and  C8_26 
REMARK    8  A    between atoms: C9_28  and  O4_29 
REMARK    9  A    between atoms: C9_28  and  C10_31 
REMARK   10  A    between atoms: C10_31  and  O5_32 
REMARK   11  A    between atoms: C11_34  and  C12_35 
REMARK   12  A    between atoms: C12_35  and  O6_36 
REMARK   13  A    between atoms: O6_36  and  C13_37 
REMARK   14  A    between atoms: C13_37  and  O7_38 
REMARK   15  A    between atoms: C13_37  and  O8_40 
REMARK   16  A    between atoms: C13_37  and  O9_42 
REMARK   17  A    between atoms: C14_44  and  O10_45 
REMARK   18  A    between atoms: C15_47  and  O11_48 
ROOT
HETATM    1  C1  UNL     1       6.386  -1.006  36.261  1.00  0.00     0.121 C 
HETATM    2  N2  UNL     1       7.277  -1.195  35.301  1.00  0.00    -0.328 N 
ATOM      3  H2  UNL     1       8.065  -1.798  35.536  1.00  0.00     0.168 HD
HETATM    4  C2  UNL     1       7.272  -0.690  34.047  1.00  0.00     0.147 C 
HETATM    5  N3  UNL     1       8.164  -1.312  33.139  1.00  0.00    -0.080 NA
HETATM    6  C3  UNL     1       6.533   0.341  33.507  1.00  0.00     0.109 C 
HETATM    7  C5  UNL     1       5.475   0.982  34.152  1.00  0.00     0.124 C 
HETATM    8  C6  UNL     1       4.661   0.514  35.203  1.00  0.00     0.101 A 
HETATM    9  C7  UNL     1       5.133  -0.391  36.135  1.00  0.00     0.095 A 
HETATM   10  S1  UNL     1       3.614  -0.294  36.823  1.00  0.00    -0.003 SA
HETATM   11  N6  UNL     1       3.389   0.771  35.548  1.00  0.00    -0.282 N 
ENDROOT
BRANCH  11  12
HETATM   12  C8  UNL     1       2.263   1.586  35.075  1.00  0.00     0.270 C 
HETATM   13  O3  UNL     1       2.747   2.810  34.659  1.00  0.00    -0.324 OA
HETATM   14  C9  UNL     1       2.699   3.813  35.598  1.00  0.00     0.193 C 
HETATM   15  C11 UNL     1       1.274   4.187  35.974  1.00  0.00     0.106 C 
HETATM   16  C14 UNL     1       0.396   2.972  35.802  1.00  0.00     0.162 C 
HETATM   17  C15 UNL     1       1.156   1.688  36.080  1.00  0.00     0.197 C 
BRANCH  14  18
HETATM   18  O4  UNL     1       3.503   3.621  36.694  1.00  0.00    -0.363 OA
ATOM     19  H4  UNL     1       3.065   3.262  37.456  1.00  0.00     0.213 HD
ENDBRANCH  14  18
BRANCH  14  20
HETATM   20  C10 UNL     1       3.271   5.047  34.893  1.00  0.00     0.233 C 
BRANCH  20  21
HETATM   21  O5  UNL     1       3.981   4.626  33.761  1.00  0.00    -0.396 OA
ATOM     22  H5  UNL     1       4.649   5.272  33.566  1.00  0.00     0.209 HD
ENDBRANCH  20  21
ENDBRANCH  14  20
BRANCH  15  23
HETATM   23  C12 UNL     1       1.202   4.748  37.379  1.00  0.00     0.189 C 
BRANCH  23  24
HETATM   24  O6  UNL     1       0.241   5.757  37.377  1.00  0.00    -0.308 OA
BRANCH  24  25
HETATM   25  C13 UNL     1      -0.615   5.693  38.461  1.00  0.00     0.409 C 
BRANCH  25  26
HETATM   26  O7  UNL     1      -0.340   4.499  39.131  1.00  0.00    -0.319 OA
ATOM     27  H7  UNL     1      -0.380   4.685  40.062  1.00  0.00     0.218 HD
ENDBRANCH  25  26
BRANCH  25  28
HETATM   28  O8  UNL     1      -0.505   6.749  39.333  1.00  0.00    -0.319 OA
ATOM     29  H8  UNL     1      -0.760   6.547  40.226  1.00  0.00     0.218 HD
ENDBRANCH  25  28
BRANCH  25  30
HETATM   30  O9  UNL     1      -1.940   5.610  37.997  1.00  0.00    -0.319 OA
ATOM     31  H9  UNL     1      -2.317   4.783  38.276  1.00  0.00     0.218 HD
ENDBRANCH  25  30
ENDBRANCH  24  25
ENDBRANCH  23  24
ENDBRANCH  15  23
BRANCH  16  32
HETATM   32  O10 UNL     1      -0.780   3.051  36.536  1.00  0.00    -0.392 OA
ATOM     33  H10 UNL     1      -1.332   2.285  36.430  1.00  0.00     0.210 HD
ENDBRANCH  16  32
BRANCH  17  34
HETATM   34  O11 UNL     1       1.572   1.585  37.386  1.00  0.00    -0.389 OA
ATOM     35  H11 UNL     1       0.864   1.571  38.020  1.00  0.00     0.210 HD
ENDBRANCH  17  34
ENDBRANCH  11  12
BRANCH   7  36
HETATM   36  O2  UNL     1       5.245   2.248  33.645  1.00  0.00    -0.356 OA
ATOM     37  H2  UNL     1       5.021   2.872  34.326  1.00  0.00     0.218 HD
ENDBRANCH   7  36
BRANCH   6  38
HETATM   38  N4  UNL     1       6.877   0.788  32.183  1.00  0.00    -0.337 N 
ATOM     39  H4  UNL     1       6.378   0.383  31.391  1.00  0.00     0.164 HD
BRANCH  38  40
HETATM   40  C4  UNL     1       7.878   1.764  31.920  1.00  0.00     0.424 C 
BRANCH  40  41
HETATM   41  N5  UNL     1       9.144   1.101  31.680  1.00  0.00    -0.035 N 
ATOM     42  H53 UNL     1       9.504   0.643  32.517  1.00  0.00     0.279 HD
ATOM     43  H52 UNL     1       9.041   0.274  31.093  1.00  0.00     0.279 HD
ATOM     44  H51 UNL     1       9.807   1.771  31.291  1.00  0.00     0.279 HD
ENDBRANCH  40  41
BRANCH  40  45
HETATM   45  O1  UNL     1       8.072   2.599  33.038  1.00  0.00    -0.355 OA
ATOM     46  H1  UNL     1       8.903   2.415  33.459  1.00  0.00     0.213 HD
ENDBRANCH  40  45
ENDBRANCH  38  40
ENDBRANCH   6  38
BRANCH   1  47
HETATM   47  N1  UNL     1       6.655  -1.416  37.454  1.00  0.00    -0.384 N 
ATOM     48  H12 UNL     1       6.934  -2.395  37.506  1.00  0.00     0.157 HD
ATOM     49  H11 UNL     1       6.575  -0.762  38.233  1.00  0.00     0.157 HD
ENDBRANCH   1  47
TORSDOF 18
ENDMDL
MODEL 2
REMARK VINA RESULT: -6.485099313      1.605      2.326
REMARK  18 active torsions:
REMARK  status: ('A' for Active; 'I' for Inactive)
REMARK    1  A    between atoms: N1_1  and  C1_4 
REMARK    2  A    between atoms: C3_9  and  N4_10 
REMARK    3  A    between atoms: N4_10  and  C4_12 
REMARK    4  A    between atoms: C4_12  and  N5_13 
REMARK    5  A    between atoms: C4_12  and  O1_17 
REMARK    6  A    between atoms: C5_19  and  O2_20 
REMARK    7  A    between atoms: N6_25  and  C8_26 
REMARK    8  A    between atoms: C9_28  and  O4_29 
REMARK    9  A    between atoms: C9_28  and  C10_31 
REMARK   10  A    between atoms: C10_31  and  O5_32 
REMARK   11  A    between atoms: C11_34  and  C12_35 
REMARK   12  A    between atoms: C12_35  and  O6_36 
REMARK   13  A    between atoms: O6_36  and  C13_37 
REMARK   14  A    between atoms: C13_37  and  O7_38 
REMARK   15  A    between atoms: C13_37  and  O8_40 
REMARK   16  A    between atoms: C13_37  and  O9_42 
REMARK   17  A    between atoms: C14_44  and  O10_45 
REMARK   18  A    between atoms: C15_47  and  O11_48 
ROOT
HETATM    1  C1  UNL     1       6.523  -0.852  34.451  1.00  0.00     0.121 C 
HETATM    2  N2  UNL     1       7.509  -0.981  33.578  1.00  0.00    -0.328 N 
ATOM      3  H2  UNL     1       7.994  -1.878  33.581  1.00  0.00     0.168 HD
HETATM    4  C2  UNL     1       7.953  -0.071  32.681  1.00  0.00     0.147 C 
HETATM    5  N3  UNL     1       8.794  -0.586  31.662  1.00  0.00    -0.080 NA
HETATM    6  C3  UNL     1       7.717   1.284  32.599  1.00  0.00     0.109 C 
HETATM    7  C5  UNL     1       6.792   1.978  33.378  1.00  0.00     0.124 C 
HETATM    8  C6  UNL     1       5.651   1.490  34.047  1.00  0.00     0.101 A 
HETATM    9  C7  UNL     1       5.589   0.191  34.515  1.00  0.00     0.095 A 
HETATM   10  S1  UNL     1       4.059   0.586  35.057  1.00  0.00    -0.003 SA
HETATM   11  N6  UNL     1       4.478   2.058  34.372  1.00  0.00    -0.282 N 
ENDROOT
BRANCH  11  12
HETATM   12  C8  UNL     1       3.804   3.353  34.224  1.00  0.00     0.270 C 
HETATM   13  O3  UNL     1       3.838   4.010  35.437  1.00  0.00    -0.324 OA
HETATM   14  C9  UNL     1       2.723   3.850  36.226  1.00  0.00     0.193 C 
HETATM   15  C11 UNL     1       1.480   4.468  35.607  1.00  0.00     0.106 C 
HETATM   16  C14 UNL     1       1.622   4.432  34.105  1.00  0.00     0.162 C 
HETATM   17  C15 UNL     1       2.426   3.228  33.646  1.00  0.00     0.197 C 
BRANCH  14  18
HETATM   18  O4  UNL     1       2.511   2.570  36.677  1.00  0.00    -0.363 OA
ATOM     19  H4  UNL     1       1.605   2.283  36.660  1.00  0.00     0.213 HD
ENDBRANCH  14  18
BRANCH  14  20
HETATM   20  C10 UNL     1       3.004   4.676  37.486  1.00  0.00     0.233 C 
BRANCH  20  21
HETATM   21  O5  UNL     1       2.400   4.041  38.580  1.00  0.00    -0.396 OA
ATOM     22  H5  UNL     1       1.865   4.677  39.041  1.00  0.00     0.209 HD
ENDBRANCH  20  21
ENDBRANCH  14  20
BRANCH  15  23
HETATM   23  C12 UNL     1       0.222   3.768  36.076  1.00  0.00     0.189 C 
BRANCH  23  24
HETATM   24  O6  UNL     1      -0.727   4.752  36.345  1.00  0.00    -0.308 OA
BRANCH  24  25
HETATM   25  C13 UNL     1      -0.837   5.045  37.691  1.00  0.00     0.409 C 
BRANCH  25  26
HETATM   26  O7  UNL     1      -2.149   5.468  37.913  1.00  0.00    -0.319 OA
ATOM     27  H7  UNL     1      -2.199   6.378  37.645  1.00  0.00     0.218 HD
ENDBRANCH  25  26
BRANCH  25  28
HETATM   28  O8  UNL     1      -0.542   3.995  38.526  1.00  0.00    -0.319 OA
ATOM     29  H8  UNL     1      -0.962   3.176  38.289  1.00  0.00     0.218 HD
ENDBRANCH  25  28
BRANCH  25  30
HETATM   30  O9  UNL     1       0.003   6.131  37.997  1.00  0.00    -0.319 OA
ATOM     31  H9  UNL     1      -0.213   6.458  38.863  1.00  0.00     0.218 HD
ENDBRANCH  25  30
ENDBRANCH  24  25
ENDBRANCH  23  24
ENDBRANCH  15  23
BRANCH  16  32
HETATM   32  O10 UNL     1       0.403   4.526  33.447  1.00  0.00    -0.392 OA
ATOM     33  H10 UNL     1       0.017   3.677  33.265  1.00  0.00     0.210 HD
ENDBRANCH  16  32
BRANCH  17  34
HETATM   34  O11 UNL     1       1.806   2.034  33.925  1.00  0.00    -0.389 OA
ATOM     35  H11 UNL     1       0.900   2.122  34.198  1.00  0.00     0.210 HD
ENDBRANCH  17  34
ENDBRANCH  11  12
BRANCH   7  36
HETATM   36  O2  UNL     1       7.090   3.325  33.468  1.00  0.00    -0.356 OA
ATOM     37  H2  UNL     1       6.856   3.689  34.314  1.00  0.00     0.218 HD
ENDBRANCH   7  36
BRANCH   6  38
HETATM   38  N4  UNL     1       8.483   2.038  31.640  1.00  0.00    -0.337 N 
ATOM     39  H4  UNL     1       9.422   2.339  31.900  1.00  0.00     0.164 HD
BRANCH  38  40
HETATM   40  C4  UNL     1       7.998   2.386  30.349  1.00  0.00     0.424 C 
BRANCH  40  41
HETATM   41  N5  UNL     1       8.742   1.656  29.344  1.00  0.00    -0.035 N 
ATOM     42  H53 UNL     1       9.591   1.235  29.721  1.00  0.00     0.279 HD
ATOM     43  H52 UNL     1       8.268   0.798  29.060  1.00  0.00     0.279 HD
ATOM     44  H51 UNL     1       8.934   2.270  28.552  1.00  0.00     0.279 HD
ENDBRANCH  40  41
BRANCH  40  45
HETATM   45  O1  UNL     1       8.208   3.754  30.083  1.00  0.00    -0.355 OA
ATOM     46  H1  UNL     1       9.102   3.911  29.803  1.00  0.00     0.213 HD
ENDBRANCH  40  45
ENDBRANCH  38  40
ENDBRANCH   6  38
BRANCH   1  47
HETATM   47  N1  UNL     1       6.366  -1.757  35.356  1.00  0.00    -0.384 N 
ATOM     48  H12 UNL     1       6.121  -2.676  34.988  1.00  0.00     0.157 HD
ATOM     49  H11 UNL     1       6.492  -1.506  36.336  1.00  0.00     0.157 HD
ENDBRANCH   1  47
TORSDOF 18
ENDMDL
MODEL 3
REMARK VINA RESULT: -6.463488133      1.476      1.764
REMARK  18 active torsions:
REMARK  status: ('A' for Active; 'I' for Inactive)
REMARK    1  A    between atoms: N1_1  and  C1_4 
REMARK    2  A    between atoms: C3_9  and  N4_10 
REMARK    3  A    between atoms: N4_10  and  C4_12 
REMARK    4  A    between atoms: C4_12  and  N5_13 
REMARK    5  A    between atoms: C4_12  and  O1_17 
REMARK    6  A    between atoms: C5_19  and  O2_20 
REMARK    7  A    between atoms: N6_25  and  C8_26 
REMARK    8  A    between atoms: C9_28  and  O4_29 
REMARK    9  A    between atoms: C9_28  and  C10_31 
REMARK   10  A    between atoms: C10_31  and  O5_32 
REMARK   11  A    between atoms: C11_34  and  C12_35 
REMARK   12  A    between atoms: C12_35  and  O6_36 
REMARK   13  A    between atoms: O6_36  and  C13_37 
REMARK   14  A    between atoms: C13_37  and  O7_38 
REMARK   15  A    between atoms: C13_37  and  O8_40 
REMARK   16  A    between atoms: C13_37  and  O9_42 
REMARK   17  A    between atoms: C14_44  and  O10_45 
REMARK   18  A    between atoms: C15_47  and  O11_48 
ROOT
HETATM    1  C1  UNL     1       5.818  -0.818  35.539  1.00  0.00     0.121 C 
HETATM    2  N2  UNL     1       7.057  -0.782  35.075  1.00  0.00    -0.328 N 
ATOM      3  H2  UNL     1       7.693  -1.488  35.447  1.00  0.00     0.168 HD
HETATM    4  C2  UNL     1       7.584   0.072  34.169  1.00  0.00     0.147 C 
HETATM    5  N3  UNL     1       8.830  -0.321  33.620  1.00  0.00    -0.080 NA
HETATM    6  C3  UNL     1       7.100   1.271  33.691  1.00  0.00     0.109 C 
HETATM    7  C5  UNL     1       5.825   1.772  33.950  1.00  0.00     0.124 C 
HETATM    8  C6  UNL     1       4.657   1.078  34.328  1.00  0.00     0.101 A 
HETATM    9  C7  UNL     1       4.718  -0.097  35.053  1.00  0.00     0.095 A 
HETATM   10  S1  UNL     1       3.050  -0.090  34.978  1.00  0.00    -0.003 SA
HETATM   11  N6  UNL     1       3.353   1.320  34.123  1.00  0.00    -0.282 N 
ENDROOT
BRANCH  11  12
HETATM   12  C8  UNL     1       2.509   2.324  33.462  1.00  0.00     0.270 C 
HETATM   13  O3  UNL     1       2.905   3.579  33.881  1.00  0.00    -0.324 OA
HETATM   14  C9  UNL     1       2.193   4.100  34.936  1.00  0.00     0.193 C 
HETATM   15  C11 UNL     1       0.741   4.368  34.578  1.00  0.00     0.106 C 
HETATM   16  C14 UNL     1       0.319   3.391  33.509  1.00  0.00     0.162 C 
HETATM   17  C15 UNL     1       1.044   2.064  33.645  1.00  0.00     0.197 C 
BRANCH  14  18
HETATM   18  O4  UNL     1       2.331   3.420  36.121  1.00  0.00    -0.363 OA
ATOM     19  H4  UNL     1       2.315   3.964  36.900  1.00  0.00     0.213 HD
ENDBRANCH  14  18
BRANCH  14  20
HETATM   20  C10 UNL     1       2.811   5.479  35.191  1.00  0.00     0.233 C 
BRANCH  20  21
HETATM   21  O5  UNL     1       3.192   5.555  36.537  1.00  0.00    -0.396 OA
ATOM     22  H5  UNL     1       3.403   4.681  36.842  1.00  0.00     0.209 HD
ENDBRANCH  20  21
ENDBRANCH  14  20
BRANCH  15  23
HETATM   23  C12 UNL     1      -0.152   4.295  35.799  1.00  0.00     0.189 C 
BRANCH  23  24
HETATM   24  O6  UNL     1       0.053   5.459  36.537  1.00  0.00    -0.308 OA
BRANCH  24  25
HETATM   25  C13 UNL     1      -0.069   5.265  37.900  1.00  0.00     0.409 C 
BRANCH  25  26
HETATM   26  O7  UNL     1      -0.590   6.443  38.438  1.00  0.00    -0.319 OA
ATOM     27  H7  UNL     1      -0.769   6.276  39.356  1.00  0.00     0.218 HD
ENDBRANCH  25  26
BRANCH  25  28
HETATM   28  O8  UNL     1      -0.866   4.203  38.253  1.00  0.00    -0.319 OA
ATOM     29  H8  UNL     1      -0.492   3.635  38.916  1.00  0.00     0.218 HD
ENDBRANCH  25  28
BRANCH  25  30
HETATM   30  O9  UNL     1       1.211   5.089  38.458  1.00  0.00    -0.319 OA
ATOM     31  H9  UNL     1       1.858   5.105  37.762  1.00  0.00     0.218 HD
ENDBRANCH  25  30
ENDBRANCH  24  25
ENDBRANCH  23  24
ENDBRANCH  15  23
BRANCH  16  32
HETATM   32  O10 UNL     1      -1.058   3.227  33.442  1.00  0.00    -0.392 OA
ATOM     33  H10 UNL     1      -1.475   3.851  32.860  1.00  0.00     0.210 HD
ENDBRANCH  16  32
BRANCH  17  34
HETATM   34  O11 UNL     1       0.733   1.401  34.808  1.00  0.00    -0.389 OA
ATOM     35  H11 UNL     1       0.021   1.795  35.300  1.00  0.00     0.210 HD
ENDBRANCH  17  34
ENDBRANCH  11  12
BRANCH   7  36
HETATM   36  O2  UNL     1       5.763   3.145  33.799  1.00  0.00    -0.356 OA
ATOM     37  H2  UNL     1       5.057   3.530  34.305  1.00  0.00     0.218 HD
ENDBRANCH   7  36
BRANCH   6  38
HETATM   38  N4  UNL     1       7.975   2.063  32.866  1.00  0.00    -0.337 N 
ATOM     39  H4  UNL     1       8.562   2.764  33.317  1.00  0.00     0.164 HD
BRANCH  38  40
HETATM   40  C4  UNL     1       8.064   1.918  31.454  1.00  0.00     0.424 C 
BRANCH  40  41
HETATM   41  N5  UNL     1       9.345   1.337  31.110  1.00  0.00    -0.035 N 
ATOM     42  H53 UNL     1       9.669   0.673  31.813  1.00  0.00     0.279 HD
ATOM     43  H52 UNL     1       9.278   0.694  30.322  1.00  0.00     0.279 HD
ATOM     44  H51 UNL     1      10.021   2.083  30.943  1.00  0.00     0.279 HD
ENDBRANCH  40  41
BRANCH  40  45
HETATM   45  O1  UNL     1       8.013   3.173  30.815  1.00  0.00    -0.355 OA
ATOM     46  H1  UNL     1       8.448   3.838  31.336  1.00  0.00     0.213 HD
ENDBRANCH  40  45
ENDBRANCH  38  40
ENDBRANCH   6  38
BRANCH   1  47
HETATM   47  N1  UNL     1       5.546  -1.583  36.541  1.00  0.00    -0.384 N 
ATOM     48  H12 UNL     1       4.719  -2.165  36.408  1.00  0.00     0.157 HD
ATOM     49  H11 UNL     1       6.149  -1.558  37.363  1.00  0.00     0.157 HD
ENDBRANCH   1  47
TORSDOF 18
ENDMDL
MODEL 4
REMARK VINA RESULT: -6.394502481      1.794      2.250
REMARK  18 active torsions:
REMARK  status: ('A' for Active; 'I' for Inactive)
REMARK    1  A    between atoms: N1_1  and  C1_4 
REMARK    2  A    between atoms: C3_9  and  N4_10 
REMARK    3  A    between atoms: N4_10  and  C4_12 
REMARK    4  A    between atoms: C4_12  and  N5_13 
REMARK    5  A    between atoms: C4_12  and  O1_17 
REMARK    6  A    between atoms: C5_19  and  O2_20 
REMARK    7  A    between atoms: N6_25  and  C8_26 
REMARK    8  A    between atoms: C9_28  and  O4_29 
REMARK    9  A    between atoms: C9_28  and  C10_31 
REMARK   10  A    between atoms: C10_31  and  O5_32 
REMARK   11  A    between atoms: C11_34  and  C12_35 
REMARK   12  A    between atoms: C12_35  and  O6_36 
REMARK   13  A    between atoms: O6_36  and  C13_37 
REMARK   14  A    between atoms: C13_37  and  O7_38 
REMARK   15  A    between atoms: C13_37  and  O8_40 
REMARK   16  A    between atoms: C13_37  and  O9_42 
REMARK   17  A    between atoms: C14_44  and  O10_45 
REMARK   18  A    between atoms: C15_47  and  O11_48 
ROOT
HETATM    1  C1  UNL     1       3.932  -1.609  34.428  1.00  0.00     0.121 C 
HETATM    2  N2  UNL     1       5.234  -1.663  34.193  1.00  0.00    -0.328 N 
ATOM      3  H2  UNL     1       5.645  -2.596  34.172  1.00  0.00     0.168 HD
HETATM    4  C2  UNL     1       6.085  -0.635  33.978  1.00  0.00     0.147 C 
HETATM    5  N3  UNL     1       7.344  -0.995  33.435  1.00  0.00    -0.080 NA
HETATM    6  C3  UNL     1       5.924   0.716  34.204  1.00  0.00     0.109 C 
HETATM    7  C5  UNL     1       4.721   1.322  34.565  1.00  0.00     0.124 C 
HETATM    8  C6  UNL     1       3.402   0.865  34.368  1.00  0.00     0.101 A 
HETATM    9  C7  UNL     1       3.104  -0.484  34.317  1.00  0.00     0.095 A 
HETATM   10  S1  UNL     1       1.521  -0.004  34.087  1.00  0.00    -0.003 SA
HETATM   11  N6  UNL     1       2.235   1.509  34.200  1.00  0.00    -0.282 N 
ENDROOT
BRANCH  11  12
HETATM   12  C8  UNL     1       1.739   2.889  34.129  1.00  0.00     0.270 C 
HETATM   13  O3  UNL     1       2.363   3.634  35.110  1.00  0.00    -0.324 OA
HETATM   14  C9  UNL     1       1.668   3.754  36.291  1.00  0.00     0.193 C 
HETATM   15  C11 UNL     1       0.374   4.534  36.125  1.00  0.00     0.106 C 
HETATM   16  C14 UNL     1      -0.128   4.340  34.716  1.00  0.00     0.162 C 
HETATM   17  C15 UNL     1       0.243   2.972  34.172  1.00  0.00     0.197 C 
BRANCH  14  18
HETATM   18  O4  UNL     1       1.495   2.581  36.984  1.00  0.00    -0.363 OA
ATOM     19  H4  UNL     1       1.587   2.654  37.927  1.00  0.00     0.213 HD
ENDBRANCH  14  18
BRANCH  14  20
HETATM   20  C10 UNL     1       2.555   4.622  37.189  1.00  0.00     0.233 C 
BRANCH  20  21
HETATM   21  O5  UNL     1       3.752   3.936  37.433  1.00  0.00    -0.396 OA
ATOM     22  H5  UNL     1       4.361   4.531  37.853  1.00  0.00     0.209 HD
ENDBRANCH  20  21
ENDBRANCH  14  20
BRANCH  15  23
HETATM   23  C12 UNL     1      -0.655   4.126  37.157  1.00  0.00     0.189 C 
BRANCH  23  24
HETATM   24  O6  UNL     1      -1.292   5.285  37.594  1.00  0.00    -0.308 OA
BRANCH  24  25
HETATM   25  C13 UNL     1      -2.618   5.081  37.931  1.00  0.00     0.409 C 
BRANCH  25  26
HETATM   26  O7  UNL     1      -3.057   3.968  37.212  1.00  0.00    -0.319 OA
ATOM     27  H7  UNL     1      -3.683   3.510  37.762  1.00  0.00     0.218 HD
ENDBRANCH  25  26
BRANCH  25  28
HETATM   28  O8  UNL     1      -2.837   4.882  39.272  1.00  0.00    -0.319 OA
ATOM     29  H8  UNL     1      -3.365   4.118  39.474  1.00  0.00     0.218 HD
ENDBRANCH  25  28
BRANCH  25  30
HETATM   30  O9  UNL     1      -3.379   6.181  37.494  1.00  0.00    -0.319 OA
ATOM     31  H9  UNL     1      -4.284   6.057  37.757  1.00  0.00     0.218 HD
ENDBRANCH  25  30
ENDBRANCH  24  25
ENDBRANCH  23  24
ENDBRANCH  15  23
BRANCH  16  32
HETATM   32  O10 UNL     1      -1.486   4.599  34.588  1.00  0.00    -0.392 OA
ATOM     33  H10 UNL     1      -1.746   4.771  33.691  1.00  0.00     0.210 HD
ENDBRANCH  16  32
BRANCH  17  34
HETATM   34  O11 UNL     1      -0.357   1.943  34.858  1.00  0.00    -0.389 OA
ATOM     35  H11 UNL     1      -0.677   1.241  34.303  1.00  0.00     0.210 HD
ENDBRANCH  17  34
ENDBRANCH  11  12
BRANCH   7  36
HETATM   36  O2  UNL     1       4.917   2.534  35.200  1.00  0.00    -0.356 OA
ATOM     37  H2  UNL     1       4.396   2.614  35.991  1.00  0.00     0.218 HD
ENDBRANCH   7  36
BRANCH   6  38
HETATM   38  N4  UNL     1       7.080   1.560  34.056  1.00  0.00    -0.337 N 
ATOM     39  H4  UNL     1       7.715   1.653  34.848  1.00  0.00     0.164 HD
BRANCH  38  40
HETATM   40  C4  UNL     1       7.384   2.272  32.863  1.00  0.00     0.424 C 
BRANCH  40  41
HETATM   41  N5  UNL     1       8.555   1.688  32.241  1.00  0.00    -0.035 N 
ATOM     42  H53 UNL     1       9.407   1.874  32.770  1.00  0.00     0.279 HD
ATOM     43  H52 UNL     1       8.561   0.671  32.307  1.00  0.00     0.279 HD
ATOM     44  H51 UNL     1       8.622   2.012  31.276  1.00  0.00     0.279 HD
ENDBRANCH  40  41
BRANCH  40  45
HETATM   45  O1  UNL     1       7.712   3.613  33.145  1.00  0.00    -0.355 OA
ATOM     46  H1  UNL     1       7.209   4.207  32.601  1.00  0.00     0.213 HD
ENDBRANCH  40  45
ENDBRANCH  38  40
ENDBRANCH   6  38
BRANCH   1  47
HETATM   47  N1  UNL     1       3.318  -2.681  34.798  1.00  0.00    -0.384 N 
ATOM     48  H12 UNL     1       3.927  -3.489  34.922  1.00  0.00     0.157 HD
ATOM     49  H11 UNL     1       2.308  -2.651  34.937  1.00  0.00     0.157 HD
ENDBRANCH   1  47
TORSDOF 18
ENDMDL
MODEL 5
REMARK VINA RESULT: -6.289535452      3.482      8.004
REMARK  18 active torsions:
REMARK  status: ('A' for Active; 'I' for Inactive)
REMARK    1  A    between atoms: N1_1  and  C1_4 
REMARK    2  A    between atoms: C3_9  and  N4_10 
REMARK    3  A    between atoms: N4_10  and  C4_12 
REMARK    4  A    between atoms: C4_12  and  N5_13 
REMARK    5  A    between atoms: C4_12  and  O1_17 
REMARK    6  A    between atoms: C5_19  and  O2_20 
REMARK    7  A    between atoms: N6_25  and  C8_26 
REMARK    8  A    between atoms: C9_28  and  O4_29 
REMARK    9  A    between atoms: C9_28  and  C10_31 
REMARK   10  A    between atoms: C10_31  and  O5_32 
REMARK   11  A    between atoms: C11_34  and  C12_35 
REMARK   12  A    between atoms: C12_35  and  O6_36 
REMARK   13  A    between atoms: O6_36  and  C13_37 
REMARK   14  A    between atoms: C13_37  and  O7_38 
REMARK   15  A    between atoms: C13_37  and  O8_40 
REMARK   16  A    between atoms: C13_37  and  O9_42 
REMARK   17  A    between atoms: C14_44  and  O10_45 
REMARK   18  A    between atoms: C15_47  and  O11_48 
ROOT
HETATM    1  C1  UNL     1      -0.354   4.054  35.328  1.00  0.00     0.121 C 
HETATM    2  N2  UNL     1      -0.261   4.883  36.354  1.00  0.00    -0.328 N 
ATOM      3  H2  UNL     1      -1.029   5.545  36.465  1.00  0.00     0.168 HD
HETATM    4  C2  UNL     1       0.726   4.963  37.275  1.00  0.00     0.147 C 
HETATM    5  N3  UNL     1       0.412   5.713  38.436  1.00  0.00    -0.080 NA
HETATM    6  C3  UNL     1       1.997   4.429  37.264  1.00  0.00     0.109 C 
HETATM    7  C5  UNL     1       2.468   3.518  36.319  1.00  0.00     0.124 C 
HETATM    8  C6  UNL     1       1.739   2.639  35.493  1.00  0.00     0.101 A 
HETATM    9  C7  UNL     1       0.457   2.939  35.072  1.00  0.00     0.095 A 
HETATM   10  S1  UNL     1       0.504   1.473  34.274  1.00  0.00    -0.003 SA
HETATM   11  N6  UNL     1       2.033   1.442  34.960  1.00  0.00    -0.282 N 
ENDROOT
BRANCH  11  12
HETATM   12  C8  UNL     1       3.149   0.488  34.945  1.00  0.00     0.270 C 
HETATM   13  O3  UNL     1       4.334   1.194  34.902  1.00  0.00    -0.324 OA
HETATM   14  C9  UNL     1       4.862   1.382  33.646  1.00  0.00     0.193 C 
HETATM   15  C11 UNL     1       5.288   0.077  32.994  1.00  0.00     0.106 C 
HETATM   16  C14 UNL     1       4.416  -1.034  33.526  1.00  0.00     0.162 C 
HETATM   17  C15 UNL     1       3.020  -0.540  33.861  1.00  0.00     0.197 C 
BRANCH  14  18
HETATM   18  O4  UNL     1       4.108   2.170  32.812  1.00  0.00    -0.363 OA
ATOM     19  H4  UNL     1       4.482   2.316  31.950  1.00  0.00     0.213 HD
ENDBRANCH  14  18
BRANCH  14  20
HETATM   20  C10 UNL     1       6.159   2.166  33.872  1.00  0.00     0.233 C 
BRANCH  20  21
HETATM   21  O5  UNL     1       5.836   3.514  34.078  1.00  0.00    -0.396 OA
ATOM     22  H5  UNL     1       5.398   3.842  33.303  1.00  0.00     0.209 HD
ENDBRANCH  20  21
ENDBRANCH  14  20
BRANCH  15  23
HETATM   23  C12 UNL     1       5.234   0.169  31.484  1.00  0.00     0.189 C 
BRANCH  23  24
HETATM   24  O6  UNL     1       6.322   0.936  31.073  1.00  0.00    -0.308 OA
BRANCH  24  25
HETATM   25  C13 UNL     1       6.536   0.885  29.708  1.00  0.00     0.409 C 
BRANCH  25  26
HETATM   26  O7  UNL     1       7.327  -0.239  29.458  1.00  0.00    -0.319 OA
ATOM     27  H7  UNL     1       6.768  -0.887  29.045  1.00  0.00     0.218 HD
ENDBRANCH  25  26
BRANCH  25  28
HETATM   28  O8  UNL     1       5.388   0.819  28.956  1.00  0.00    -0.319 OA
ATOM     29  H8  UNL     1       5.433   1.289  28.131  1.00  0.00     0.218 HD
ENDBRANCH  25  28
BRANCH  25  30
HETATM   30  O9  UNL     1       7.284   2.010  29.316  1.00  0.00    -0.319 OA
ATOM     31  H9  UNL     1       8.207   1.786  29.315  1.00  0.00     0.218 HD
ENDBRANCH  25  30
ENDBRANCH  24  25
ENDBRANCH  23  24
ENDBRANCH  15  23
BRANCH  16  32
HETATM   32  O10 UNL     1       4.389  -2.143  32.691  1.00  0.00    -0.392 OA
ATOM     33  H10 UNL     1       4.429  -2.964  33.168  1.00  0.00     0.210 HD
ENDBRANCH  16  32
BRANCH  17  34
HETATM   34  O11 UNL     1       2.327  -0.106  32.756  1.00  0.00    -0.389 OA
ATOM     35  H11 UNL     1       1.898  -0.801  32.270  1.00  0.00     0.210 HD
ENDBRANCH  17  34
ENDBRANCH  11  12
BRANCH   7  36
HETATM   36  O2  UNL     1       3.847   3.528  36.226  1.00  0.00    -0.356 OA
ATOM     37  H2  UNL     1       4.231   2.705  36.502  1.00  0.00     0.218 HD
ENDBRANCH   7  36
BRANCH   6  38
HETATM   38  N4  UNL     1       2.903   4.841  38.305  1.00  0.00    -0.337 N 
ATOM     39  H4  UNL     1       3.570   5.584  38.099  1.00  0.00     0.164 HD
BRANCH  38  40
HETATM   40  C4  UNL     1       2.918   4.265  39.605  1.00  0.00     0.424 C 
BRANCH  40  41
HETATM   41  N5  UNL     1       1.971   3.170  39.656  1.00  0.00    -0.035 N 
ATOM     42  H53 UNL     1       1.004   3.495  39.664  1.00  0.00     0.279 HD
ATOM     43  H52 UNL     1       1.941   2.644  38.783  1.00  0.00     0.279 HD
ATOM     44  H51 UNL     1       2.185   2.575  40.457  1.00  0.00     0.279 HD
ENDBRANCH  40  41
BRANCH  40  45
HETATM   45  O1  UNL     1       2.498   5.198  40.574  1.00  0.00    -0.355 OA
ATOM     46  H1  UNL     1       2.596   4.845  41.451  1.00  0.00     0.213 HD
ENDBRANCH  40  45
ENDBRANCH  38  40
ENDBRANCH   6  38
BRANCH   1  47
HETATM   47  N1  UNL     1      -1.274   4.250  34.445  1.00  0.00    -0.384 N 
ATOM     48  H12 UNL     1      -0.924   4.568  33.542  1.00  0.00     0.157 HD
ATOM     49  H11 UNL     1      -2.248   4.080  34.697  1.00  0.00     0.157 HD
ENDBRANCH   1  47
TORSDOF 18
ENDMDL
