MODEL 1
REMARK VINA RESULT: -8.643448411      0.000      0.000
REMARK  19 active torsions:
REMARK  status: ('A' for Active; 'I' for Inactive)
REMARK    1  A    between atoms: C3_3  and  N1_4 
REMARK       I    between atoms: N1_4  and  C4_6 
REMARK    2  A    between atoms: C4_6  and  C5_8 
REMARK    3  A    between atoms: C5_8  and  C6_9 
REMARK    4  A    between atoms: C5_8  and  N2_12 
REMARK    5  A    between atoms: C6_9  and  C7_10 
REMARK       I    between atoms: N2_12  and  C9_14 
REMARK    6  A    between atoms: C9_14  and  C10_16 
REMARK    7  A    between atoms: C10_16  and  N3_17 
REMARK    8  A    between atoms: N3_17  and  C11_19 
REMARK    9  A    between atoms: C11_19  and  O3_20 
REMARK   10  A    between atoms: C11_19  and  C12_22 
REMARK   11  A    between atoms: C12_22  and  C13_23 
REMARK   12  A    between atoms: C13_23  and  N4_24 
REMARK   13  A    between atoms: N4_24  and  C14_26 
REMARK   14  A    between atoms: C14_26  and  O4_27 
REMARK   15  A    between atoms: C14_26  and  C15_29 
REMARK   16  A    between atoms: C15_29  and  N5_30 
REMARK   17  A    between atoms: C15_29  and  C21_39 
REMARK       I    between atoms: N5_30  and  C16_32 
REMARK   18  A    between atoms: C16_32  and  O6_34 
REMARK   19  A    between atoms: O6_34  and  C17_35 
ROOT
HETATM    1  C1  UNL     1       2.720  -3.492  17.243  1.00  0.00     0.014 C 
HETATM    2  C2  UNL     1       3.695  -4.096  16.955  1.00  0.00    -0.098 C 
HETATM    3  C3  UNL     1       4.903  -4.831  16.622  1.00  0.00     0.216 C 
ENDROOT
BRANCH   3   4
HETATM    4  N1  UNL     1       5.486  -4.419  15.359  1.00  0.00    -0.349 N 
HETATM    5  C4  UNL     1       6.551  -3.485  15.311  1.00  0.00     0.241 C 
HETATM    6  O1  UNL     1       7.024  -2.983  16.353  1.00  0.00    -0.271 OA
ATOM      7  H1  UNL     1       5.123  -4.810  14.490  1.00  0.00     0.163 HD
BRANCH   5   8
HETATM    8  C5  UNL     1       7.121  -3.095  13.982  1.00  0.00     0.180 C 
BRANCH   8   9
HETATM    9  C6  UNL     1       8.607  -3.240  14.029  1.00  0.00     0.061 C 
BRANCH   9  10
HETATM   10  C7  UNL     1       9.064  -4.629  13.827  1.00  0.00    -0.034 C 
HETATM   11  C8  UNL     1       9.736  -5.285  14.747  1.00  0.00     0.007 C 
ENDBRANCH   9  10
ENDBRANCH   8   9
BRANCH   8  12
HETATM   12  N2  UNL     1       6.637  -1.787  13.655  1.00  0.00    -0.343 N 
HETATM   13  C9  UNL     1       5.948  -1.457  12.476  1.00  0.00     0.275 C 
HETATM   14  O2  UNL     1       5.717  -2.337  11.622  1.00  0.00    -0.268 OA
ATOM     15  H2  UNL     1       6.804  -1.040  14.329  1.00  0.00     0.163 HD
BRANCH  13  16
HETATM   16  C10 UNL     1       5.479  -0.079  12.223  1.00  0.00     0.232 C 
HETATM   17  O7  UNL     1       5.613   0.733  13.362  1.00  0.00    -0.279 OA
HETATM   18  C30 UNL     1       6.785   1.485  13.234  1.00  0.00     0.267 C 
HETATM   19  O8  UNL     1       7.596   1.857  14.120  1.00  0.00    -0.265 OA
HETATM   20  C31 UNL     1       6.901   1.777  11.807  1.00  0.00     0.104 A 
HETATM   21  C32 UNL     1       6.178   0.605  11.094  1.00  0.00     0.075 A 
HETATM   22  C33 UNL     1       7.609   0.827  10.946  1.00  0.00    -0.025 A 
HETATM   23  C34 UNL     1       8.698  -0.031  11.487  1.00  0.00     0.016 C 
HETATM   24  C35 UNL     1       8.002   1.444   9.579  1.00  0.00     0.016 C 
BRANCH  16  25
HETATM   25  N3  UNL     1       4.062  -0.190  11.839  1.00  0.00    -0.332 N 
ATOM     26  H3  UNL     1       3.786  -0.920  11.183  1.00  0.00     0.165 HD
BRANCH  25  27
HETATM   27  C11 UNL     1       3.090   0.662  12.337  1.00  0.00     0.153 C 
BRANCH  27  28
HETATM   28  O3  UNL     1       2.927   0.661  13.630  1.00  0.00    -0.348 OA
ATOM     29  H3  UNL     1       2.726   1.499  14.031  1.00  0.00     0.219 HD
ENDBRANCH  27  28
BRANCH  27  30
HETATM   30  C12 UNL     1       2.188   1.589  11.652  1.00  0.00     0.213 C 
HETATM   31  C25 UNL     1       0.855   1.640  12.413  1.00  0.00     0.060 C 
HETATM   32  C26 UNL     1       0.080   2.661  11.637  1.00  0.00     0.037 C 
HETATM   33  C29 UNL     1       0.583   0.415  11.555  1.00  0.00     0.246 C 
HETATM   34  C27 UNL     1       0.514   2.262  10.239  1.00  0.00     0.239 C 
HETATM   35  N6  UNL     1       1.388   1.127  10.563  1.00  0.00    -0.052 N 
HETATM   36  C28 UNL     1       1.920   0.423   9.483  1.00  0.00     0.274 C 
BRANCH  30  37
HETATM   37  C13 UNL     1       2.792   2.959  11.477  1.00  0.00     0.170 C 
BRANCH  37  38
HETATM   38  N4  UNL     1       3.868   3.058  10.544  1.00  0.00    -0.370 N 
ATOM     39  H4  UNL     1       4.389   2.227  10.266  1.00  0.00     0.161 HD
BRANCH  38  40
HETATM   40  C14 UNL     1       4.201   4.327  10.011  1.00  0.00     0.135 C 
BRANCH  40  41
HETATM   41  O4  UNL     1       4.485   5.273  10.879  1.00  0.00    -0.348 OA
ATOM     42  H4  UNL     1       4.086   6.122  10.727  1.00  0.00     0.219 HD
ENDBRANCH  40  41
BRANCH  40  43
HETATM   43  C15 UNL     1       4.273   4.753   8.616  1.00  0.00     0.168 C 
BRANCH  43  44
HETATM   44  N5  UNL     1       5.163   3.824   7.899  1.00  0.00    -0.324 N 
HETATM   45  C16 UNL     1       6.438   4.191   7.410  1.00  0.00     0.362 C 
HETATM   46  O5  UNL     1       6.930   5.345   7.543  1.00  0.00    -0.238 OA
ATOM     47  H5  UNL     1       4.843   2.867   7.747  1.00  0.00     0.165 HD
BRANCH  45  48
HETATM   48  O6  UNL     1       7.204   3.249   6.749  1.00  0.00    -0.294 OA
BRANCH  48  49
HETATM   49  C17 UNL     1       7.315   3.084   5.371  1.00  0.00     0.061 C 
HETATM   50  C18 UNL     1       6.113   3.601   4.595  1.00  0.00     0.046 C 
HETATM   51  C19 UNL     1       7.575   1.647   4.972  1.00  0.00     0.046 C 
HETATM   52  C20 UNL     1       8.504   3.908   4.904  1.00  0.00     0.046 C 
ENDBRANCH  48  49
ENDBRANCH  45  48
ENDBRANCH  43  44
BRANCH  43  53
HETATM   53  C21 UNL     1       2.948   4.812   7.953  1.00  0.00    -0.023 C 
HETATM   54  C22 UNL     1       1.877   5.326   8.867  1.00  0.00     0.017 C 
HETATM   55  C23 UNL     1       2.485   3.448   7.457  1.00  0.00     0.017 C 
HETATM   56  C24 UNL     1       2.949   5.703   6.719  1.00  0.00     0.017 C 
ENDBRANCH  43  53
ENDBRANCH  40  43
ENDBRANCH  38  40
ENDBRANCH  37  38
ENDBRANCH  30  37
ENDBRANCH  27  30
ENDBRANCH  25  27
ENDBRANCH  16  25
ENDBRANCH  13  16
ENDBRANCH   8  12
ENDBRANCH   5   8
ENDBRANCH   3   4
TORSDOF 19
ENDMDL
MODEL 2
REMARK VINA RESULT: -8.512932947      2.100      5.795
REMARK  19 active torsions:
REMARK  status: ('A' for Active; 'I' for Inactive)
REMARK    1  A    between atoms: C3_3  and  N1_4 
REMARK       I    between atoms: N1_4  and  C4_6 
REMARK    2  A    between atoms: C4_6  and  C5_8 
REMARK    3  A    between atoms: C5_8  and  C6_9 
REMARK    4  A    between atoms: C5_8  and  N2_12 
REMARK    5  A    between atoms: C6_9  and  C7_10 
REMARK       I    between atoms: N2_12  and  C9_14 
REMARK    6  A    between atoms: C9_14  and  C10_16 
REMARK    7  A    between atoms: C10_16  and  N3_17 
REMARK    8  A    between atoms: N3_17  and  C11_19 
REMARK    9  A    between atoms: C11_19  and  O3_20 
REMARK   10  A    between atoms: C11_19  and  C12_22 
REMARK   11  A    between atoms: C12_22  and  C13_23 
REMARK   12  A    between atoms: C13_23  and  N4_24 
REMARK   13  A    between atoms: N4_24  and  C14_26 
REMARK   14  A    between atoms: C14_26  and  O4_27 
REMARK   15  A    between atoms: C14_26  and  C15_29 
REMARK   16  A    between atoms: C15_29  and  N5_30 
REMARK   17  A    between atoms: C15_29  and  C21_39 
REMARK       I    between atoms: N5_30  and  C16_32 
REMARK   18  A    between atoms: C16_32  and  O6_34 
REMARK   19  A    between atoms: O6_34  and  C17_35 
ROOT
HETATM    1  C1  UNL     1       3.823 -10.479  13.993  1.00  0.00     0.014 C 
HETATM    2  C2  UNL     1       4.219  -9.914  14.953  1.00  0.00    -0.098 C 
HETATM    3  C3  UNL     1       4.694  -9.237  16.147  1.00  0.00     0.216 C 
ENDROOT
BRANCH   3   4
HETATM    4  N1  UNL     1       4.339  -7.831  16.179  1.00  0.00    -0.349 N 
HETATM    5  C4  UNL     1       5.165  -6.879  16.828  1.00  0.00     0.241 C 
HETATM    6  O1  UNL     1       6.225  -7.217  17.396  1.00  0.00    -0.271 OA
ATOM      7  H1  UNL     1       3.479  -7.522  15.726  1.00  0.00     0.163 HD
BRANCH   5   8
HETATM    8  C5  UNL     1       4.756  -5.437  16.830  1.00  0.00     0.180 C 
BRANCH   8   9
HETATM    9  C6  UNL     1       3.277  -5.351  16.640  1.00  0.00     0.061 C 
BRANCH   9  10
HETATM   10  C7  UNL     1       2.872  -4.287  15.700  1.00  0.00    -0.034 C 
HETATM   11  C8  UNL     1       2.260  -4.552  14.566  1.00  0.00     0.007 C 
ENDBRANCH   9  10
ENDBRANCH   8   9
BRANCH   8  12
HETATM   12  N2  UNL     1       5.546  -4.749  15.853  1.00  0.00    -0.343 N 
HETATM   13  C9  UNL     1       6.640  -3.919  16.146  1.00  0.00     0.275 C 
HETATM   14  O2  UNL     1       6.988  -3.740  17.331  1.00  0.00    -0.268 OA
ATOM     15  H2  UNL     1       5.295  -4.871  14.873  1.00  0.00     0.163 HD
BRANCH  13  16
HETATM   16  C10 UNL     1       7.404  -3.250  15.072  1.00  0.00     0.232 C 
HETATM   17  O7  UNL     1       8.286  -2.285  15.586  1.00  0.00    -0.279 OA
HETATM   18  C30 UNL     1       9.564  -2.849  15.660  1.00  0.00     0.267 C 
HETATM   19  O8  UNL     1      10.473  -2.660  16.509  1.00  0.00    -0.265 OA
HETATM   20  C31 UNL     1       9.657  -3.743  14.508  1.00  0.00     0.104 A 
HETATM   21  C32 UNL     1       8.199  -4.181  14.218  1.00  0.00     0.075 A 
HETATM   22  C33 UNL     1       9.212  -5.131  14.653  1.00  0.00    -0.025 A 
HETATM   23  C34 UNL     1       9.272  -5.820  15.971  1.00  0.00     0.016 C 
HETATM   24  C35 UNL     1       9.736  -6.043  13.514  1.00  0.00     0.016 C 
BRANCH  16  25
HETATM   25  N3  UNL     1       6.408  -2.613  14.193  1.00  0.00    -0.332 N 
ATOM     26  H3  UNL     1       5.756  -3.206  13.680  1.00  0.00     0.165 HD
BRANCH  25  27
HETATM   27  C11 UNL     1       6.326  -1.240  14.039  1.00  0.00     0.153 C 
BRANCH  27  28
HETATM   28  O3  UNL     1       5.947  -0.562  15.086  1.00  0.00    -0.348 OA
ATOM     29  H3  UNL     1       6.580  -0.485  15.791  1.00  0.00     0.219 HD
ENDBRANCH  27  28
BRANCH  27  30
HETATM   30  C12 UNL     1       6.594  -0.389  12.880  1.00  0.00     0.213 C 
HETATM   31  C25 UNL     1       7.795  -0.958  12.111  1.00  0.00     0.060 C 
HETATM   32  C26 UNL     1       7.899  -0.029  10.940  1.00  0.00     0.037 C 
HETATM   33  C29 UNL     1       8.551  -0.142  13.146  1.00  0.00     0.246 C 
HETATM   34  C27 UNL     1       7.589   1.274  11.656  1.00  0.00     0.239 C 
HETATM   35  N6  UNL     1       7.415   0.771  13.024  1.00  0.00    -0.052 N 
HETATM   36  C28 UNL     1       7.199   1.728  14.015  1.00  0.00     0.274 C 
BRANCH  30  37
HETATM   37  C13 UNL     1       5.384  -0.220  11.995  1.00  0.00     0.170 C 
BRANCH  37  38
HETATM   38  N4  UNL     1       4.115  -0.289  12.644  1.00  0.00    -0.370 N 
ATOM     39  H4  UNL     1       3.651  -1.187  12.779  1.00  0.00     0.161 HD
BRANCH  38  40
HETATM   40  C14 UNL     1       3.509   0.907  13.098  1.00  0.00     0.135 C 
BRANCH  40  41
HETATM   41  O4  UNL     1       3.818   1.297  14.316  1.00  0.00    -0.348 OA
ATOM     42  H4  UNL     1       3.091   1.479  14.901  1.00  0.00     0.219 HD
ENDBRANCH  40  41
BRANCH  40  43
HETATM   43  C15 UNL     1       2.569   1.787  12.409  1.00  0.00     0.168 C 
BRANCH  43  44
HETATM   44  N5  UNL     1       3.196   2.229  11.151  1.00  0.00    -0.324 N 
HETATM   45  C16 UNL     1       3.252   3.583  10.745  1.00  0.00     0.362 C 
HETATM   46  O5  UNL     1       2.769   4.534  11.420  1.00  0.00    -0.238 OA
ATOM     47  H5  UNL     1       3.611   1.524  10.542  1.00  0.00     0.165 HD
BRANCH  45  48
HETATM   48  O6  UNL     1       3.862   3.904   9.547  1.00  0.00    -0.294 OA
BRANCH  48  49
HETATM   49  C17 UNL     1       3.231   4.156   8.331  1.00  0.00     0.061 C 
HETATM   50  C18 UNL     1       2.526   5.503   8.277  1.00  0.00     0.046 C 
HETATM   51  C19 UNL     1       2.246   3.072   7.946  1.00  0.00     0.046 C 
HETATM   52  C20 UNL     1       4.304   4.198   7.256  1.00  0.00     0.046 C 
ENDBRANCH  48  49
ENDBRANCH  45  48
ENDBRANCH  43  44
BRANCH  43  53
HETATM   53  C21 UNL     1       1.261   1.146  12.134  1.00  0.00    -0.023 C 
HETATM   54  C22 UNL     1       0.890   0.140  13.180  1.00  0.00     0.017 C 
HETATM   55  C23 UNL     1       1.240   0.418  10.796  1.00  0.00     0.017 C 
HETATM   56  C24 UNL     1       0.121   2.152  12.055  1.00  0.00     0.017 C 
ENDBRANCH  43  53
ENDBRANCH  40  43
ENDBRANCH  38  40
ENDBRANCH  37  38
ENDBRANCH  30  37
ENDBRANCH  27  30
ENDBRANCH  25  27
ENDBRANCH  16  25
ENDBRANCH  13  16
ENDBRANCH   8  12
ENDBRANCH   5   8
ENDBRANCH   3   4
TORSDOF 19
ENDMDL
MODEL 3
REMARK VINA RESULT: -8.499352228      3.733     11.929
REMARK  19 active torsions:
REMARK  status: ('A' for Active; 'I' for Inactive)
REMARK    1  A    between atoms: C3_3  and  N1_4 
REMARK       I    between atoms: N1_4  and  C4_6 
REMARK    2  A    between atoms: C4_6  and  C5_8 
REMARK    3  A    between atoms: C5_8  and  C6_9 
REMARK    4  A    between atoms: C5_8  and  N2_12 
REMARK    5  A    between atoms: C6_9  and  C7_10 
REMARK       I    between atoms: N2_12  and  C9_14 
REMARK    6  A    between atoms: C9_14  and  C10_16 
REMARK    7  A    between atoms: C10_16  and  N3_17 
REMARK    8  A    between atoms: N3_17  and  C11_19 
REMARK    9  A    between atoms: C11_19  and  O3_20 
REMARK   10  A    between atoms: C11_19  and  C12_22 
REMARK   11  A    between atoms: C12_22  and  C13_23 
REMARK   12  A    between atoms: C13_23  and  N4_24 
REMARK   13  A    between atoms: N4_24  and  C14_26 
REMARK   14  A    between atoms: C14_26  and  O4_27 
REMARK   15  A    between atoms: C14_26  and  C15_29 
REMARK   16  A    between atoms: C15_29  and  N5_30 
REMARK   17  A    between atoms: C15_29  and  C21_39 
REMARK       I    between atoms: N5_30  and  C16_32 
REMARK   18  A    between atoms: C16_32  and  O6_34 
REMARK   19  A    between atoms: O6_34  and  C17_35 
ROOT
HETATM    1  C1  UNL     1       8.561   0.067  11.264  1.00  0.00     0.014 C 
HETATM    2  C2  UNL     1       7.483   0.534  11.391  1.00  0.00    -0.098 C 
HETATM    3  C3  UNL     1       6.167   1.125  11.564  1.00  0.00     0.216 C 
ENDROOT
BRANCH   3   4
HETATM    4  N1  UNL     1       5.167   0.165  11.992  1.00  0.00    -0.349 N 
HETATM    5  C4  UNL     1       4.002   0.577  12.686  1.00  0.00     0.241 C 
HETATM    6  O1  UNL     1       3.795   1.780  12.954  1.00  0.00    -0.271 OA
ATOM      7  H1  UNL     1       5.305  -0.825  11.789  1.00  0.00     0.163 HD
BRANCH   5   8
HETATM    8  C5  UNL     1       2.997  -0.453  13.103  1.00  0.00     0.180 C 
BRANCH   8   9
HETATM    9  C6  UNL     1       1.676   0.212  13.311  1.00  0.00     0.061 C 
BRANCH   9  10
HETATM   10  C7  UNL     1       0.687  -0.118  12.265  1.00  0.00    -0.034 C 
HETATM   11  C8  UNL     1       0.836   0.266  11.016  1.00  0.00     0.007 C 
ENDBRANCH   9  10
ENDBRANCH   8   9
BRANCH   8  12
HETATM   12  N2  UNL     1       3.522  -1.155  14.236  1.00  0.00    -0.343 N 
HETATM   13  C9  UNL     1       4.340  -2.294  14.167  1.00  0.00     0.275 C 
HETATM   14  O2  UNL     1       4.662  -2.764  13.057  1.00  0.00    -0.268 OA
ATOM     15  H2  UNL     1       3.283  -0.800  15.162  1.00  0.00     0.163 HD
BRANCH  13  16
HETATM   16  C10 UNL     1       4.842  -2.952  15.391  1.00  0.00     0.232 C 
HETATM   17  O7  UNL     1       4.276  -2.395  16.550  1.00  0.00    -0.279 OA
HETATM   18  C30 UNL     1       3.222  -3.214  16.966  1.00  0.00     0.267 C 
HETATM   19  O8  UNL     1       2.131  -2.899  17.507  1.00  0.00    -0.265 OA
HETATM   20  C31 UNL     1       3.642  -4.575  16.641  1.00  0.00     0.104 A 
HETATM   21  C32 UNL     1       4.602  -4.425  15.434  1.00  0.00     0.075 A 
HETATM   22  C33 UNL     1       3.326  -5.116  15.317  1.00  0.00    -0.025 A 
HETATM   23  C34 UNL     1       2.131  -4.646  14.564  1.00  0.00     0.016 C 
HETATM   24  C35 UNL     1       3.459  -6.659  15.259  1.00  0.00     0.016 C 
BRANCH  16  25
HETATM   25  N3  UNL     1       6.302  -2.761  15.394  1.00  0.00    -0.332 N 
ATOM     26  H3  UNL     1       6.715  -2.121  14.715  1.00  0.00     0.165 HD
BRANCH  25  27
HETATM   27  C11 UNL     1       7.135  -3.417  16.284  1.00  0.00     0.153 C 
BRANCH  27  28
HETATM   28  O3  UNL     1       6.871  -3.256  17.550  1.00  0.00    -0.348 OA
ATOM     29  H3  UNL     1       7.565  -3.481  18.158  1.00  0.00     0.219 HD
ENDBRANCH  27  28
BRANCH  27  30
HETATM   30  C12 UNL     1       8.291  -4.283  16.053  1.00  0.00     0.213 C 
HETATM   31  C25 UNL     1       9.461  -3.795  16.919  1.00  0.00     0.060 C 
HETATM   32  C26 UNL     1      10.527  -4.805  16.621  1.00  0.00     0.037 C 
HETATM   33  C29 UNL     1       9.654  -2.869  15.730  1.00  0.00     0.246 C 
HETATM   34  C27 UNL     1      10.276  -4.969  15.133  1.00  0.00     0.239 C 
HETATM   35  N6  UNL     1       9.172  -4.016  14.960  1.00  0.00    -0.052 N 
HETATM   36  C28 UNL     1       8.717  -3.820  13.657  1.00  0.00     0.274 C 
BRANCH  30  37
HETATM   37  C13 UNL     1       7.979  -5.739  16.291  1.00  0.00     0.170 C 
BRANCH  37  38
HETATM   38  N4  UNL     1       6.702  -6.024  16.860  1.00  0.00    -0.370 N 
ATOM     39  H4  UNL     1       5.848  -5.730  16.387  1.00  0.00     0.161 HD
BRANCH  38  40
HETATM   40  C14 UNL     1       6.637  -6.720  18.092  1.00  0.00     0.135 C 
BRANCH  40  41
HETATM   41  O4  UNL     1       6.750  -5.995  19.183  1.00  0.00    -0.348 OA
ATOM     42  H4  UNL     1       6.255  -6.287  19.940  1.00  0.00     0.219 HD
ENDBRANCH  40  41
BRANCH  40  43
HETATM   43  C15 UNL     1       6.470  -8.150  18.338  1.00  0.00     0.168 C 
BRANCH  43  44
HETATM   44  N5  UNL     1       5.575  -8.690  17.299  1.00  0.00    -0.324 N 
HETATM   45  C16 UNL     1       4.410  -9.437  17.590  1.00  0.00     0.362 C 
HETATM   46  O5  UNL     1       4.030  -9.709  18.762  1.00  0.00    -0.238 OA
ATOM     47  H5  UNL     1       5.808  -8.518  16.321  1.00  0.00     0.165 HD
BRANCH  45  48
HETATM   48  O6  UNL     1       3.630  -9.903  16.548  1.00  0.00    -0.294 OA
BRANCH  48  49
HETATM   49  C17 UNL     1       3.918 -10.975  15.707  1.00  0.00     0.061 C 
HETATM   50  C18 UNL     1       5.134 -11.781  16.138  1.00  0.00     0.046 C 
HETATM   51  C19 UNL     1       4.095 -10.555  14.263  1.00  0.00     0.046 C 
HETATM   52  C20 UNL     1       2.738 -11.932  15.760  1.00  0.00     0.046 C 
ENDBRANCH  48  49
ENDBRANCH  45  48
ENDBRANCH  43  44
BRANCH  43  53
HETATM   53  C21 UNL     1       7.750  -8.896  18.352  1.00  0.00    -0.023 C 
HETATM   54  C22 UNL     1       8.897  -8.048  18.812  1.00  0.00     0.017 C 
HETATM   55  C23 UNL     1       8.126  -9.435  16.978  1.00  0.00     0.017 C 
HETATM   56  C24 UNL     1       7.706 -10.118  19.258  1.00  0.00     0.017 C 
ENDBRANCH  43  53
ENDBRANCH  40  43
ENDBRANCH  38  40
ENDBRANCH  37  38
ENDBRANCH  30  37
ENDBRANCH  27  30
ENDBRANCH  25  27
ENDBRANCH  16  25
ENDBRANCH  13  16
ENDBRANCH   8  12
ENDBRANCH   5   8
ENDBRANCH   3   4
TORSDOF 19
ENDMDL
MODEL 4
REMARK VINA RESULT: -8.479071443      1.911      9.600
REMARK  19 active torsions:
REMARK  status: ('A' for Active; 'I' for Inactive)
REMARK    1  A    between atoms: C3_3  and  N1_4 
REMARK       I    between atoms: N1_4  and  C4_6 
REMARK    2  A    between atoms: C4_6  and  C5_8 
REMARK    3  A    between atoms: C5_8  and  C6_9 
REMARK    4  A    between atoms: C5_8  and  N2_12 
REMARK    5  A    between atoms: C6_9  and  C7_10 
REMARK       I    between atoms: N2_12  and  C9_14 
REMARK    6  A    between atoms: C9_14  and  C10_16 
REMARK    7  A    between atoms: C10_16  and  N3_17 
REMARK    8  A    between atoms: N3_17  and  C11_19 
REMARK    9  A    between atoms: C11_19  and  O3_20 
REMARK   10  A    between atoms: C11_19  and  C12_22 
REMARK   11  A    between atoms: C12_22  and  C13_23 
REMARK   12  A    between atoms: C13_23  and  N4_24 
REMARK   13  A    between atoms: N4_24  and  C14_26 
REMARK   14  A    between atoms: C14_26  and  O4_27 
REMARK   15  A    between atoms: C14_26  and  C15_29 
REMARK   16  A    between atoms: C15_29  and  N5_30 
REMARK   17  A    between atoms: C15_29  and  C21_39 
REMARK       I    between atoms: N5_30  and  C16_32 
REMARK   18  A    between atoms: C16_32  and  O6_34 
REMARK   19  A    between atoms: O6_34  and  C17_35 
ROOT
HETATM    1  C1  UNL     1       8.042   1.668   4.794  1.00  0.00     0.014 C 
HETATM    2  C2  UNL     1       7.574   2.606   5.341  1.00  0.00    -0.098 C 
HETATM    3  C3  UNL     1       7.019   3.772   6.006  1.00  0.00     0.216 C 
ENDROOT
BRANCH   3   4
HETATM    4  N1  UNL     1       6.701   3.530   7.401  1.00  0.00    -0.349 N 
HETATM    5  C4  UNL     1       7.046   4.467   8.407  1.00  0.00     0.241 C 
HETATM    6  O1  UNL     1       7.637   5.533   8.129  1.00  0.00    -0.271 OA
ATOM      7  H1  UNL     1       6.220   2.670   7.662  1.00  0.00     0.163 HD
BRANCH   5   8
HETATM    8  C5  UNL     1       6.692   4.172   9.832  1.00  0.00     0.180 C 
BRANCH   8   9
HETATM    9  C6  UNL     1       7.913   3.692  10.547  1.00  0.00     0.061 C 
BRANCH   9  10
HETATM   10  C7  UNL     1       8.006   4.186  11.936  1.00  0.00    -0.034 C 
HETATM   11  C8  UNL     1       7.566   5.374  12.286  1.00  0.00     0.007 C 
ENDBRANCH   9  10
ENDBRANCH   8   9
BRANCH   8  12
HETATM   12  N2  UNL     1       5.577   3.272   9.838  1.00  0.00    -0.343 N 
HETATM   13  C9  UNL     1       4.517   3.312  10.758  1.00  0.00     0.275 C 
HETATM   14  O2  UNL     1       4.502   4.181  11.654  1.00  0.00    -0.268 OA
ATOM     15  H2  UNL     1       5.552   2.549   9.119  1.00  0.00     0.163 HD
BRANCH  13  16
HETATM   16  C10 UNL     1       3.403   2.345  10.686  1.00  0.00     0.232 C 
HETATM   17  O7  UNL     1       2.439   2.588  11.679  1.00  0.00    -0.279 OA
HETATM   18  C30 UNL     1       1.386   3.308  11.107  1.00  0.00     0.267 C 
HETATM   19  O8  UNL     1       0.660   4.201  11.614  1.00  0.00    -0.265 OA
HETATM   20  C31 UNL     1       1.275   2.804   9.740  1.00  0.00     0.104 A 
HETATM   21  C32 UNL     1       2.700   2.321   9.369  1.00  0.00     0.075 A 
HETATM   22  C33 UNL     1       2.068   3.440   8.685  1.00  0.00    -0.025 A 
HETATM   23  C34 UNL     1       2.461   4.872   8.782  1.00  0.00     0.016 C 
HETATM   24  C35 UNL     1       1.556   3.089   7.265  1.00  0.00     0.016 C 
BRANCH  16  25
HETATM   25  N3  UNL     1       4.001   1.012  10.872  1.00  0.00    -0.332 N 
ATOM     26  H3  UNL     1       4.408   0.540  10.064  1.00  0.00     0.165 HD
BRANCH  25  27
HETATM   27  C11 UNL     1       4.030   0.377  12.102  1.00  0.00     0.153 C 
BRANCH  27  28
HETATM   28  O3  UNL     1       2.910  -0.154  12.505  1.00  0.00    -0.348 OA
ATOM     29  H3  UNL     1       2.971  -1.017  12.900  1.00  0.00     0.219 HD
ENDBRANCH  27  28
BRANCH  27  30
HETATM   30  C12 UNL     1       5.123   0.190  13.057  1.00  0.00     0.213 C 
HETATM   31  C25 UNL     1       6.210   1.238  12.781  1.00  0.00     0.060 C 
HETATM   32  C26 UNL     1       7.210   0.959  13.862  1.00  0.00     0.037 C 
HETATM   33  C29 UNL     1       6.640   0.190  11.767  1.00  0.00     0.246 C 
HETATM   34  C27 UNL     1       7.139  -0.557  13.852  1.00  0.00     0.239 C 
HETATM   35  N6  UNL     1       6.158  -0.753  12.776  1.00  0.00    -0.052 N 
HETATM   36  C28 UNL     1       5.896  -2.072  12.408  1.00  0.00     0.274 C 
BRANCH  30  37
HETATM   37  C13 UNL     1       4.651   0.228  14.489  1.00  0.00     0.170 C 
BRANCH  37  38
HETATM   38  N4  UNL     1       3.989  -0.943  14.964  1.00  0.00    -0.370 N 
ATOM     39  H4  UNL     1       3.047  -1.170  14.645  1.00  0.00     0.161 HD
BRANCH  38  40
HETATM   40  C14 UNL     1       4.658  -1.786  15.884  1.00  0.00     0.135 C 
BRANCH  40  41
HETATM   41  O4  UNL     1       5.177  -1.205  16.943  1.00  0.00    -0.348 OA
ATOM     42  H4  UNL     1       5.763  -1.733  17.473  1.00  0.00     0.219 HD
ENDBRANCH  40  41
BRANCH  40  43
HETATM   43  C15 UNL     1       4.870  -3.230  15.829  1.00  0.00     0.168 C 
BRANCH  43  44
HETATM   44  N5  UNL     1       6.054  -3.549  16.646  1.00  0.00    -0.324 N 
HETATM   45  C16 UNL     1       7.326  -3.829  16.095  1.00  0.00     0.362 C 
HETATM   46  O5  UNL     1       7.563  -3.833  14.855  1.00  0.00    -0.238 OA
ATOM     47  H5  UNL     1       5.952  -3.570  17.661  1.00  0.00     0.165 HD
BRANCH  45  48
HETATM   48  O6  UNL     1       8.380  -4.118  16.941  1.00  0.00    -0.294 OA
BRANCH  48  49
HETATM   49  C17 UNL     1       8.965  -5.364  17.148  1.00  0.00     0.061 C 
HETATM   50  C18 UNL     1       9.435  -6.039  15.867  1.00  0.00     0.046 C 
HETATM   51  C19 UNL     1       8.062  -6.317  17.902  1.00  0.00     0.046 C 
HETATM   52  C20 UNL     1      10.211  -5.153  17.993  1.00  0.00     0.046 C 
ENDBRANCH  48  49
ENDBRANCH  45  48
ENDBRANCH  43  44
BRANCH  43  53
HETATM   53  C21 UNL     1       3.700  -4.012  16.294  1.00  0.00    -0.023 C 
HETATM   54  C22 UNL     1       2.797  -4.409  15.165  1.00  0.00     0.017 C 
HETATM   55  C23 UNL     1       2.843  -3.242  17.290  1.00  0.00     0.017 C 
HETATM   56  C24 UNL     1       4.098  -5.290  17.018  1.00  0.00     0.017 C 
ENDBRANCH  43  53
ENDBRANCH  40  43
ENDBRANCH  38  40
ENDBRANCH  37  38
ENDBRANCH  30  37
ENDBRANCH  27  30
ENDBRANCH  25  27
ENDBRANCH  16  25
ENDBRANCH  13  16
ENDBRANCH   8  12
ENDBRANCH   5   8
ENDBRANCH   3   4
TORSDOF 19
ENDMDL
MODEL 5
REMARK VINA RESULT: -8.337466144      2.901     10.671
REMARK  19 active torsions:
REMARK  status: ('A' for Active; 'I' for Inactive)
REMARK    1  A    between atoms: C3_3  and  N1_4 
REMARK       I    between atoms: N1_4  and  C4_6 
REMARK    2  A    between atoms: C4_6  and  C5_8 
REMARK    3  A    between atoms: C5_8  and  C6_9 
REMARK    4  A    between atoms: C5_8  and  N2_12 
REMARK    5  A    between atoms: C6_9  and  C7_10 
REMARK       I    between atoms: N2_12  and  C9_14 
REMARK    6  A    between atoms: C9_14  and  C10_16 
REMARK    7  A    between atoms: C10_16  and  N3_17 
REMARK    8  A    between atoms: N3_17  and  C11_19 
REMARK    9  A    between atoms: C11_19  and  O3_20 
REMARK   10  A    between atoms: C11_19  and  C12_22 
REMARK   11  A    between atoms: C12_22  and  C13_23 
REMARK   12  A    between atoms: C13_23  and  N4_24 
REMARK   13  A    between atoms: N4_24  and  C14_26 
REMARK   14  A    between atoms: C14_26  and  O4_27 
REMARK   15  A    between atoms: C14_26  and  C15_29 
REMARK   16  A    between atoms: C15_29  and  N5_30 
REMARK   17  A    between atoms: C15_29  and  C21_39 
REMARK       I    between atoms: N5_30  and  C16_32 
REMARK   18  A    between atoms: C16_32  and  O6_34 
REMARK   19  A    between atoms: O6_34  and  C17_35 
ROOT
HETATM    1  C1  UNL     1       7.441   3.952  10.748  1.00  0.00     0.014 C 
HETATM    2  C2  UNL     1       6.478   3.568  10.181  1.00  0.00    -0.098 C 
HETATM    3  C3  UNL     1       5.283   3.116   9.491  1.00  0.00     0.216 C 
ENDROOT
BRANCH   3   4
HETATM    4  N1  UNL     1       4.834   1.809   9.931  1.00  0.00    -0.349 N 
HETATM    5  C4  UNL     1       3.674   1.661  10.734  1.00  0.00     0.241 C 
HETATM    6  O1  UNL     1       2.999   2.651  11.090  1.00  0.00    -0.271 OA
ATOM      7  H1  UNL     1       5.363   0.980   9.659  1.00  0.00     0.163 HD
BRANCH   5   8
HETATM    8  C5  UNL     1       3.251   0.289  11.160  1.00  0.00     0.180 C 
BRANCH   8   9
HETATM    9  C6  UNL     1       1.758   0.222  11.172  1.00  0.00     0.061 C 
BRANCH   9  10
HETATM   10  C7  UNL     1       1.199  -0.032  12.515  1.00  0.00    -0.034 C 
HETATM   11  C8  UNL     1       0.313   0.768  13.067  1.00  0.00     0.007 C 
ENDBRANCH   9  10
ENDBRANCH   8   9
BRANCH   8  12
HETATM   12  N2  UNL     1       3.894  -0.010  12.404  1.00  0.00    -0.343 N 
HETATM   13  C9  UNL     1       4.710  -1.129  12.638  1.00  0.00     0.275 C 
HETATM   14  O2  UNL     1       4.920  -1.950  11.722  1.00  0.00    -0.268 OA
ATOM     15  H2  UNL     1       3.749   0.638  13.178  1.00  0.00     0.163 HD
BRANCH  13  16
HETATM   16  C10 UNL     1       5.339  -1.357  13.956  1.00  0.00     0.232 C 
HETATM   17  O7  UNL     1       6.204  -2.463  13.934  1.00  0.00    -0.279 OA
HETATM   18  C30 UNL     1       7.514  -1.998  13.783  1.00  0.00     0.267 C 
HETATM   19  O8  UNL     1       8.479  -2.514  13.163  1.00  0.00    -0.265 OA
HETATM   20  C31 UNL     1       7.560  -0.736  14.518  1.00  0.00     0.104 A 
HETATM   21  C32 UNL     1       6.111  -0.188  14.474  1.00  0.00     0.075 A 
HETATM   22  C33 UNL     1       7.212   0.503  13.818  1.00  0.00    -0.025 A 
HETATM   23  C34 UNL     1       7.423   0.639  12.351  1.00  0.00     0.016 C 
HETATM   24  C35 UNL     1       7.688   1.768  14.577  1.00  0.00     0.016 C 
BRANCH  16  25
HETATM   25  N3  UNL     1       4.237  -1.591  14.904  1.00  0.00    -0.332 N 
ATOM     26  H3  UNL     1       3.309  -1.233  14.677  1.00  0.00     0.165 HD
BRANCH  25  27
HETATM   27  C11 UNL     1       4.415  -2.279  16.093  1.00  0.00     0.153 C 
BRANCH  27  28
HETATM   28  O3  UNL     1       4.823  -1.577  17.112  1.00  0.00    -0.348 OA
ATOM     29  H3  UNL     1       4.478  -1.826  17.962  1.00  0.00     0.219 HD
ENDBRANCH  27  28
BRANCH  27  30
HETATM   30  C12 UNL     1       4.222  -3.692  16.419  1.00  0.00     0.213 C 
HETATM   31  C25 UNL     1       4.013  -4.480  15.117  1.00  0.00     0.060 C 
HETATM   32  C26 UNL     1       3.896  -5.890  15.608  1.00  0.00     0.037 C 
HETATM   33  C29 UNL     1       2.582  -4.019  15.339  1.00  0.00     0.246 C 
HETATM   34  C27 UNL     1       3.077  -5.629  16.859  1.00  0.00     0.239 C 
HETATM   35  N6  UNL     1       2.919  -4.173  16.753  1.00  0.00    -0.052 N 
HETATM   36  C28 UNL     1       2.116  -3.563  17.717  1.00  0.00     0.274 C 
BRANCH  30  37
HETATM   37  C13 UNL     1       5.351  -4.254  17.245  1.00  0.00     0.170 C 
BRANCH  37  38
HETATM   38  N4  UNL     1       6.657  -3.764  16.941  1.00  0.00    -0.370 N 
ATOM     39  H4  UNL     1       6.899  -2.791  17.123  1.00  0.00     0.161 HD
BRANCH  38  40
HETATM   40  C14 UNL     1       7.611  -4.649  16.383  1.00  0.00     0.135 C 
BRANCH  40  41
HETATM   41  O4  UNL     1       7.521  -4.872  15.090  1.00  0.00    -0.348 OA
ATOM     42  H4  UNL     1       7.406  -5.776  14.821  1.00  0.00     0.219 HD
ENDBRANCH  40  41
BRANCH  40  43
HETATM   43  C15 UNL     1       8.696  -5.373  17.040  1.00  0.00     0.168 C 
BRANCH  43  44
HETATM   44  N5  UNL     1       8.490  -6.814  16.809  1.00  0.00    -0.324 N 
HETATM   45  C16 UNL     1       7.654  -7.619  17.618  1.00  0.00     0.362 C 
HETATM   46  O5  UNL     1       7.011  -7.178  18.610  1.00  0.00    -0.238 OA
ATOM     47  H5  UNL     1       8.974  -7.253  16.026  1.00  0.00     0.165 HD
BRANCH  45  48
HETATM   48  O6  UNL     1       7.521  -8.962  17.323  1.00  0.00    -0.294 OA
BRANCH  48  49
HETATM   49  C17 UNL     1       7.865 -10.033  18.145  1.00  0.00     0.061 C 
HETATM   50  C18 UNL     1       6.678 -10.655  18.866  1.00  0.00     0.046 C 
HETATM   51  C19 UNL     1       8.925  -9.673  19.164  1.00  0.00     0.046 C 
HETATM   52  C20 UNL     1       8.439 -11.127  17.259  1.00  0.00     0.046 C 
ENDBRANCH  48  49
ENDBRANCH  45  48
ENDBRANCH  43  44
BRANCH  43  53
HETATM   53  C21 UNL     1      10.041  -4.965  16.571  1.00  0.00    -0.023 C 
HETATM   54  C22 UNL     1      10.292  -3.501  16.771  1.00  0.00     0.017 C 
HETATM   55  C23 UNL     1      10.252  -5.249  15.090  1.00  0.00     0.017 C 
HETATM   56  C24 UNL     1      11.161  -5.712  17.281  1.00  0.00     0.017 C 
ENDBRANCH  43  53
ENDBRANCH  40  43
ENDBRANCH  38  40
ENDBRANCH  37  38
ENDBRANCH  30  37
ENDBRANCH  27  30
ENDBRANCH  25  27
ENDBRANCH  16  25
ENDBRANCH  13  16
ENDBRANCH   8  12
ENDBRANCH   5   8
ENDBRANCH   3   4
TORSDOF 19
ENDMDL
