MODEL 1
REMARK VINA RESULT: -9.932456257      0.000      0.000
REMARK  13 active torsions:
REMARK  status: ('A' for Active; 'I' for Inactive)
REMARK    1  A    between atoms: C10_10  and  N1_11 
REMARK       I    between atoms: N1_11  and  C11_13 
REMARK       I    between atoms: C11_13  and  N2_15 
REMARK       I    between atoms: N3_18  and  C14_19 
REMARK       I    between atoms: C14_19  and  N4_21 
REMARK    2  A    between atoms: N4_21  and  C15_23 
REMARK    3  A    between atoms: C15_23  and  C16_24 
REMARK    4  A    between atoms: C15_23  and  C29_49 
REMARK       I    between atoms: C16_24  and  N5_26 
REMARK    5  A    between atoms: C20_30  and  C21_31 
REMARK       I    between atoms: C21_31  and  N6_33 
REMARK    6  A    between atoms: N6_33  and  C22_35 
REMARK    7  A    between atoms: C22_35  and  C23_36 
REMARK    8  A    between atoms: C22_35  and  C27_44 
REMARK    9  A    between atoms: C23_36  and  C24_37 
REMARK   10  A    between atoms: C24_37  and  C25_38 
REMARK   11  A    between atoms: C25_38  and  C26_39 
REMARK   12  A    between atoms: C26_39  and  N7_40 
REMARK   13  A    between atoms: C27_44  and  C28_46 
ROOT
HETATM    1  C15 UNL     1       8.043  -4.650  15.721  1.00  0.00     0.185 C 
ENDROOT
BRANCH   1   2
HETATM    2  N4  UNL     1       7.817  -3.230  15.464  1.00  0.00    -0.329 N 
HETATM    3  C14 UNL     1       7.634  -2.651  14.212  1.00  0.00     0.320 C 
HETATM    4  N3  UNL     1       7.406  -1.283  13.998  1.00  0.00    -0.315 N 
HETATM    5  O2  UNL     1       7.675  -3.407  13.205  1.00  0.00    -0.247 OA
HETATM    6  C13 UNL     1       7.272  -0.773  12.659  1.00  0.00     0.151 C 
HETATM    7  C33 UNL     1       7.267  -0.300  15.066  1.00  0.00     0.268 C 
HETATM    8  C12 UNL     1       5.978  -0.084  12.486  1.00  0.00     0.173 C 
HETATM    9  N2  UNL     1       5.430   0.409  13.713  1.00  0.00    -0.244 N 
HETATM   10  C11 UNL     1       4.112   0.946  13.658  1.00  0.00     0.337 C 
HETATM   11  N9  UNL     1       6.054   0.437  14.948  1.00  0.00    -0.312 N 
HETATM   12  N1  UNL     1       3.425   1.009  12.438  1.00  0.00    -0.336 N 
HETATM   13  O1  UNL     1       3.575   1.363  14.700  1.00  0.00    -0.245 OA
ATOM     14  H1  UNL     1       3.874   0.669  11.588  1.00  0.00     0.164 HD
ATOM     15  H9  UNL     1       5.664   0.958  15.734  1.00  0.00     0.182 HD
ATOM     16  H4  UNL     1       7.792  -2.608  16.273  1.00  0.00     0.165 HD
BRANCH  12  17
HETATM   17  C10 UNL     1       2.092   1.547  12.372  1.00  0.00     0.099 C 
HETATM   18  C2  UNL     1       1.044   0.479  12.343  1.00  0.00     0.006 C 
HETATM   19  C1  UNL     1      -0.088   0.732  13.322  1.00  0.00     0.012 C 
HETATM   20  C3  UNL     1       0.523   0.374  10.925  1.00  0.00     0.016 C 
HETATM   21  C4  UNL     1       1.165   1.472  10.121  1.00  0.00    -0.034 C 
HETATM   22  C5  UNL     1       1.830   1.051   8.836  1.00  0.00     0.016 C 
HETATM   23  C6  UNL     1       0.240   2.671   9.942  1.00  0.00     0.011 C 
HETATM   24  C8  UNL     1       1.992   2.288  11.054  1.00  0.00    -0.016 C 
HETATM   25  C7  UNL     1       0.934   3.366  11.072  1.00  0.00     0.012 C 
HETATM   26  C9  UNL     1       3.316   2.798  10.547  1.00  0.00     0.018 C 
ENDBRANCH  12  17
ENDBRANCH   1   2
BRANCH   1  27
HETATM   27  C16 UNL     1       7.289  -5.086  16.911  1.00  0.00     0.244 C 
HETATM   28  O3  UNL     1       7.942  -5.015  18.013  1.00  0.00    -0.271 OA
HETATM   29  N5  UNL     1       5.951  -5.556  16.931  1.00  0.00    -0.337 N 
HETATM   30  C17 UNL     1       5.022  -5.706  15.844  1.00  0.00     0.127 C 
HETATM   31  C20 UNL     1       5.283  -5.961  18.143  1.00  0.00     0.179 C 
HETATM   32  C18 UNL     1       3.691  -5.352  16.464  1.00  0.00     0.022 C 
HETATM   33  C19 UNL     1       3.943  -5.227  17.956  1.00  0.00     0.037 C 
BRANCH  31  34
HETATM   34  C21 UNL     1       5.046  -7.411  18.272  1.00  0.00     0.241 C 
HETATM   35  O4  UNL     1       4.114  -7.899  18.940  1.00  0.00    -0.271 OA
HETATM   36  N6  UNL     1       5.962  -8.279  17.572  1.00  0.00    -0.347 N 
ATOM     37  H6  UNL     1       6.728  -7.908  17.010  1.00  0.00     0.163 HD
BRANCH  36  38
HETATM   38  C22 UNL     1       5.737  -9.723  17.709  1.00  0.00     0.164 C 
BRANCH  38  39
HETATM   39  C23 UNL     1       6.828 -10.329  18.524  1.00  0.00     0.033 C 
BRANCH  39  40
HETATM   40  C24 UNL     1       8.015  -9.404  18.680  1.00  0.00     0.004 C 
BRANCH  40  41
HETATM   41  C25 UNL     1       9.194  -9.992  17.930  1.00  0.00     0.027 C 
BRANCH  41  42
HETATM   42  C26 UNL     1       9.220 -11.502  18.075  1.00  0.00     0.229 C 
BRANCH  42  43
HETATM   43  N7  UNL     1       9.390 -12.111  16.781  1.00  0.00    -0.079 N 
ATOM     44  H73 UNL     1       9.729 -11.447  16.086  1.00  0.00     0.274 HD
ATOM     45  H72 UNL     1      10.177 -12.759  16.762  1.00  0.00     0.274 HD
ATOM     46  H71 UNL     1       8.518 -12.556  16.493  1.00  0.00     0.274 HD
ENDBRANCH  42  43
ENDBRANCH  41  42
ENDBRANCH  40  41
ENDBRANCH  39  40
ENDBRANCH  38  39
BRANCH  38  47
HETATM   47  C27 UNL     1       5.635 -10.306  16.331  1.00  0.00     0.236 C 
HETATM   48  O5  UNL     1       6.551 -11.055  15.929  1.00  0.00    -0.285 OA
BRANCH  47  49
HETATM   49  C28 UNL     1       4.479  -9.989  15.492  1.00  0.00     0.302 C 
HETATM   50  N8  UNL     1       4.182 -10.912  14.432  1.00  0.00    -0.054 NA
HETATM   51  O6  UNL     1       3.785  -8.977  15.677  1.00  0.00    -0.268 OA
ENDBRANCH  47  49
ENDBRANCH  38  47
ENDBRANCH  36  38
ENDBRANCH  31  34
ENDBRANCH   1  27
BRANCH   1  52
HETATM   52  C29 UNL     1       9.524  -4.911  15.908  1.00  0.00    -0.022 C 
HETATM   53  C30 UNL     1      10.184  -4.953  14.557  1.00  0.00     0.017 C 
HETATM   54  C31 UNL     1       9.786  -6.246  16.554  1.00  0.00     0.017 C 
HETATM   55  C32 UNL     1      10.165  -3.775  16.685  1.00  0.00     0.017 C 
ENDBRANCH   1  52
TORSDOF 13
ENDMDL
MODEL 2
REMARK VINA RESULT: -9.134575456      1.351      1.629
REMARK  13 active torsions:
REMARK  status: ('A' for Active; 'I' for Inactive)
REMARK    1  A    between atoms: C10_10  and  N1_11 
REMARK       I    between atoms: N1_11  and  C11_13 
REMARK       I    between atoms: C11_13  and  N2_15 
REMARK       I    between atoms: N3_18  and  C14_19 
REMARK       I    between atoms: C14_19  and  N4_21 
REMARK    2  A    between atoms: N4_21  and  C15_23 
REMARK    3  A    between atoms: C15_23  and  C16_24 
REMARK    4  A    between atoms: C15_23  and  C29_49 
REMARK       I    between atoms: C16_24  and  N5_26 
REMARK    5  A    between atoms: C20_30  and  C21_31 
REMARK       I    between atoms: C21_31  and  N6_33 
REMARK    6  A    between atoms: N6_33  and  C22_35 
REMARK    7  A    between atoms: C22_35  and  C23_36 
REMARK    8  A    between atoms: C22_35  and  C27_44 
REMARK    9  A    between atoms: C23_36  and  C24_37 
REMARK   10  A    between atoms: C24_37  and  C25_38 
REMARK   11  A    between atoms: C25_38  and  C26_39 
REMARK   12  A    between atoms: C26_39  and  N7_40 
REMARK   13  A    between atoms: C27_44  and  C28_46 
ROOT
HETATM    1  C15 UNL     1       7.837  -5.038  16.070  1.00  0.00     0.185 C 
ENDROOT
BRANCH   1   2
HETATM    2  N4  UNL     1       7.708  -3.629  15.709  1.00  0.00    -0.329 N 
HETATM    3  C14 UNL     1       7.520  -3.134  14.422  1.00  0.00     0.320 C 
HETATM    4  N3  UNL     1       7.387  -1.773  14.109  1.00  0.00    -0.315 N 
HETATM    5  O2  UNL     1       7.466  -3.966  13.477  1.00  0.00    -0.247 OA
HETATM    6  C13 UNL     1       7.239  -1.357  12.738  1.00  0.00     0.151 C 
HETATM    7  C33 UNL     1       7.363  -0.704  15.100  1.00  0.00     0.268 C 
HETATM    8  C12 UNL     1       5.995  -0.586  12.554  1.00  0.00     0.173 C 
HETATM    9  N2  UNL     1       5.533   0.040  13.755  1.00  0.00    -0.244 N 
HETATM   10  C11 UNL     1       4.257   0.672  13.701  1.00  0.00     0.337 C 
HETATM   11  N9  UNL     1       6.204   0.113  14.964  1.00  0.00    -0.312 N 
HETATM   12  N1  UNL     1       3.530   0.694  12.504  1.00  0.00    -0.336 N 
HETATM   13  O1  UNL     1       3.794   1.207  14.725  1.00  0.00    -0.245 OA
ATOM     14  H1  UNL     1       3.919   0.257  11.669  1.00  0.00     0.164 HD
ATOM     15  H9  UNL     1       5.886   0.721  15.718  1.00  0.00     0.182 HD
ATOM     16  H4  UNL     1       7.760  -2.947  16.467  1.00  0.00     0.165 HD
BRANCH  12  17
HETATM   17  C10 UNL     1       2.240   1.328  12.440  1.00  0.00     0.099 C 
HETATM   18  C2  UNL     1       1.117   0.339  12.438  1.00  0.00     0.006 C 
HETATM   19  C1  UNL     1       0.015   0.691  13.421  1.00  0.00     0.012 C 
HETATM   20  C3  UNL     1       0.575   0.249  11.026  1.00  0.00     0.016 C 
HETATM   21  C4  UNL     1       1.288   1.282  10.197  1.00  0.00    -0.034 C 
HETATM   22  C5  UNL     1       1.909   0.792   8.915  1.00  0.00     0.016 C 
HETATM   23  C6  UNL     1       0.452   2.543  10.005  1.00  0.00     0.011 C 
HETATM   24  C8  UNL     1       2.182   2.051  11.109  1.00  0.00    -0.016 C 
HETATM   25  C7  UNL     1       1.205   3.204  11.117  1.00  0.00     0.012 C 
HETATM   26  C9  UNL     1       3.535   2.455  10.583  1.00  0.00     0.018 C 
ENDBRANCH  12  17
ENDBRANCH   1   2
BRANCH   1  27
HETATM   27  C16 UNL     1       6.961  -5.362  17.211  1.00  0.00     0.244 C 
HETATM   28  O3  UNL     1       7.544  -5.351  18.353  1.00  0.00    -0.271 OA
HETATM   29  N5  UNL     1       5.577  -5.670  17.146  1.00  0.00    -0.337 N 
HETATM   30  C17 UNL     1       4.710  -5.727  16.000  1.00  0.00     0.127 C 
HETATM   31  C20 UNL     1       4.789  -5.973  18.314  1.00  0.00     0.179 C 
HETATM   32  C18 UNL     1       3.393  -5.207  16.528  1.00  0.00     0.022 C 
HETATM   33  C19 UNL     1       3.561  -5.088  18.032  1.00  0.00     0.037 C 
BRANCH  31  34
HETATM   34  C21 UNL     1       4.372  -7.382  18.440  1.00  0.00     0.241 C 
HETATM   35  O4  UNL     1       3.380  -7.750  19.098  1.00  0.00    -0.271 OA
HETATM   36  N6  UNL     1       5.181  -8.357  17.749  1.00  0.00    -0.347 N 
ATOM     37  H6  UNL     1       5.993  -8.084  17.195  1.00  0.00     0.163 HD
BRANCH  36  38
HETATM   38  C22 UNL     1       4.777  -9.762  17.882  1.00  0.00     0.164 C 
BRANCH  38  39
HETATM   39  C23 UNL     1       5.978 -10.642  17.804  1.00  0.00     0.033 C 
BRANCH  39  40
HETATM   40  C24 UNL     1       5.704 -12.041  18.311  1.00  0.00     0.004 C 
BRANCH  40  41
HETATM   41  C25 UNL     1       5.903 -13.020  17.171  1.00  0.00     0.027 C 
BRANCH  41  42
HETATM   42  C26 UNL     1       4.718 -13.961  17.060  1.00  0.00     0.229 C 
BRANCH  42  43
HETATM   43  N7  UNL     1       3.753 -13.419  16.139  1.00  0.00    -0.079 N 
ATOM     44  H73 UNL     1       3.273 -12.605  16.521  1.00  0.00     0.274 HD
ATOM     45  H72 UNL     1       4.197 -12.967  15.340  1.00  0.00     0.274 HD
ATOM     46  H71 UNL     1       3.101 -14.150  15.855  1.00  0.00     0.274 HD
ENDBRANCH  42  43
ENDBRANCH  41  42
ENDBRANCH  40  41
ENDBRANCH  39  40
ENDBRANCH  38  39
BRANCH  38  47
HETATM   47  C27 UNL     1       3.762 -10.053  16.817  1.00  0.00     0.236 C 
HETATM   48  O5  UNL     1       2.671 -10.559  17.153  1.00  0.00    -0.285 OA
BRANCH  47  49
HETATM   49  C28 UNL     1       4.067  -9.743  15.420  1.00  0.00     0.302 C 
HETATM   50  N8  UNL     1       4.468 -10.845  14.590  1.00  0.00    -0.054 NA
HETATM   51  O6  UNL     1       3.989  -8.590  14.966  1.00  0.00    -0.268 OA
ENDBRANCH  47  49
ENDBRANCH  38  47
ENDBRANCH  36  38
ENDBRANCH  31  34
ENDBRANCH   1  27
BRANCH   1  52
HETATM   52  C29 UNL     1       9.281  -5.355  16.404  1.00  0.00    -0.022 C 
HETATM   53  C30 UNL     1      10.104  -5.254  15.150  1.00  0.00     0.017 C 
HETATM   54  C31 UNL     1       9.448  -6.762  16.914  1.00  0.00     0.017 C 
HETATM   55  C32 UNL     1       9.830  -4.333  17.384  1.00  0.00     0.017 C 
ENDBRANCH   1  52
TORSDOF 13
ENDMDL
MODEL 3
REMARK VINA RESULT: -9.045211690      1.165      1.514
REMARK  13 active torsions:
REMARK  status: ('A' for Active; 'I' for Inactive)
REMARK    1  A    between atoms: C10_10  and  N1_11 
REMARK       I    between atoms: N1_11  and  C11_13 
REMARK       I    between atoms: C11_13  and  N2_15 
REMARK       I    between atoms: N3_18  and  C14_19 
REMARK       I    between atoms: C14_19  and  N4_21 
REMARK    2  A    between atoms: N4_21  and  C15_23 
REMARK    3  A    between atoms: C15_23  and  C16_24 
REMARK    4  A    between atoms: C15_23  and  C29_49 
REMARK       I    between atoms: C16_24  and  N5_26 
REMARK    5  A    between atoms: C20_30  and  C21_31 
REMARK       I    between atoms: C21_31  and  N6_33 
REMARK    6  A    between atoms: N6_33  and  C22_35 
REMARK    7  A    between atoms: C22_35  and  C23_36 
REMARK    8  A    between atoms: C22_35  and  C27_44 
REMARK    9  A    between atoms: C23_36  and  C24_37 
REMARK   10  A    between atoms: C24_37  and  C25_38 
REMARK   11  A    between atoms: C25_38  and  C26_39 
REMARK   12  A    between atoms: C26_39  and  N7_40 
REMARK   13  A    between atoms: C27_44  and  C28_46 
ROOT
HETATM    1  C15 UNL     1       7.898  -4.763  15.824  1.00  0.00     0.185 C 
ENDROOT
BRANCH   1   2
HETATM    2  N4  UNL     1       7.709  -3.341  15.550  1.00  0.00    -0.329 N 
HETATM    3  C14 UNL     1       7.549  -2.770  14.291  1.00  0.00     0.320 C 
HETATM    4  N3  UNL     1       7.357  -1.399  14.062  1.00  0.00    -0.315 N 
HETATM    5  O2  UNL     1       7.580  -3.537  13.293  1.00  0.00    -0.247 OA
HETATM    6  C13 UNL     1       7.245  -0.899  12.717  1.00  0.00     0.151 C 
HETATM    7  C33 UNL     1       7.233  -0.402  15.119  1.00  0.00     0.268 C 
HETATM    8  C12 UNL     1       5.970  -0.182  12.526  1.00  0.00     0.173 C 
HETATM    9  N2  UNL     1       5.424   0.337  13.744  1.00  0.00    -0.244 N 
HETATM   10  C11 UNL     1       4.120   0.906  13.673  1.00  0.00     0.337 C 
HETATM   11  N9  UNL     1       6.039   0.362  14.984  1.00  0.00    -0.312 N 
HETATM   12  N1  UNL     1       3.445   0.973  12.447  1.00  0.00    -0.336 N 
HETATM   13  O1  UNL     1       3.586   1.346  14.707  1.00  0.00    -0.245 OA
ATOM     14  H1  UNL     1       3.892   0.614  11.604  1.00  0.00     0.164 HD
ATOM     15  H9  UNL     1       5.656   0.901  15.761  1.00  0.00     0.182 HD
ATOM     16  H4  UNL     1       7.692  -2.711  16.353  1.00  0.00     0.165 HD
BRANCH  12  17
HETATM   17  C10 UNL     1       2.126   1.543  12.365  1.00  0.00     0.099 C 
HETATM   18  C2  UNL     1       1.053   0.500  12.344  1.00  0.00     0.006 C 
HETATM   19  C1  UNL     1      -0.079   0.795  13.312  1.00  0.00     0.012 C 
HETATM   20  C3  UNL     1       0.537   0.389  10.923  1.00  0.00     0.016 C 
HETATM   21  C4  UNL     1       1.211   1.458  10.109  1.00  0.00    -0.034 C 
HETATM   22  C5  UNL     1       1.874   1.004   8.834  1.00  0.00     0.016 C 
HETATM   23  C6  UNL     1       0.318   2.678   9.907  1.00  0.00     0.011 C 
HETATM   24  C8  UNL     1       2.053   2.267  11.036  1.00  0.00    -0.016 C 
HETATM   25  C7  UNL     1       1.021   3.371  11.032  1.00  0.00     0.012 C 
HETATM   26  C9  UNL     1       3.392   2.738  10.531  1.00  0.00     0.018 C 
ENDBRANCH  12  17
ENDBRANCH   1   2
BRANCH   1  27
HETATM   27  C16 UNL     1       7.204  -5.147  17.067  1.00  0.00     0.244 C 
HETATM   28  O3  UNL     1       7.858  -4.897  18.143  1.00  0.00    -0.271 OA
HETATM   29  N5  UNL     1       5.921  -5.745  17.163  1.00  0.00    -0.337 N 
HETATM   30  C17 UNL     1       5.001  -6.100  16.116  1.00  0.00     0.127 C 
HETATM   31  C20 UNL     1       5.311  -6.088  18.423  1.00  0.00     0.179 C 
HETATM   32  C18 UNL     1       3.648  -5.819  16.724  1.00  0.00     0.022 C 
HETATM   33  C19 UNL     1       3.901  -5.515  18.190  1.00  0.00     0.037 C 
BRANCH  31  34
HETATM   34  C21 UNL     1       5.224  -7.533  18.705  1.00  0.00     0.241 C 
HETATM   35  O4  UNL     1       4.179  -8.100  19.077  1.00  0.00    -0.271 OA
HETATM   36  N6  UNL     1       6.435  -8.298  18.527  1.00  0.00    -0.347 N 
ATOM     37  H6  UNL     1       7.303  -7.862  18.214  1.00  0.00     0.163 HD
BRANCH  36  38
HETATM   38  C22 UNL     1       6.356  -9.734  18.818  1.00  0.00     0.164 C 
BRANCH  38  39
HETATM   39  C23 UNL     1       7.522 -10.145  19.652  1.00  0.00     0.033 C 
BRANCH  39  40
HETATM   40  C24 UNL     1       7.347 -11.523  20.252  1.00  0.00     0.004 C 
BRANCH  40  41
HETATM   41  C25 UNL     1       8.701 -12.203  20.313  1.00  0.00     0.027 C 
BRANCH  41  42
HETATM   42  C26 UNL     1       9.764 -11.337  19.664  1.00  0.00     0.229 C 
BRANCH  42  43
HETATM   43  N7  UNL     1      10.753 -10.967  20.643  1.00  0.00    -0.079 N 
ATOM     44  H73 UNL     1      10.507 -10.105  21.131  1.00  0.00     0.274 HD
ATOM     45  H72 UNL     1      10.753 -11.595  21.446  1.00  0.00     0.274 HD
ATOM     46  H71 UNL     1      11.671 -10.908  20.201  1.00  0.00     0.274 HD
ENDBRANCH  42  43
ENDBRANCH  41  42
ENDBRANCH  40  41
ENDBRANCH  39  40
ENDBRANCH  38  39
BRANCH  38  47
HETATM   47  C27 UNL     1       6.278 -10.466  17.511  1.00  0.00     0.236 C 
HETATM   48  O5  UNL     1       5.167 -10.886  17.127  1.00  0.00    -0.285 OA
BRANCH  47  49
HETATM   49  C28 UNL     1       7.492 -10.672  16.721  1.00  0.00     0.302 C 
HETATM   50  N8  UNL     1       8.429  -9.583  16.686  1.00  0.00    -0.054 NA
HETATM   51  O6  UNL     1       7.710 -11.729  16.108  1.00  0.00    -0.268 OA
ENDBRANCH  47  49
ENDBRANCH  38  47
ENDBRANCH  36  38
ENDBRANCH  31  34
ENDBRANCH   1  27
BRANCH   1  52
HETATM   52  C29 UNL     1       9.377  -5.077  15.923  1.00  0.00    -0.022 C 
HETATM   53  C30 UNL     1       9.899  -5.400  14.550  1.00  0.00     0.017 C 
HETATM   54  C31 UNL     1       9.642  -6.288  16.778  1.00  0.00     0.017 C 
HETATM   55  C32 UNL     1      10.141  -3.861  16.418  1.00  0.00     0.017 C 
ENDBRANCH   1  52
TORSDOF 13
ENDMDL
MODEL 4
REMARK VINA RESULT: -8.975896690      3.742     11.436
REMARK  13 active torsions:
REMARK  status: ('A' for Active; 'I' for Inactive)
REMARK    1  A    between atoms: C10_10  and  N1_11 
REMARK       I    between atoms: N1_11  and  C11_13 
REMARK       I    between atoms: C11_13  and  N2_15 
REMARK       I    between atoms: N3_18  and  C14_19 
REMARK       I    between atoms: C14_19  and  N4_21 
REMARK    2  A    between atoms: N4_21  and  C15_23 
REMARK    3  A    between atoms: C15_23  and  C16_24 
REMARK    4  A    between atoms: C15_23  and  C29_49 
REMARK       I    between atoms: C16_24  and  N5_26 
REMARK    5  A    between atoms: C20_30  and  C21_31 
REMARK       I    between atoms: C21_31  and  N6_33 
REMARK    6  A    between atoms: N6_33  and  C22_35 
REMARK    7  A    between atoms: C22_35  and  C23_36 
REMARK    8  A    between atoms: C22_35  and  C27_44 
REMARK    9  A    between atoms: C23_36  and  C24_37 
REMARK   10  A    between atoms: C24_37  and  C25_38 
REMARK   11  A    between atoms: C25_38  and  C26_39 
REMARK   12  A    between atoms: C26_39  and  N7_40 
REMARK   13  A    between atoms: C27_44  and  C28_46 
ROOT
HETATM    1  C15 UNL     1       2.209   0.377  11.365  1.00  0.00     0.185 C 
ENDROOT
BRANCH   1   2
HETATM    2  N4  UNL     1       2.950   0.266  12.619  1.00  0.00    -0.329 N 
HETATM    3  C14 UNL     1       3.021  -0.867  13.422  1.00  0.00     0.320 C 
HETATM    4  N3  UNL     1       3.753  -0.946  14.617  1.00  0.00    -0.315 N 
HETATM    5  O2  UNL     1       2.384  -1.889  13.052  1.00  0.00    -0.247 OA
HETATM    6  C13 UNL     1       3.728  -2.153  15.403  1.00  0.00     0.151 C 
HETATM    7  C33 UNL     1       4.589   0.130  15.137  1.00  0.00     0.268 C 
HETATM    8  C12 UNL     1       5.091  -2.681  15.598  1.00  0.00     0.173 C 
HETATM    9  N2  UNL     1       6.109  -1.680  15.490  1.00  0.00    -0.244 N 
HETATM   10  C11 UNL     1       7.460  -2.132  15.508  1.00  0.00     0.337 C 
HETATM   11  N9  UNL     1       5.919  -0.313  15.388  1.00  0.00    -0.312 N 
HETATM   12  N1  UNL     1       7.747  -3.494  15.663  1.00  0.00    -0.336 N 
HETATM   13  O1  UNL     1       8.384  -1.307  15.389  1.00  0.00    -0.245 OA
ATOM     14  H1  UNL     1       6.984  -4.163  15.764  1.00  0.00     0.164 HD
ATOM     15  H9  UNL     1       6.693   0.345  15.488  1.00  0.00     0.182 HD
ATOM     16  H4  UNL     1       3.461   1.092  12.932  1.00  0.00     0.165 HD
BRANCH  12  17
HETATM   17  C10 UNL     1       9.108  -3.961  15.680  1.00  0.00     0.099 C 
HETATM   18  C2  UNL     1       9.446  -4.785  14.477  1.00  0.00     0.006 C 
HETATM   19  C1  UNL     1      10.755  -4.376  13.828  1.00  0.00     0.012 C 
HETATM   20  C3  UNL     1       9.480  -6.239  14.901  1.00  0.00     0.016 C 
HETATM   21  C4  UNL     1       9.290  -6.284  16.392  1.00  0.00    -0.034 C 
HETATM   22  C5  UNL     1       8.211  -7.206  16.897  1.00  0.00     0.016 C 
HETATM   23  C6  UNL     1      10.609  -6.456  17.137  1.00  0.00     0.011 C 
HETATM   24  C8  UNL     1       9.233  -4.877  16.881  1.00  0.00    -0.016 C 
HETATM   25  C7  UNL     1      10.653  -4.981  17.387  1.00  0.00     0.012 C 
HETATM   26  C9  UNL     1       8.258  -4.560  17.985  1.00  0.00     0.018 C 
ENDBRANCH  12  17
ENDBRANCH   1   2
BRANCH   1  27
HETATM   27  C16 UNL     1       2.944   1.217  10.402  1.00  0.00     0.244 C 
HETATM   28  O3  UNL     1       2.877   0.818   9.184  1.00  0.00    -0.271 OA
HETATM   29  N5  UNL     1       3.687   2.388  10.704  1.00  0.00    -0.337 N 
HETATM   30  C17 UNL     1       3.891   3.035  11.972  1.00  0.00     0.127 C 
HETATM   31  C20 UNL     1       4.376   3.157   9.698  1.00  0.00     0.179 C 
HETATM   32  C18 UNL     1       3.910   4.504  11.620  1.00  0.00     0.022 C 
HETATM   33  C19 UNL     1       3.926   4.572  10.103  1.00  0.00     0.037 C 
BRANCH  31  34
HETATM   34  C21 UNL     1       5.848   3.068   9.742  1.00  0.00     0.241 C 
HETATM   35  O4  UNL     1       6.599   4.061   9.710  1.00  0.00    -0.271 OA
HETATM   36  N6  UNL     1       6.411   1.741   9.826  1.00  0.00    -0.347 N 
ATOM     37  H6  UNL     1       5.821   0.910   9.863  1.00  0.00     0.163 HD
BRANCH  36  38
HETATM   38  C22 UNL     1       7.875   1.648   9.857  1.00  0.00     0.164 C 
BRANCH  38  39
HETATM   39  C23 UNL     1       8.369   1.047   8.584  1.00  0.00     0.033 C 
BRANCH  39  40
HETATM   40  C24 UNL     1       8.009   1.880   7.374  1.00  0.00     0.004 C 
BRANCH  40  41
HETATM   41  C25 UNL     1       7.999   0.983   6.151  1.00  0.00     0.027 C 
BRANCH  41  42
HETATM   42  C26 UNL     1       7.900   1.809   4.883  1.00  0.00     0.229 C 
BRANCH  42  43
HETATM   43  N7  UNL     1       6.518   2.082   4.588  1.00  0.00    -0.079 N 
ATOM     44  H73 UNL     1       6.091   1.344   4.028  1.00  0.00     0.274 HD
ATOM     45  H72 UNL     1       5.926   2.001   5.414  1.00  0.00     0.274 HD
ATOM     46  H71 UNL     1       6.434   2.997   4.143  1.00  0.00     0.274 HD
ENDBRANCH  42  43
ENDBRANCH  41  42
ENDBRANCH  40  41
ENDBRANCH  39  40
ENDBRANCH  38  39
BRANCH  38  47
HETATM   47  C27 UNL     1       8.262   0.858  11.072  1.00  0.00     0.236 C 
HETATM   48  O5  UNL     1       9.412   0.376  11.131  1.00  0.00    -0.285 OA
BRANCH  47  49
HETATM   49  C28 UNL     1       7.293   0.669  12.152  1.00  0.00     0.302 C 
HETATM   50  N8  UNL     1       6.607  -0.593  12.187  1.00  0.00    -0.054 NA
HETATM   51  O6  UNL     1       7.067   1.548  12.999  1.00  0.00    -0.268 OA
ENDBRANCH  47  49
ENDBRANCH  38  47
ENDBRANCH  36  38
ENDBRANCH  31  34
ENDBRANCH   1  27
BRANCH   1  52
HETATM   52  C29 UNL     1       0.833   0.954  11.629  1.00  0.00    -0.022 C 
HETATM   53  C30 UNL     1      -0.204  -0.065  11.242  1.00  0.00     0.017 C 
HETATM   54  C31 UNL     1       0.563   2.178  10.794  1.00  0.00     0.017 C 
HETATM   55  C32 UNL     1       0.655   1.234  13.111  1.00  0.00     0.017 C 
ENDBRANCH   1  52
TORSDOF 13
ENDMDL
MODEL 5
REMARK VINA RESULT: -8.971385106      1.120      2.232
REMARK  13 active torsions:
REMARK  status: ('A' for Active; 'I' for Inactive)
REMARK    1  A    between atoms: C10_10  and  N1_11 
REMARK       I    between atoms: N1_11  and  C11_13 
REMARK       I    between atoms: C11_13  and  N2_15 
REMARK       I    between atoms: N3_18  and  C14_19 
REMARK       I    between atoms: C14_19  and  N4_21 
REMARK    2  A    between atoms: N4_21  and  C15_23 
REMARK    3  A    between atoms: C15_23  and  C16_24 
REMARK    4  A    between atoms: C15_23  and  C29_49 
REMARK       I    between atoms: C16_24  and  N5_26 
REMARK    5  A    between atoms: C20_30  and  C21_31 
REMARK       I    between atoms: C21_31  and  N6_33 
REMARK    6  A    between atoms: N6_33  and  C22_35 
REMARK    7  A    between atoms: C22_35  and  C23_36 
REMARK    8  A    between atoms: C22_35  and  C27_44 
REMARK    9  A    between atoms: C23_36  and  C24_37 
REMARK   10  A    between atoms: C24_37  and  C25_38 
REMARK   11  A    between atoms: C25_38  and  C26_39 
REMARK   12  A    between atoms: C26_39  and  N7_40 
REMARK   13  A    between atoms: C27_44  and  C28_46 
ROOT
HETATM    1  C15 UNL     1       8.080  -4.463  15.436  1.00  0.00     0.185 C 
ENDROOT
BRANCH   1   2
HETATM    2  N4  UNL     1       7.828  -3.039  15.230  1.00  0.00    -0.329 N 
HETATM    3  C14 UNL     1       7.646  -2.417  13.999  1.00  0.00     0.320 C 
HETATM    4  N3  UNL     1       7.394  -1.047  13.835  1.00  0.00    -0.315 N 
HETATM    5  O2  UNL     1       7.713  -3.133  12.965  1.00  0.00    -0.247 OA
HETATM    6  C13 UNL     1       7.263  -0.488  12.514  1.00  0.00     0.151 C 
HETATM    7  C33 UNL     1       7.224  -0.108  14.938  1.00  0.00     0.268 C 
HETATM    8  C12 UNL     1       5.958   0.181  12.353  1.00  0.00     0.173 C 
HETATM    9  N2  UNL     1       5.387   0.616  13.592  1.00  0.00    -0.244 N 
HETATM   10  C11 UNL     1       4.060   1.130  13.543  1.00  0.00     0.337 C 
HETATM   11  N9  UNL     1       5.998   0.609  14.834  1.00  0.00    -0.312 N 
HETATM   12  N1  UNL     1       3.384   1.226  12.319  1.00  0.00    -0.336 N 
HETATM   13  O1  UNL     1       3.504   1.496  14.595  1.00  0.00    -0.245 OA
ATOM     14  H1  UNL     1       3.848   0.927  11.462  1.00  0.00     0.164 HD
ATOM     15  H9  UNL     1       5.591   1.093  15.635  1.00  0.00     0.182 HD
ATOM     16  H4  UNL     1       7.782  -2.450  16.062  1.00  0.00     0.165 HD
BRANCH  12  17
HETATM   17  C10 UNL     1       2.042   1.741  12.260  1.00  0.00     0.099 C 
HETATM   18  C2  UNL     1       1.013   0.654  12.234  1.00  0.00     0.006 C 
HETATM   19  C1  UNL     1      -0.119   0.886  13.217  1.00  0.00     0.012 C 
HETATM   20  C3  UNL     1       0.487   0.541  10.817  1.00  0.00     0.016 C 
HETATM   21  C4  UNL     1       1.107   1.651  10.012  1.00  0.00    -0.034 C 
HETATM   22  C5  UNL     1       1.774   1.244   8.724  1.00  0.00     0.016 C 
HETATM   23  C6  UNL     1       0.161   2.834   9.838  1.00  0.00     0.011 C 
HETATM   24  C8  UNL     1       1.923   2.480  10.942  1.00  0.00    -0.016 C 
HETATM   25  C7  UNL     1       0.846   3.539  10.966  1.00  0.00     0.012 C 
HETATM   26  C9  UNL     1       3.236   3.015  10.431  1.00  0.00     0.018 C 
ENDBRANCH  12  17
ENDBRANCH   1   2
BRANCH   1  27
HETATM   27  C16 UNL     1       7.217  -4.991  16.510  1.00  0.00     0.244 C 
HETATM   28  O3  UNL     1       7.833  -5.275  17.599  1.00  0.00    -0.271 OA
HETATM   29  N5  UNL     1       5.815  -5.197  16.436  1.00  0.00    -0.337 N 
HETATM   30  C17 UNL     1       4.913  -4.940  15.345  1.00  0.00     0.127 C 
HETATM   31  C20 UNL     1       5.042  -5.715  17.537  1.00  0.00     0.179 C 
HETATM   32  C18 UNL     1       3.649  -4.481  16.033  1.00  0.00     0.022 C 
HETATM   33  C19 UNL     1       3.867  -4.721  17.517  1.00  0.00     0.037 C 
BRANCH  31  34
HETATM   34  C21 UNL     1       4.539  -7.089  17.357  1.00  0.00     0.241 C 
HETATM   35  O4  UNL     1       3.328  -7.379  17.315  1.00  0.00    -0.271 OA
HETATM   36  N6  UNL     1       5.533  -8.127  17.224  1.00  0.00    -0.347 N 
ATOM     37  H6  UNL     1       6.532  -7.919  17.245  1.00  0.00     0.163 HD
BRANCH  36  38
HETATM   38  C22 UNL     1       5.037  -9.498  17.057  1.00  0.00     0.164 C 
BRANCH  38  39
HETATM   39  C23 UNL     1       4.516 -10.008  18.358  1.00  0.00     0.033 C 
BRANCH  39  40
HETATM   40  C24 UNL     1       3.670 -11.252  18.195  1.00  0.00     0.004 C 
BRANCH  40  41
HETATM   41  C25 UNL     1       2.524 -10.942  17.252  1.00  0.00     0.027 C 
BRANCH  41  42
HETATM   42  C26 UNL     1       2.225 -12.133  16.362  1.00  0.00     0.229 C 
BRANCH  42  43
HETATM   43  N7  UNL     1       3.452 -12.655  15.821  1.00  0.00    -0.079 N 
ATOM     44  H73 UNL     1       3.516 -12.520  14.812  1.00  0.00     0.274 HD
ATOM     45  H72 UNL     1       4.261 -12.097  16.095  1.00  0.00     0.274 HD
ATOM     46  H71 UNL     1       3.555 -13.636  16.084  1.00  0.00     0.274 HD
ENDBRANCH  42  43
ENDBRANCH  41  42
ENDBRANCH  40  41
ENDBRANCH  39  40
ENDBRANCH  38  39
BRANCH  38  47
HETATM   47  C27 UNL     1       6.155 -10.330  16.502  1.00  0.00     0.236 C 
HETATM   48  O5  UNL     1       5.955 -10.977  15.453  1.00  0.00    -0.285 OA
BRANCH  47  49
HETATM   49  C28 UNL     1       7.444 -10.367  17.194  1.00  0.00     0.302 C 
HETATM   50  N8  UNL     1       8.373  -9.318  16.878  1.00  0.00    -0.054 NA
HETATM   51  O6  UNL     1       7.730 -11.256  18.011  1.00  0.00    -0.268 OA
ENDBRANCH  47  49
ENDBRANCH  38  47
ENDBRANCH  36  38
ENDBRANCH  31  34
ENDBRANCH   1  27
BRANCH   1  52
HETATM   52  C29 UNL     1       9.540  -4.686  15.773  1.00  0.00    -0.022 C 
HETATM   53  C30 UNL     1      10.344  -4.641  14.502  1.00  0.00     0.017 C 
HETATM   54  C31 UNL     1       9.780  -6.042  16.383  1.00  0.00     0.017 C 
HETATM   55  C32 UNL     1      10.050  -3.569  16.666  1.00  0.00     0.017 C 
ENDBRANCH   1  52
TORSDOF 13
ENDMDL
