MODEL 1
REMARK VINA RESULT: -9.750681997      0.000      0.000
REMARK  15 active torsions:
REMARK  status: ('A' for Active; 'I' for Inactive)
REMARK    1  A    between atoms: C2_2  and  C3_3 
REMARK    2  A    between atoms: C3_3  and  C4_4 
REMARK    3  A    between atoms: C4_4  and  C5_5 
REMARK    4  A    between atoms: C5_5  and  O1_6 
REMARK    5  A    between atoms: O1_6  and  C6_7 
REMARK       I    between atoms: C6_7  and  N1_9 
REMARK       I    between atoms: N2_12  and  C9_13 
REMARK    6  A    between atoms: C9_13  and  C10_15 
REMARK    7  A    between atoms: C10_15  and  C11_16 
REMARK    8  A    between atoms: C10_15  and  N6_24 
REMARK    9  A    between atoms: C11_16  and  C12_17 
REMARK   10  A    between atoms: C12_17  and  C13_18 
REMARK   11  A    between atoms: C13_18  and  N3_19 
REMARK       I    between atoms: N6_24  and  C15_26 
REMARK       I    between atoms: C15_26  and  N7_28 
REMARK   12  A    between atoms: C20_33  and  C21_34 
REMARK   13  A    between atoms: C21_34  and  O5_35 
REMARK   14  A    between atoms: C21_34  and  N8_37 
REMARK   15  A    between atoms: N8_37  and  C22_39 
REMARK       I    between atoms: N9_46  and  C29_47 
ROOT
HETATM    1  N6  UNL     1       6.944  -1.035  14.505  1.00  0.00    -0.330 N 
ATOM      2  H6  UNL     1       6.636  -0.168  14.946  1.00  0.00     0.165 HD
HETATM    3  C15 UNL     1       7.356  -1.042  13.180  1.00  0.00     0.319 C 
HETATM    4  O4  UNL     1       7.712  -2.177  12.687  1.00  0.00    -0.247 OA
HETATM    5  N7  UNL     1       7.425   0.087  12.307  1.00  0.00    -0.322 N 
HETATM    6  C16 UNL     1       7.835  -0.096  10.964  1.00  0.00     0.128 C 
HETATM    7  C17 UNL     1       8.230   1.088  10.184  1.00  0.00     0.020 C 
HETATM    8  C18 UNL     1       8.513   2.328  10.929  1.00  0.00     0.004 C 
HETATM    9  C19 UNL     1       8.247   2.311  12.382  1.00  0.00     0.034 C 
HETATM   10  C20 UNL     1       7.123   1.383  12.813  1.00  0.00     0.163 C 
ENDROOT
BRANCH   1  11
HETATM   11  C10 UNL     1       6.960  -2.307  15.272  1.00  0.00     0.178 C 
BRANCH  11  12
HETATM   12  C9  UNL     1       5.720  -2.352  16.076  1.00  0.00     0.242 C 
HETATM   13  N2  UNL     1       4.903  -3.491  16.298  1.00  0.00    -0.347 N 
HETATM   14  C8  UNL     1       3.743  -3.272  17.151  1.00  0.00     0.146 C 
HETATM   15  C32 UNL     1       5.230  -4.745  15.686  1.00  0.00     0.146 C 
HETATM   16  C7  UNL     1       2.796  -4.408  17.250  1.00  0.00     0.148 C 
HETATM   17  N1  UNL     1       3.262  -5.611  16.615  1.00  0.00    -0.325 N 
HETATM   18  C6  UNL     1       3.102  -6.870  17.221  1.00  0.00     0.362 C 
HETATM   19  C33 UNL     1       3.903  -5.442  15.331  1.00  0.00     0.148 C 
HETATM   20  O2  UNL     1       2.530  -7.009  18.354  1.00  0.00    -0.238 OA
HETATM   21  O3  UNL     1       5.369  -1.229  16.612  1.00  0.00    -0.271 OA
BRANCH  18  22
HETATM   22  O1  UNL     1       3.553  -8.056  16.639  1.00  0.00    -0.304 OA
BRANCH  22  23
HETATM   23  C5  UNL     1       4.752  -8.708  16.991  1.00  0.00     0.180 C 
BRANCH  23  24
HETATM   24  C4  UNL     1       4.710 -10.193  16.927  1.00  0.00     0.027 C 
BRANCH  24  25
HETATM   25  C3  UNL     1       5.187 -10.720  15.582  1.00  0.00     0.002 C 
BRANCH  25  26
HETATM   26  C2  UNL     1       3.920 -11.135  14.834  1.00  0.00    -0.004 C 
HETATM   27  C1  UNL     1       3.798 -10.383  13.526  1.00  0.00     0.005 C 
ENDBRANCH  25  26
ENDBRANCH  24  25
ENDBRANCH  23  24
ENDBRANCH  22  23
ENDBRANCH  18  22
ENDBRANCH  11  12
BRANCH  11  28
HETATM   28  C11 UNL     1       8.228  -2.274  16.059  1.00  0.00     0.037 C 
BRANCH  28  29
HETATM   29  C12 UNL     1       9.346  -3.125  15.594  1.00  0.00     0.022 C 
BRANCH  29  30
HETATM   30  C13 UNL     1       9.695  -4.213  16.611  1.00  0.00     0.122 C 
BRANCH  30  31
HETATM   31  N3  UNL     1       8.449  -4.647  17.189  1.00  0.00    -0.367 N 
HETATM   32  C14 UNL     1       8.436  -5.496  18.133  1.00  0.00     0.196 C 
HETATM   33  N4  UNL     1       9.640  -6.033  18.636  1.00  0.00    -0.067 NA
HETATM   34  N5  UNL     1       7.201  -5.912  18.682  1.00  0.00    -0.067 NA
ATOM     35  H3  UNL     1       7.569  -4.268  16.838  1.00  0.00     0.161 HD
ENDBRANCH  30  31
ENDBRANCH  29  30
ENDBRANCH  28  29
ENDBRANCH  11  28
ENDBRANCH   1  11
BRANCH  10  36
HETATM   36  C21 UNL     1       5.812   1.848  12.409  1.00  0.00     0.135 C 
BRANCH  36  37
HETATM   37  O5  UNL     1       5.719   3.149  12.339  1.00  0.00    -0.348 OA
ATOM     38  H5  UNL     1       5.404   3.462  11.499  1.00  0.00     0.219 HD
ENDBRANCH  36  37
BRANCH  36  39
HETATM   39  N8  UNL     1       4.640   1.173  12.086  1.00  0.00    -0.368 N 
ATOM     40  H8  UNL     1       4.708   0.340  11.501  1.00  0.00     0.161 HD
BRANCH  39  41
HETATM   41  C22 UNL     1       3.311   1.598  12.540  1.00  0.00     0.089 C 
HETATM   42  C23 UNL     1       2.694   0.595  13.455  1.00  0.00     0.026 C 
HETATM   43  C24 UNL     1       1.753  -0.374  12.798  1.00  0.00     0.002 C 
HETATM   44  C25 UNL     1       0.702   0.364  11.982  1.00  0.00     0.005 C 
HETATM   45  C26 UNL     1       1.464   1.089  10.891  1.00  0.00    -0.005 C 
HETATM   46  C27 UNL     1       0.424   1.873  10.093  1.00  0.00     0.025 C 
HETATM   47  C31 UNL     1       2.430   2.102  11.450  1.00  0.00     0.030 C 
HETATM   48  C28 UNL     1       1.029   2.785   9.070  1.00  0.00     0.126 C 
HETATM   49  N9  UNL     1       2.246   3.434   9.498  1.00  0.00    -0.355 N 
HETATM   50  C29 UNL     1       2.508   4.775   9.140  1.00  0.00     0.183 C 
HETATM   51  C30 UNL     1       3.186   2.673  10.296  1.00  0.00     0.132 C 
HETATM   52  N10 UNL     1       3.728   5.232   9.174  1.00  0.00    -0.374 N 
HETATM   53  N11 UNL     1       1.498   5.686   8.733  1.00  0.00    -0.064 NA
ATOM     54 2H10 UNL     1       4.454   4.578   9.467  1.00  0.00     0.158 HD
ATOM     55 1H10 UNL     1       3.916   6.201   8.916  1.00  0.00     0.158 HD
ENDBRANCH  39  41
ENDBRANCH  36  39
ENDBRANCH  10  36
TORSDOF 15
ENDMDL
MODEL 2
REMARK VINA RESULT: -9.687538263      0.706      1.132
REMARK  15 active torsions:
REMARK  status: ('A' for Active; 'I' for Inactive)
REMARK    1  A    between atoms: C2_2  and  C3_3 
REMARK    2  A    between atoms: C3_3  and  C4_4 
REMARK    3  A    between atoms: C4_4  and  C5_5 
REMARK    4  A    between atoms: C5_5  and  O1_6 
REMARK    5  A    between atoms: O1_6  and  C6_7 
REMARK       I    between atoms: C6_7  and  N1_9 
REMARK       I    between atoms: N2_12  and  C9_13 
REMARK    6  A    between atoms: C9_13  and  C10_15 
REMARK    7  A    between atoms: C10_15  and  C11_16 
REMARK    8  A    between atoms: C10_15  and  N6_24 
REMARK    9  A    between atoms: C11_16  and  C12_17 
REMARK   10  A    between atoms: C12_17  and  C13_18 
REMARK   11  A    between atoms: C13_18  and  N3_19 
REMARK       I    between atoms: N6_24  and  C15_26 
REMARK       I    between atoms: C15_26  and  N7_28 
REMARK   12  A    between atoms: C20_33  and  C21_34 
REMARK   13  A    between atoms: C21_34  and  O5_35 
REMARK   14  A    between atoms: C21_34  and  N8_37 
REMARK   15  A    between atoms: N8_37  and  C22_39 
REMARK       I    between atoms: N9_46  and  C29_47 
ROOT
HETATM    1  N6  UNL     1       6.916  -1.039  14.487  1.00  0.00    -0.330 N 
ATOM      2  H6  UNL     1       6.596  -0.179  14.933  1.00  0.00     0.165 HD
HETATM    3  C15 UNL     1       7.344  -1.030  13.167  1.00  0.00     0.319 C 
HETATM    4  O4  UNL     1       7.714  -2.156  12.667  1.00  0.00    -0.247 OA
HETATM    5  N7  UNL     1       7.416   0.109  12.307  1.00  0.00    -0.322 N 
HETATM    6  C16 UNL     1       7.843  -0.057  10.967  1.00  0.00     0.128 C 
HETATM    7  C17 UNL     1       8.239   1.138  10.204  1.00  0.00     0.020 C 
HETATM    8  C18 UNL     1       8.505   2.372  10.965  1.00  0.00     0.004 C 
HETATM    9  C19 UNL     1       8.222   2.338  12.415  1.00  0.00     0.034 C 
HETATM   10  C20 UNL     1       7.099   1.398  12.823  1.00  0.00     0.163 C 
ENDROOT
BRANCH   1  11
HETATM   11  C10 UNL     1       6.931  -2.319  15.241  1.00  0.00     0.178 C 
BRANCH  11  12
HETATM   12  C9  UNL     1       5.693  -2.370  16.047  1.00  0.00     0.242 C 
HETATM   13  N2  UNL     1       4.892  -3.517  16.286  1.00  0.00    -0.347 N 
HETATM   14  C8  UNL     1       3.731  -3.302  17.138  1.00  0.00     0.146 C 
HETATM   15  C32 UNL     1       5.236  -4.774  15.690  1.00  0.00     0.146 C 
HETATM   16  C7  UNL     1       2.800  -4.449  17.253  1.00  0.00     0.148 C 
HETATM   17  N1  UNL     1       3.280  -5.654  16.633  1.00  0.00    -0.325 N 
HETATM   18  C6  UNL     1       3.139  -6.908  17.257  1.00  0.00     0.362 C 
HETATM   19  C33 UNL     1       3.918  -5.494  15.346  1.00  0.00     0.148 C 
HETATM   20  O2  UNL     1       2.570  -7.039  18.393  1.00  0.00    -0.238 OA
HETATM   21  O3  UNL     1       5.328  -1.245  16.568  1.00  0.00    -0.271 OA
BRANCH  18  22
HETATM   22  O1  UNL     1       3.605  -8.095  16.690  1.00  0.00    -0.304 OA
BRANCH  22  23
HETATM   23  C5  UNL     1       4.780  -8.761  17.095  1.00  0.00     0.180 C 
BRANCH  23  24
HETATM   24  C4  UNL     1       5.172  -9.924  16.254  1.00  0.00     0.027 C 
BRANCH  24  25
HETATM   25  C3  UNL     1       6.526 -10.487  16.656  1.00  0.00     0.002 C 
BRANCH  25  26
HETATM   26  C2  UNL     1       7.114  -9.473  17.637  1.00  0.00    -0.004 C 
HETATM   27  C1  UNL     1       8.543  -9.136  17.268  1.00  0.00     0.005 C 
ENDBRANCH  25  26
ENDBRANCH  24  25
ENDBRANCH  23  24
ENDBRANCH  22  23
ENDBRANCH  18  22
ENDBRANCH  11  12
BRANCH  11  28
HETATM   28  C11 UNL     1       8.201  -2.297  16.025  1.00  0.00     0.037 C 
BRANCH  28  29
HETATM   29  C12 UNL     1       9.325  -3.125  15.534  1.00  0.00     0.022 C 
BRANCH  29  30
HETATM   30  C13 UNL     1       9.690  -4.233  16.525  1.00  0.00     0.122 C 
BRANCH  30  31
HETATM   31  N3  UNL     1       8.454  -4.678  17.114  1.00  0.00    -0.367 N 
HETATM   32  C14 UNL     1       8.461  -5.470  18.108  1.00  0.00     0.196 C 
HETATM   33  N4  UNL     1       9.676  -5.929  18.656  1.00  0.00    -0.067 NA
HETATM   34  N5  UNL     1       7.234  -5.898  18.667  1.00  0.00    -0.067 NA
ATOM     35  H3  UNL     1       7.565  -4.356  16.731  1.00  0.00     0.161 HD
ENDBRANCH  30  31
ENDBRANCH  29  30
ENDBRANCH  28  29
ENDBRANCH  11  28
ENDBRANCH   1  11
BRANCH  10  36
HETATM   36  C21 UNL     1       5.790   1.858  12.408  1.00  0.00     0.135 C 
BRANCH  36  37
HETATM   37  O5  UNL     1       5.694   3.159  12.332  1.00  0.00    -0.348 OA
ATOM     38  H5  UNL     1       6.505   3.611  12.535  1.00  0.00     0.219 HD
ENDBRANCH  36  37
BRANCH  36  39
HETATM   39  N8  UNL     1       4.622   1.180  12.079  1.00  0.00    -0.368 N 
ATOM     40  H8  UNL     1       4.696   0.343  11.500  1.00  0.00     0.161 HD
BRANCH  39  41
HETATM   41  C22 UNL     1       3.288   1.604  12.520  1.00  0.00     0.089 C 
HETATM   42  C23 UNL     1       2.664   0.602  13.431  1.00  0.00     0.026 C 
HETATM   43  C24 UNL     1       1.729  -0.368  12.767  1.00  0.00     0.002 C 
HETATM   44  C25 UNL     1       0.685   0.368  11.940  1.00  0.00     0.005 C 
HETATM   45  C26 UNL     1       1.456   1.092  10.855  1.00  0.00    -0.005 C 
HETATM   46  C27 UNL     1       0.423   1.874  10.047  1.00  0.00     0.025 C 
HETATM   47  C31 UNL     1       2.417   2.106  11.422  1.00  0.00     0.030 C 
HETATM   48  C28 UNL     1       1.037   2.785   9.028  1.00  0.00     0.126 C 
HETATM   49  N9  UNL     1       2.251   3.435   9.466  1.00  0.00    -0.355 N 
HETATM   50  C29 UNL     1       2.514   4.776   9.109  1.00  0.00     0.183 C 
HETATM   51  C30 UNL     1       3.183   2.676  10.274  1.00  0.00     0.132 C 
HETATM   52  N10 UNL     1       3.734   5.234   9.153  1.00  0.00    -0.374 N 
HETATM   53  N11 UNL     1       1.508   5.687   8.692  1.00  0.00    -0.064 NA
ATOM     54 2H10 UNL     1       4.458   4.580   9.454  1.00  0.00     0.158 HD
ATOM     55 1H10 UNL     1       3.924   6.202   8.896  1.00  0.00     0.158 HD
ENDBRANCH  39  41
ENDBRANCH  36  39
ENDBRANCH  10  36
TORSDOF 15
ENDMDL
MODEL 3
REMARK VINA RESULT: -9.635075083      3.012      5.793
REMARK  15 active torsions:
REMARK  status: ('A' for Active; 'I' for Inactive)
REMARK    1  A    between atoms: C2_2  and  C3_3 
REMARK    2  A    between atoms: C3_3  and  C4_4 
REMARK    3  A    between atoms: C4_4  and  C5_5 
REMARK    4  A    between atoms: C5_5  and  O1_6 
REMARK    5  A    between atoms: O1_6  and  C6_7 
REMARK       I    between atoms: C6_7  and  N1_9 
REMARK       I    between atoms: N2_12  and  C9_13 
REMARK    6  A    between atoms: C9_13  and  C10_15 
REMARK    7  A    between atoms: C10_15  and  C11_16 
REMARK    8  A    between atoms: C10_15  and  N6_24 
REMARK    9  A    between atoms: C11_16  and  C12_17 
REMARK   10  A    between atoms: C12_17  and  C13_18 
REMARK   11  A    between atoms: C13_18  and  N3_19 
REMARK       I    between atoms: N6_24  and  C15_26 
REMARK       I    between atoms: C15_26  and  N7_28 
REMARK   12  A    between atoms: C20_33  and  C21_34 
REMARK   13  A    between atoms: C21_34  and  O5_35 
REMARK   14  A    between atoms: C21_34  and  N8_37 
REMARK   15  A    between atoms: N8_37  and  C22_39 
REMARK       I    between atoms: N9_46  and  C29_47 
ROOT
HETATM    1  N6  UNL     1       3.315  -0.987  12.711  1.00  0.00    -0.330 N 
ATOM      2  H6  UNL     1       2.969  -1.485  11.891  1.00  0.00     0.165 HD
HETATM    3  C15 UNL     1       3.053   0.365  12.876  1.00  0.00     0.319 C 
HETATM    4  O4  UNL     1       3.539   0.929  13.926  1.00  0.00    -0.247 OA
HETATM    5  N7  UNL     1       2.294   1.196  11.995  1.00  0.00    -0.322 N 
HETATM    6  C16 UNL     1       2.149   2.573  12.289  1.00  0.00     0.128 C 
HETATM    7  C17 UNL     1       1.104   3.334  11.585  1.00  0.00     0.020 C 
HETATM    8  C18 UNL     1       0.056   2.566  10.890  1.00  0.00     0.004 C 
HETATM    9  C19 UNL     1       0.219   1.097  10.849  1.00  0.00     0.034 C 
HETATM   10  C20 UNL     1       1.661   0.617  10.858  1.00  0.00     0.163 C 
ENDROOT
BRANCH   1  11
HETATM   11  C10 UNL     1       4.107  -1.700  13.747  1.00  0.00     0.178 C 
BRANCH  11  12
HETATM   12  C9  UNL     1       5.375  -2.124  13.117  1.00  0.00     0.242 C 
HETATM   13  N2  UNL     1       6.551  -2.542  13.794  1.00  0.00    -0.347 N 
HETATM   14  C8  UNL     1       7.661  -2.932  12.936  1.00  0.00     0.146 C 
HETATM   15  C32 UNL     1       6.598  -2.543  15.226  1.00  0.00     0.146 C 
HETATM   16  C7  UNL     1       8.942  -3.206  13.630  1.00  0.00     0.148 C 
HETATM   17  N1  UNL     1       8.840  -3.202  15.064  1.00  0.00    -0.325 N 
HETATM   18  C6  UNL     1       9.489  -4.172  15.849  1.00  0.00     0.362 C 
HETATM   19  C33 UNL     1       8.030  -2.152  15.639  1.00  0.00     0.148 C 
HETATM   20  O2  UNL     1      10.206  -5.093  15.331  1.00  0.00    -0.238 OA
HETATM   21  O3  UNL     1       5.386  -2.097  11.825  1.00  0.00    -0.271 OA
BRANCH  18  22
HETATM   22  O1  UNL     1       9.402  -4.206  17.241  1.00  0.00    -0.304 OA
BRANCH  22  23
HETATM   23  C5  UNL     1       8.951  -5.318  17.982  1.00  0.00     0.180 C 
BRANCH  23  24
HETATM   24  C4  UNL     1       7.484  -5.558  17.938  1.00  0.00     0.027 C 
BRANCH  24  25
HETATM   25  C3  UNL     1       7.143  -7.032  18.097  1.00  0.00     0.002 C 
BRANCH  25  26
HETATM   26  C2  UNL     1       8.483  -7.743  18.282  1.00  0.00    -0.004 C 
HETATM   27  C1  UNL     1       8.550  -8.994  17.432  1.00  0.00     0.005 C 
ENDBRANCH  25  26
ENDBRANCH  24  25
ENDBRANCH  23  24
ENDBRANCH  22  23
ENDBRANCH  18  22
ENDBRANCH  11  12
BRANCH  11  28
HETATM   28  C11 UNL     1       3.226  -2.809  14.217  1.00  0.00     0.037 C 
BRANCH  28  29
HETATM   29  C12 UNL     1       3.167  -3.069  15.673  1.00  0.00     0.022 C 
BRANCH  29  30
HETATM   30  C13 UNL     1       3.528  -4.517  16.008  1.00  0.00     0.122 C 
BRANCH  30  31
HETATM   31  N3  UNL     1       3.697  -4.577  17.437  1.00  0.00    -0.367 N 
HETATM   32  C14 UNL     1       3.571  -5.679  18.057  1.00  0.00     0.196 C 
HETATM   33  N4  UNL     1       3.264  -6.866  17.361  1.00  0.00    -0.067 NA
HETATM   34  N5  UNL     1       3.736  -5.713  19.461  1.00  0.00    -0.067 NA
ATOM     35  H3  UNL     1       3.920  -3.727  17.957  1.00  0.00     0.161 HD
ENDBRANCH  30  31
ENDBRANCH  29  30
ENDBRANCH  28  29
ENDBRANCH  11  28
ENDBRANCH   1  11
BRANCH  10  36
HETATM   36  C21 UNL     1       2.365   0.897   9.624  1.00  0.00     0.135 C 
BRANCH  36  37
HETATM   37  O5  UNL     1       1.836   0.318   8.578  1.00  0.00    -0.348 OA
ATOM     38  H5  UNL     1       1.752  -0.624   8.669  1.00  0.00     0.219 HD
ENDBRANCH  36  37
BRANCH  36  39
HETATM   39  N8  UNL     1       3.492   1.661   9.344  1.00  0.00    -0.368 N 
ATOM     40  H8  UNL     1       4.394   1.189   9.285  1.00  0.00     0.161 HD
BRANCH  39  41
HETATM   41  C22 UNL     1       3.451   3.113   9.129  1.00  0.00     0.089 C 
HETATM   42  C23 UNL     1       2.533   3.479   8.012  1.00  0.00     0.026 C 
HETATM   43  C24 UNL     1       3.197   3.673   6.678  1.00  0.00     0.002 C 
HETATM   44  C25 UNL     1       4.361   4.645   6.792  1.00  0.00     0.005 C 
HETATM   45  C26 UNL     1       5.361   3.984   7.719  1.00  0.00    -0.005 C 
HETATM   46  C27 UNL     1       6.514   4.972   7.879  1.00  0.00     0.025 C 
HETATM   47  C31 UNL     1       4.793   3.758   9.097  1.00  0.00     0.030 C 
HETATM   48  C28 UNL     1       7.520   4.545   8.903  1.00  0.00     0.126 C 
HETATM   49  N9  UNL     1       6.950   3.910  10.068  1.00  0.00    -0.355 N 
HETATM   50  C29 UNL     1       7.484   4.156  11.353  1.00  0.00     0.183 C 
HETATM   51  C30 UNL     1       5.824   3.017   9.882  1.00  0.00     0.132 C 
HETATM   52  N10 UNL     1       7.252   3.321  12.326  1.00  0.00    -0.374 N 
HETATM   53  N11 UNL     1       8.282   5.289  11.663  1.00  0.00    -0.064 NA
ATOM     54 2H10 UNL     1       6.678   2.507  12.103  1.00  0.00     0.158 HD
ATOM     55 1H10 UNL     1       7.637   3.499  13.253  1.00  0.00     0.158 HD
ENDBRANCH  39  41
ENDBRANCH  36  39
ENDBRANCH  10  36
TORSDOF 15
ENDMDL
MODEL 4
REMARK VINA RESULT: -9.555623567      1.722      2.239
REMARK  15 active torsions:
REMARK  status: ('A' for Active; 'I' for Inactive)
REMARK    1  A    between atoms: C2_2  and  C3_3 
REMARK    2  A    between atoms: C3_3  and  C4_4 
REMARK    3  A    between atoms: C4_4  and  C5_5 
REMARK    4  A    between atoms: C5_5  and  O1_6 
REMARK    5  A    between atoms: O1_6  and  C6_7 
REMARK       I    between atoms: C6_7  and  N1_9 
REMARK       I    between atoms: N2_12  and  C9_13 
REMARK    6  A    between atoms: C9_13  and  C10_15 
REMARK    7  A    between atoms: C10_15  and  C11_16 
REMARK    8  A    between atoms: C10_15  and  N6_24 
REMARK    9  A    between atoms: C11_16  and  C12_17 
REMARK   10  A    between atoms: C12_17  and  C13_18 
REMARK   11  A    between atoms: C13_18  and  N3_19 
REMARK       I    between atoms: N6_24  and  C15_26 
REMARK       I    between atoms: C15_26  and  N7_28 
REMARK   12  A    between atoms: C20_33  and  C21_34 
REMARK   13  A    between atoms: C21_34  and  O5_35 
REMARK   14  A    between atoms: C21_34  and  N8_37 
REMARK   15  A    between atoms: N8_37  and  C22_39 
REMARK       I    between atoms: N9_46  and  C29_47 
ROOT
HETATM    1  N6  UNL     1       6.056  -2.668  15.585  1.00  0.00    -0.330 N 
ATOM      2  H6  UNL     1       5.682  -1.959  16.215  1.00  0.00     0.165 HD
HETATM    3  C15 UNL     1       6.503  -2.320  14.319  1.00  0.00     0.319 C 
HETATM    4  O4  UNL     1       6.943  -3.272  13.574  1.00  0.00    -0.247 OA
HETATM    5  N7  UNL     1       6.525  -1.005  13.760  1.00  0.00    -0.322 N 
HETATM    6  C16 UNL     1       6.981  -0.821  12.432  1.00  0.00     0.128 C 
HETATM    7  C17 UNL     1       7.322   0.541  11.990  1.00  0.00     0.020 C 
HETATM    8  C18 UNL     1       7.507   1.566  13.032  1.00  0.00     0.004 C 
HETATM    9  C19 UNL     1       7.204   1.169  14.423  1.00  0.00     0.034 C 
HETATM   10  C20 UNL     1       6.129   0.104  14.561  1.00  0.00     0.163 C 
ENDROOT
BRANCH   1  11
HETATM   11  C10 UNL     1       6.130  -4.090  16.010  1.00  0.00     0.178 C 
BRANCH  11  12
HETATM   12  C9  UNL     1       4.836  -4.430  16.638  1.00  0.00     0.242 C 
HETATM   13  N2  UNL     1       4.351  -5.736  16.909  1.00  0.00    -0.347 N 
HETATM   14  C8  UNL     1       3.049  -5.798  17.559  1.00  0.00     0.146 C 
HETATM   15  C32 UNL     1       5.121  -6.885  16.533  1.00  0.00     0.146 C 
HETATM   16  C7  UNL     1       2.462  -7.152  17.692  1.00  0.00     0.148 C 
HETATM   17  N1  UNL     1       3.351  -8.213  17.304  1.00  0.00    -0.325 N 
HETATM   18  C6  UNL     1       3.455  -9.396  18.057  1.00  0.00     0.362 C 
HETATM   19  C33 UNL     1       4.128  -7.983  16.107  1.00  0.00     0.148 C 
HETATM   20  O2  UNL     1       2.761  -9.591  19.111  1.00  0.00    -0.238 OA
HETATM   21  O3  UNL     1       4.094  -3.420  16.955  1.00  0.00    -0.271 OA
BRANCH  18  22
HETATM   22  O1  UNL     1       4.317 -10.440  17.718  1.00  0.00    -0.304 OA
BRANCH  22  23
HETATM   23  C5  UNL     1       3.919 -11.611  17.040  1.00  0.00     0.180 C 
BRANCH  23  24
HETATM   24  C4  UNL     1       4.389 -11.720  15.633  1.00  0.00     0.027 C 
BRANCH  24  25
HETATM   25  C3  UNL     1       3.264 -11.486  14.637  1.00  0.00     0.002 C 
BRANCH  25  26
HETATM   26  C2  UNL     1       3.861 -10.594  13.549  1.00  0.00    -0.004 C 
HETATM   27  C1  UNL     1       3.001 -10.617  12.303  1.00  0.00     0.005 C 
ENDBRANCH  25  26
ENDBRANCH  24  25
ENDBRANCH  23  24
ENDBRANCH  22  23
ENDBRANCH  18  22
ENDBRANCH  11  12
BRANCH  11  28
HETATM   28  C11 UNL     1       7.316  -4.167  16.913  1.00  0.00     0.037 C 
BRANCH  28  29
HETATM   29  C12 UNL     1       8.537  -4.820  16.389  1.00  0.00     0.022 C 
BRANCH  29  30
HETATM   30  C13 UNL     1       9.125  -5.815  17.390  1.00  0.00     0.122 C 
BRANCH  30  31
HETATM   31  N3  UNL     1       9.039  -7.115  16.774  1.00  0.00    -0.367 N 
HETATM   32  C14 UNL     1       8.540  -8.097  17.406  1.00  0.00     0.196 C 
HETATM   33  N4  UNL     1       8.060  -7.939  18.722  1.00  0.00    -0.067 NA
HETATM   34  N5  UNL     1       8.471  -9.365  16.782  1.00  0.00    -0.067 NA
ATOM     35  H3  UNL     1       9.381  -7.247  15.822  1.00  0.00     0.161 HD
ENDBRANCH  30  31
ENDBRANCH  29  30
ENDBRANCH  28  29
ENDBRANCH  11  28
ENDBRANCH   1  11
BRANCH  10  36
HETATM   36  C21 UNL     1       4.803   0.584  14.232  1.00  0.00     0.135 C 
BRANCH  36  37
HETATM   37  O5  UNL     1       4.238   1.259  15.198  1.00  0.00    -0.348 OA
ATOM     38  H5  UNL     1       3.415   1.663  14.948  1.00  0.00     0.219 HD
ENDBRANCH  36  37
BRANCH  36  39
HETATM   39  N8  UNL     1       4.022   0.463  13.089  1.00  0.00    -0.368 N 
ATOM     40  H8  UNL     1       4.313  -0.204  12.373  1.00  0.00     0.161 HD
BRANCH  39  41
HETATM   41  C22 UNL     1       2.800   1.243  12.857  1.00  0.00     0.089 C 
HETATM   42  C23 UNL     1       1.585   0.518  13.328  1.00  0.00     0.026 C 
HETATM   43  C24 UNL     1       0.851  -0.252  12.268  1.00  0.00     0.002 C 
HETATM   44  C25 UNL     1       0.548   0.635  11.069  1.00  0.00     0.005 C 
HETATM   45  C26 UNL     1       1.896   1.038  10.505  1.00  0.00    -0.005 C 
HETATM   46  C27 UNL     1       1.605   1.968   9.329  1.00  0.00     0.025 C 
HETATM   47  C31 UNL     1       2.709   1.835  11.493  1.00  0.00     0.030 C 
HETATM   48  C28 UNL     1       2.838   2.597   8.755  1.00  0.00     0.126 C 
HETATM   49  N9  UNL     1       3.829   2.968   9.738  1.00  0.00    -0.355 N 
HETATM   50  C29 UNL     1       4.570   4.162   9.594  1.00  0.00     0.183 C 
HETATM   51  C30 UNL     1       4.041   2.084  10.867  1.00  0.00     0.132 C 
HETATM   52  N10 UNL     1       5.700   4.308  10.227  1.00  0.00    -0.374 N 
HETATM   53  N11 UNL     1       4.153   5.246   8.778  1.00  0.00    -0.064 NA
ATOM     54 2H10 UNL     1       5.999   3.528  10.814  1.00  0.00     0.158 HD
ATOM     55 1H10 UNL     1       6.234   5.170  10.123  1.00  0.00     0.158 HD
ENDBRANCH  39  41
ENDBRANCH  36  39
ENDBRANCH  10  36
TORSDOF 15
ENDMDL
MODEL 5
REMARK VINA RESULT: -9.432776362      2.862      5.915
REMARK  15 active torsions:
REMARK  status: ('A' for Active; 'I' for Inactive)
REMARK    1  A    between atoms: C2_2  and  C3_3 
REMARK    2  A    between atoms: C3_3  and  C4_4 
REMARK    3  A    between atoms: C4_4  and  C5_5 
REMARK    4  A    between atoms: C5_5  and  O1_6 
REMARK    5  A    between atoms: O1_6  and  C6_7 
REMARK       I    between atoms: C6_7  and  N1_9 
REMARK       I    between atoms: N2_12  and  C9_13 
REMARK    6  A    between atoms: C9_13  and  C10_15 
REMARK    7  A    between atoms: C10_15  and  C11_16 
REMARK    8  A    between atoms: C10_15  and  N6_24 
REMARK    9  A    between atoms: C11_16  and  C12_17 
REMARK   10  A    between atoms: C12_17  and  C13_18 
REMARK   11  A    between atoms: C13_18  and  N3_19 
REMARK       I    between atoms: N6_24  and  C15_26 
REMARK       I    between atoms: C15_26  and  N7_28 
REMARK   12  A    between atoms: C20_33  and  C21_34 
REMARK   13  A    between atoms: C21_34  and  O5_35 
REMARK   14  A    between atoms: C21_34  and  N8_37 
REMARK   15  A    between atoms: N8_37  and  C22_39 
REMARK       I    between atoms: N9_46  and  C29_47 
ROOT
HETATM    1  N6  UNL     1       3.409  -1.253  12.770  1.00  0.00    -0.330 N 
ATOM      2  H6  UNL     1       3.204  -1.692  11.873  1.00  0.00     0.165 HD
HETATM    3  C15 UNL     1       3.007   0.051  13.023  1.00  0.00     0.319 C 
HETATM    4  O4  UNL     1       3.320   0.544  14.170  1.00  0.00    -0.247 OA
HETATM    5  N7  UNL     1       2.278   0.901  12.136  1.00  0.00    -0.322 N 
HETATM    6  C16 UNL     1       1.975   2.226  12.534  1.00  0.00     0.128 C 
HETATM    7  C17 UNL     1       0.949   2.967  11.781  1.00  0.00     0.020 C 
HETATM    8  C18 UNL     1       0.060   2.189  10.900  1.00  0.00     0.004 C 
HETATM    9  C19 UNL     1       0.361   0.750  10.747  1.00  0.00     0.034 C 
HETATM   10  C20 UNL     1       1.831   0.389  10.885  1.00  0.00     0.163 C 
ENDROOT
BRANCH   1  11
HETATM   11  C10 UNL     1       4.143  -1.999  13.825  1.00  0.00     0.178 C 
BRANCH  11  12
HETATM   12  C9  UNL     1       5.444  -2.404  13.253  1.00  0.00     0.242 C 
HETATM   13  N2  UNL     1       6.580  -2.849  13.980  1.00  0.00    -0.347 N 
HETATM   14  C8  UNL     1       7.736  -3.212  13.172  1.00  0.00     0.146 C 
HETATM   15  C32 UNL     1       6.545  -2.902  15.411  1.00  0.00     0.146 C 
HETATM   16  C7  UNL     1       8.975  -3.514  13.927  1.00  0.00     0.148 C 
HETATM   17  N1  UNL     1       8.792  -3.561  15.352  1.00  0.00    -0.325 N 
HETATM   18  C6  UNL     1       9.396  -4.561  16.137  1.00  0.00     0.362 C 
HETATM   19  C33 UNL     1       7.952  -2.531  15.918  1.00  0.00     0.148 C 
HETATM   20  O2  UNL     1      10.140  -5.465  15.628  1.00  0.00    -0.238 OA
HETATM   21  O3  UNL     1       5.528  -2.331  11.965  1.00  0.00    -0.271 OA
BRANCH  18  22
HETATM   22  O1  UNL     1       9.229  -4.645  17.520  1.00  0.00    -0.304 OA
BRANCH  22  23
HETATM   23  C5  UNL     1       9.020  -5.848  18.224  1.00  0.00     0.180 C 
BRANCH  23  24
HETATM   24  C4  UNL     1       7.599  -6.262  18.366  1.00  0.00     0.027 C 
BRANCH  24  25
HETATM   25  C3  UNL     1       7.394  -7.728  18.016  1.00  0.00     0.002 C 
BRANCH  25  26
HETATM   26  C2  UNL     1       8.719  -8.191  17.410  1.00  0.00    -0.004 C 
HETATM   27  C1  UNL     1       8.977  -9.647  17.734  1.00  0.00     0.005 C 
ENDBRANCH  25  26
ENDBRANCH  24  25
ENDBRANCH  23  24
ENDBRANCH  22  23
ENDBRANCH  18  22
ENDBRANCH  11  12
BRANCH  11  28
HETATM   28  C11 UNL     1       3.239  -3.122  14.209  1.00  0.00     0.037 C 
BRANCH  28  29
HETATM   29  C12 UNL     1       3.018  -3.363  15.653  1.00  0.00     0.022 C 
BRANCH  29  30
HETATM   30  C13 UNL     1       3.088  -4.851  15.999  1.00  0.00     0.122 C 
BRANCH  30  31
HETATM   31  N3  UNL     1       3.522  -4.933  17.371  1.00  0.00    -0.367 N 
HETATM   32  C14 UNL     1       3.374  -6.008  18.031  1.00  0.00     0.196 C 
HETATM   33  N4  UNL     1       2.785  -7.144  17.438  1.00  0.00    -0.067 NA
HETATM   34  N5  UNL     1       3.802  -6.063  19.378  1.00  0.00    -0.067 NA
ATOM     35  H3  UNL     1       3.951  -4.121  17.815  1.00  0.00     0.161 HD
ENDBRANCH  30  31
ENDBRANCH  29  30
ENDBRANCH  28  29
ENDBRANCH  11  28
ENDBRANCH   1  11
BRANCH  10  36
HETATM   36  C21 UNL     1       2.639   0.848   9.774  1.00  0.00     0.135 C 
BRANCH  36  37
HETATM   37  O5  UNL     1       2.032   0.769   8.619  1.00  0.00    -0.348 OA
ATOM     38  H5  UNL     1       2.117  -0.081   8.203  1.00  0.00     0.219 HD
ENDBRANCH  36  37
BRANCH  36  39
HETATM   39  N8  UNL     1       3.933   1.352   9.705  1.00  0.00    -0.368 N 
ATOM     40  H8  UNL     1       4.673   0.741   9.359  1.00  0.00     0.161 HD
BRANCH  39  41
HETATM   41  C22 UNL     1       4.290   2.719  10.103  1.00  0.00     0.089 C 
HETATM   42  C23 UNL     1       4.030   3.698   9.008  1.00  0.00     0.026 C 
HETATM   43  C24 UNL     1       5.221   4.031   8.155  1.00  0.00     0.002 C 
HETATM   44  C25 UNL     1       6.401   4.452   9.018  1.00  0.00     0.005 C 
HETATM   45  C26 UNL     1       6.752   3.239   9.856  1.00  0.00    -0.005 C 
HETATM   46  C27 UNL     1       7.905   3.664  10.761  1.00  0.00     0.025 C 
HETATM   47  C31 UNL     1       5.619   2.830  10.764  1.00  0.00     0.030 C 
HETATM   48  C28 UNL     1       8.269   2.627  11.780  1.00  0.00     0.126 C 
HETATM   49  N9  UNL     1       7.140   1.919  12.337  1.00  0.00    -0.355 N 
HETATM   50  C29 UNL     1       7.117   1.570  13.706  1.00  0.00     0.183 C 
HETATM   51  C30 UNL     1       6.041   1.577  11.456  1.00  0.00     0.132 C 
HETATM   52  N10 UNL     1       6.327   0.621  14.123  1.00  0.00    -0.374 N 
HETATM   53  N11 UNL     1       7.924   2.203  14.687  1.00  0.00    -0.064 NA
ATOM     54 2H10 UNL     1       5.747   0.166  13.417  1.00  0.00     0.158 HD
ATOM     55 1H10 UNL     1       6.310   0.370  15.111  1.00  0.00     0.158 HD
ENDBRANCH  39  41
ENDBRANCH  36  39
ENDBRANCH  10  36
TORSDOF 15
ENDMDL
