MODEL 1
REMARK VINA RESULT: -9.109761273      0.000      0.000
REMARK  7 active torsions:
REMARK  status: ('A' for Active; 'I' for Inactive)
REMARK    1  A    between atoms: C2_2  and  C3_3 
REMARK    2  A    between atoms: C6_8  and  C7_9 
REMARK    3  A    between atoms: C7_9  and  C8_10 
REMARK    4  A    between atoms: C10_15  and  C11_16 
REMARK    5  A    between atoms: C11_16  and  C13_18 
REMARK    6  A    between atoms: C16_24  and  C17_25 
REMARK    7  A    between atoms: C17_25  and  O3_27 
ROOT
HETATM    1  C8  UNL     1       5.565  -4.846  15.994  1.00  0.00     0.044 C 
HETATM    2  C9  UNL     1       6.535  -4.329  16.999  1.00  0.00     0.251 C 
HETATM    3  O1  UNL     1       6.182  -3.261  17.626  1.00  0.00    -0.268 OA
HETATM    4  N2  UNL     1       7.777  -4.945  17.279  1.00  0.00    -0.344 N 
ATOM      5  H2  UNL     1       8.400  -4.420  17.893  1.00  0.00     0.163 HD
HETATM    6  C10 UNL     1       8.279  -6.196  16.823  1.00  0.00     0.180 C 
HETATM    7  C15 UNL     1       8.592  -7.026  18.038  1.00  0.00     0.241 C 
HETATM    8  O2  UNL     1       9.050  -6.365  19.034  1.00  0.00    -0.271 OA
HETATM    9  N3  UNL     1       8.404  -8.422  18.100  1.00  0.00    -0.344 N 
ATOM     10  H3  UNL     1       9.109  -8.962  18.601  1.00  0.00     0.163 HD
HETATM   11  C16 UNL     1       7.302  -9.160  17.519  1.00  0.00     0.205 C 
HETATM   12  C19 UNL     1       6.083  -8.946  18.331  1.00  0.00     0.243 C 
HETATM   13  O4  UNL     1       6.105  -9.552  19.469  1.00  0.00    -0.271 OA
HETATM   14  N4  UNL     1       4.970  -8.180  17.986  1.00  0.00    -0.346 N 
ATOM     15  H4  UNL     1       4.587  -7.549  18.689  1.00  0.00     0.163 HD
HETATM   16  C20 UNL     1       4.334  -8.227  16.709  1.00  0.00     0.172 C 
HETATM   17  C21 UNL     1       3.742  -9.633  16.535  1.00  0.00     0.042 C 
HETATM   18  C22 UNL     1       3.245  -7.233  16.569  1.00  0.00     0.244 C 
HETATM   19  O5  UNL     1       2.080  -7.678  16.911  1.00  0.00    -0.271 OA
HETATM   20  N5  UNL     1       3.319  -5.913  16.125  1.00  0.00    -0.316 N 
HETATM   21  C23 UNL     1       2.470  -5.267  15.085  1.00  0.00     0.253 C 
HETATM   22  N6  UNL     1       2.249  -3.988  15.668  1.00  0.00    -0.343 N 
ATOM     23  H6  UNL     1       1.407  -3.423  15.559  1.00  0.00     0.164 HD
HETATM   24  C24 UNL     1       3.394  -3.627  16.426  1.00  0.00     0.246 C 
HETATM   25  O6  UNL     1       3.573  -2.468  16.841  1.00  0.00    -0.271 OA
HETATM   26  C25 UNL     1       4.184  -4.840  16.559  1.00  0.00     0.219 C 
ENDROOT
BRANCH   1  27
HETATM   27  C7  UNL     1       5.830  -4.435  14.631  1.00  0.00     0.045 C 
BRANCH  27  28
HETATM   28  C6  UNL     1       5.671  -3.086  14.135  1.00  0.00     0.039 A 
HETATM   29  N1  UNL     1       4.615  -2.712  13.389  1.00  0.00    -0.359 N 
HETATM   30  C4  UNL     1       4.661  -1.423  13.045  1.00  0.00     0.012 A 
ATOM     31  H1  UNL     1       3.862  -3.345  13.116  1.00  0.00     0.166 HD
HETATM   32  C3  UNL     1       5.808  -0.922  13.594  1.00  0.00    -0.028 A 
HETATM   33  C5  UNL     1       3.656  -0.660  12.217  1.00  0.00     0.068 C 
HETATM   34  C26 UNL     1       6.432  -1.961  14.270  1.00  0.00    -0.027 A 
HETATM   35  C27 UNL     1       7.729  -1.787  14.975  1.00  0.00     0.051 C 
BRANCH  32  36
HETATM   36  C2  UNL     1       6.253   0.490  13.456  1.00  0.00     0.036 C 
HETATM   37  C1  UNL     1       7.186   0.638  12.270  1.00  0.00     0.010 C 
ENDBRANCH  32  36
ENDBRANCH  27  28
ENDBRANCH   1  27
BRANCH   6  38
HETATM   38  C11 UNL     1       9.524  -6.049  15.961  1.00  0.00     0.013 C 
HETATM   39  C12 UNL     1       9.243  -6.316  14.499  1.00  0.00     0.012 C 
BRANCH  38  40
HETATM   40  C13 UNL     1      10.095  -4.649  16.064  1.00  0.00     0.002 C 
HETATM   41  C14 UNL     1      10.216  -4.008  14.698  1.00  0.00     0.005 C 
ENDBRANCH  38  40
ENDBRANCH   6  38
BRANCH  11  42
HETATM   42  C17 UNL     1       7.740 -10.610  17.461  1.00  0.00     0.146 C 
HETATM   43  C18 UNL     1       6.819 -11.490  16.667  1.00  0.00     0.042 C 
BRANCH  42  44
HETATM   44  O3  UNL     1       9.016 -10.763  16.938  1.00  0.00    -0.393 OA
ATOM     45  H3  UNL     1       9.602 -11.221  17.529  1.00  0.00     0.210 HD
ENDBRANCH  42  44
ENDBRANCH  11  42
TORSDOF 7
ENDMDL
MODEL 2
REMARK VINA RESULT: -9.034230007      0.882      1.429
REMARK  7 active torsions:
REMARK  status: ('A' for Active; 'I' for Inactive)
REMARK    1  A    between atoms: C2_2  and  C3_3 
REMARK    2  A    between atoms: C6_8  and  C7_9 
REMARK    3  A    between atoms: C7_9  and  C8_10 
REMARK    4  A    between atoms: C10_15  and  C11_16 
REMARK    5  A    between atoms: C11_16  and  C13_18 
REMARK    6  A    between atoms: C16_24  and  C17_25 
REMARK    7  A    between atoms: C17_25  and  O3_27 
ROOT
HETATM    1  C8  UNL     1       5.769  -4.379  15.858  1.00  0.00     0.044 C 
HETATM    2  C9  UNL     1       6.736  -3.931  16.900  1.00  0.00     0.251 C 
HETATM    3  O1  UNL     1       6.432  -2.845  17.521  1.00  0.00    -0.268 OA
HETATM    4  N2  UNL     1       7.924  -4.628  17.218  1.00  0.00    -0.344 N 
ATOM      5  H2  UNL     1       8.558  -4.147  17.856  1.00  0.00     0.163 HD
HETATM    6  C10 UNL     1       8.360  -5.907  16.771  1.00  0.00     0.180 C 
HETATM    7  C15 UNL     1       8.576  -6.760  17.990  1.00  0.00     0.241 C 
HETATM    8  O2  UNL     1       9.041  -6.136  19.005  1.00  0.00    -0.271 OA
HETATM    9  N3  UNL     1       8.296  -8.142  18.037  1.00  0.00    -0.344 N 
ATOM     10  H3  UNL     1       8.947  -8.729  18.558  1.00  0.00     0.163 HD
HETATM   11  C16 UNL     1       7.168  -8.804  17.414  1.00  0.00     0.205 C 
HETATM   12  C19 UNL     1       5.939  -8.514  18.185  1.00  0.00     0.243 C 
HETATM   13  O4  UNL     1       5.882  -9.125  19.319  1.00  0.00    -0.271 OA
HETATM   14  N4  UNL     1       4.891  -7.676  17.808  1.00  0.00    -0.346 N 
ATOM     15  H4  UNL     1       4.526  -7.024  18.501  1.00  0.00     0.163 HD
HETATM   16  C20 UNL     1       4.297  -7.676  16.510  1.00  0.00     0.172 C 
HETATM   17  C21 UNL     1       3.621  -9.039  16.307  1.00  0.00     0.042 C 
HETATM   18  C22 UNL     1       3.280  -6.612  16.339  1.00  0.00     0.244 C 
HETATM   19  O5  UNL     1       2.078  -6.982  16.639  1.00  0.00    -0.271 OA
HETATM   20  N5  UNL     1       3.455  -5.298  15.907  1.00  0.00    -0.316 N 
HETATM   21  C23 UNL     1       2.686  -4.594  14.843  1.00  0.00     0.253 C 
HETATM   22  N6  UNL     1       2.529  -3.306  15.426  1.00  0.00    -0.343 N 
ATOM     23  H6  UNL     1       1.730  -2.687  15.293  1.00  0.00     0.164 HD
HETATM   24  C24 UNL     1       3.668  -3.023  16.225  1.00  0.00     0.246 C 
HETATM   25  O6  UNL     1       3.908  -1.881  16.653  1.00  0.00    -0.271 OA
HETATM   26  C25 UNL     1       4.372  -4.286  16.377  1.00  0.00     0.219 C 
ENDROOT
BRANCH   1  27
HETATM   27  C7  UNL     1       6.107  -3.981  14.508  1.00  0.00     0.045 C 
BRANCH  27  28
HETATM   28  C6  UNL     1       6.091  -2.617  14.028  1.00  0.00     0.039 A 
HETATM   29  N1  UNL     1       6.944  -1.681  14.486  1.00  0.00    -0.359 N 
HETATM   30  C4  UNL     1       6.763  -0.494  13.903  1.00  0.00     0.012 A 
ATOM     31  H1  UNL     1       7.650  -1.860  15.200  1.00  0.00     0.166 HD
HETATM   32  C3  UNL     1       5.737  -0.656  13.015  1.00  0.00    -0.028 A 
HETATM   33  C5  UNL     1       7.530   0.779  14.164  1.00  0.00     0.068 C 
HETATM   34  C26 UNL     1       5.323  -1.979  13.098  1.00  0.00    -0.027 A 
HETATM   35  C27 UNL     1       4.201  -2.513  12.283  1.00  0.00     0.051 C 
BRANCH  32  36
HETATM   36  C2  UNL     1       5.206   0.426  12.145  1.00  0.00     0.036 C 
HETATM   37  C1  UNL     1       4.018   1.099  12.804  1.00  0.00     0.010 C 
ENDBRANCH  32  36
ENDBRANCH  27  28
ENDBRANCH   1  27
BRANCH   6  38
HETATM   38  C11 UNL     1       9.640  -5.837  15.952  1.00  0.00     0.013 C 
HETATM   39  C12 UNL     1       9.411  -6.186  14.499  1.00  0.00     0.012 C 
BRANCH  38  40
HETATM   40  C13 UNL     1      10.239  -4.446  15.995  1.00  0.00     0.002 C 
HETATM   41  C14 UNL     1       9.944  -3.686  14.720  1.00  0.00     0.005 C 
ENDBRANCH  38  40
ENDBRANCH   6  38
BRANCH  11  42
HETATM   42  C17 UNL     1       7.513 -10.279  17.361  1.00  0.00     0.146 C 
HETATM   43  C18 UNL     1       6.535 -11.103  16.573  1.00  0.00     0.042 C 
BRANCH  42  44
HETATM   44  O3  UNL     1       8.775 -10.516  16.835  1.00  0.00    -0.393 OA
ATOM     45  H3  UNL     1       9.429 -10.669  17.508  1.00  0.00     0.210 HD
ENDBRANCH  42  44
ENDBRANCH  11  42
TORSDOF 7
ENDMDL
MODEL 3
REMARK VINA RESULT: -8.096848162      2.128      8.228
REMARK  7 active torsions:
REMARK  status: ('A' for Active; 'I' for Inactive)
REMARK    1  A    between atoms: C2_2  and  C3_3 
REMARK    2  A    between atoms: C6_8  and  C7_9 
REMARK    3  A    between atoms: C7_9  and  C8_10 
REMARK    4  A    between atoms: C10_15  and  C11_16 
REMARK    5  A    between atoms: C11_16  and  C13_18 
REMARK    6  A    between atoms: C16_24  and  C17_25 
REMARK    7  A    between atoms: C17_25  and  O3_27 
ROOT
HETATM    1  C8  UNL     1       6.873  -5.851  17.097  1.00  0.00     0.044 C 
HETATM    2  C9  UNL     1       5.974  -5.498  18.232  1.00  0.00     0.251 C 
HETATM    3  O1  UNL     1       6.485  -5.605  19.410  1.00  0.00    -0.268 OA
HETATM    4  N2  UNL     1       4.637  -5.066  18.069  1.00  0.00    -0.344 N 
ATOM      5  H2  UNL     1       4.095  -4.981  18.929  1.00  0.00     0.163 HD
HETATM    6  C10 UNL     1       3.944  -4.733  16.872  1.00  0.00     0.180 C 
HETATM    7  C15 UNL     1       3.457  -3.317  17.013  1.00  0.00     0.241 C 
HETATM    8  O2  UNL     1       3.088  -2.992  18.194  1.00  0.00    -0.271 OA
HETATM    9  N3  UNL     1       3.402  -2.400  15.943  1.00  0.00    -0.344 N 
ATOM     10  H3  UNL     1       2.599  -1.771  15.913  1.00  0.00     0.163 HD
HETATM   11  C16 UNL     1       4.380  -2.269  14.882  1.00  0.00     0.205 C 
HETATM   12  C19 UNL     1       5.591  -1.602  15.409  1.00  0.00     0.243 C 
HETATM   13  O4  UNL     1       5.431  -0.344  15.643  1.00  0.00    -0.271 OA
HETATM   14  N4  UNL     1       6.828  -2.192  15.664  1.00  0.00    -0.346 N 
ATOM     15  H4  UNL     1       7.291  -1.972  16.545  1.00  0.00     0.163 HD
HETATM   16  C20 UNL     1       7.486  -3.086  14.766  1.00  0.00     0.172 C 
HETATM   17  C21 UNL     1       7.835  -2.296  13.496  1.00  0.00     0.042 C 
HETATM   18  C22 UNL     1       8.733  -3.656  15.327  1.00  0.00     0.244 C 
HETATM   19  O5  UNL     1       9.793  -2.967  15.057  1.00  0.00    -0.271 OA
HETATM   20  N5  UNL     1       8.899  -4.812  16.089  1.00  0.00    -0.316 N 
HETATM   21  C23 UNL     1       9.877  -5.911  15.851  1.00  0.00     0.253 C 
HETATM   22  N6  UNL     1      10.294  -6.196  17.181  1.00  0.00    -0.343 N 
ATOM     23  H6  UNL     1      11.223  -6.514  17.456  1.00  0.00     0.164 HD
HETATM   24  C24 UNL     1       9.206  -5.966  18.062  1.00  0.00     0.246 C 
HETATM   25  O6  UNL     1       9.213  -6.364  19.241  1.00  0.00    -0.271 OA
HETATM   26  C25 UNL     1       8.217  -5.231  17.291  1.00  0.00     0.219 C 
ENDROOT
BRANCH   1  27
HETATM   27  C7  UNL     1       6.724  -7.204  16.607  1.00  0.00     0.045 C 
BRANCH  27  28
HETATM   28  C6  UNL     1       7.178  -8.386  17.307  1.00  0.00     0.039 A 
HETATM   29  N1  UNL     1       8.337  -9.000  17.008  1.00  0.00    -0.359 N 
HETATM   30  C4  UNL     1       8.567 -10.064  17.781  1.00  0.00     0.012 A 
ATOM     31  H1  UNL     1       8.971  -8.686  16.272  1.00  0.00     0.166 HD
HETATM   32  C3  UNL     1       7.503 -10.155  18.633  1.00  0.00    -0.028 A 
HETATM   33  C5  UNL     1       9.759 -10.989  17.733  1.00  0.00     0.068 C 
HETATM   34  C26 UNL     1       6.641  -9.109  18.333  1.00  0.00    -0.027 A 
HETATM   35  C27 UNL     1       5.356  -8.906  19.050  1.00  0.00     0.051 C 
BRANCH  32  36
HETATM   36  C2  UNL     1       7.352 -11.208  19.672  1.00  0.00     0.036 C 
HETATM   37  C1  UNL     1       8.161 -10.853  20.905  1.00  0.00     0.010 C 
ENDBRANCH  32  36
ENDBRANCH  27  28
ENDBRANCH   1  27
BRANCH   6  38
HETATM   38  C11 UNL     1       2.769  -5.661  16.598  1.00  0.00     0.013 C 
HETATM   39  C12 UNL     1       2.463  -5.777  15.122  1.00  0.00     0.012 C 
BRANCH  38  40
HETATM   40  C13 UNL     1       3.048  -7.058  17.114  1.00  0.00     0.002 C 
HETATM   41  C14 UNL     1       3.532  -7.963  16.002  1.00  0.00     0.005 C 
ENDBRANCH  38  40
ENDBRANCH   6  38
BRANCH  11  42
HETATM   42  C17 UNL     1       3.702  -1.494  13.768  1.00  0.00     0.146 C 
HETATM   43  C18 UNL     1       2.750  -0.441  14.254  1.00  0.00     0.042 C 
BRANCH  42  44
HETATM   44  O3  UNL     1       4.609  -0.876  12.919  1.00  0.00    -0.393 OA
ATOM     45  H3  UNL     1       5.308  -1.457  12.643  1.00  0.00     0.210 HD
ENDBRANCH  42  44
ENDBRANCH  11  42
TORSDOF 7
ENDMDL
MODEL 4
REMARK VINA RESULT: -8.001128506      2.139      8.240
REMARK  7 active torsions:
REMARK  status: ('A' for Active; 'I' for Inactive)
REMARK    1  A    between atoms: C2_2  and  C3_3 
REMARK    2  A    between atoms: C6_8  and  C7_9 
REMARK    3  A    between atoms: C7_9  and  C8_10 
REMARK    4  A    between atoms: C10_15  and  C11_16 
REMARK    5  A    between atoms: C11_16  and  C13_18 
REMARK    6  A    between atoms: C16_24  and  C17_25 
REMARK    7  A    between atoms: C17_25  and  O3_27 
ROOT
HETATM    1  C8  UNL     1       6.743  -6.052  17.253  1.00  0.00     0.044 C 
HETATM    2  C9  UNL     1       5.821  -5.653  18.353  1.00  0.00     0.251 C 
HETATM    3  O1  UNL     1       6.289  -5.762  19.548  1.00  0.00    -0.268 OA
HETATM    4  N2  UNL     1       4.507  -5.177  18.141  1.00  0.00    -0.344 N 
ATOM      5  H2  UNL     1       3.940  -5.062  18.981  1.00  0.00     0.163 HD
HETATM    6  C10 UNL     1       3.864  -4.837  16.918  1.00  0.00     0.180 C 
HETATM    7  C15 UNL     1       3.423  -3.403  17.024  1.00  0.00     0.241 C 
HETATM    8  O2  UNL     1       3.028  -3.049  18.189  1.00  0.00    -0.271 OA
HETATM    9  N3  UNL     1       3.435  -2.499  15.942  1.00  0.00    -0.344 N 
ATOM     10  H3  UNL     1       2.657  -1.843  15.878  1.00  0.00     0.163 HD
HETATM   11  C16 UNL     1       4.451  -2.416  14.913  1.00  0.00     0.205 C 
HETATM   12  C19 UNL     1       5.668  -1.785  15.471  1.00  0.00     0.243 C 
HETATM   13  O4  UNL     1       5.545  -0.519  15.684  1.00  0.00    -0.271 OA
HETATM   14  N4  UNL     1       6.874  -2.414  15.774  1.00  0.00    -0.346 N 
ATOM     15  H4  UNL     1       7.316  -2.198  16.667  1.00  0.00     0.163 HD
HETATM   16  C20 UNL     1       7.529  -3.342  14.909  1.00  0.00     0.172 C 
HETATM   17  C21 UNL     1       7.947  -2.582  13.642  1.00  0.00     0.042 C 
HETATM   18  C22 UNL     1       8.736  -3.947  15.518  1.00  0.00     0.244 C 
HETATM   19  O5  UNL     1       9.828  -3.299  15.275  1.00  0.00    -0.271 OA
HETATM   20  N5  UNL     1       8.836  -5.098  16.299  1.00  0.00    -0.316 N 
HETATM   21  C23 UNL     1       9.782  -6.233  16.108  1.00  0.00     0.253 C 
HETATM   22  N6  UNL     1      10.146  -6.515  17.454  1.00  0.00    -0.343 N 
ATOM     23  H6  UNL     1      11.054  -6.862  17.764  1.00  0.00     0.164 HD
HETATM   24  C24 UNL     1       9.038  -6.236  18.296  1.00  0.00     0.246 C 
HETATM   25  O6  UNL     1       8.994  -6.617  19.479  1.00  0.00    -0.271 OA
HETATM   26  C25 UNL     1       8.101  -5.477  17.484  1.00  0.00     0.219 C 
ENDROOT
BRANCH   1  27
HETATM   27  C7  UNL     1       6.563  -7.406  16.774  1.00  0.00     0.045 C 
BRANCH  27  28
HETATM   28  C6  UNL     1       6.531  -8.578  17.622  1.00  0.00     0.039 A 
HETATM   29  N1  UNL     1       5.491  -8.857  18.429  1.00  0.00    -0.359 N 
HETATM   30  C4  UNL     1       5.664  -9.988  19.116  1.00  0.00     0.012 A 
ATOM     31  H1  UNL     1       4.662  -8.268  18.507  1.00  0.00     0.166 HD
HETATM   32  C3  UNL     1       6.883 -10.480  18.741  1.00  0.00    -0.028 A 
HETATM   33  C5  UNL     1       4.714 -10.610  20.110  1.00  0.00     0.068 C 
HETATM   34  C26 UNL     1       7.418  -9.598  17.812  1.00  0.00    -0.027 A 
HETATM   35  C27 UNL     1       8.756  -9.803  17.199  1.00  0.00     0.051 C 
BRANCH  32  36
HETATM   36  C2  UNL     1       7.475 -11.738  19.269  1.00  0.00     0.036 C 
HETATM   37  C1  UNL     1       8.307 -11.453  20.505  1.00  0.00     0.010 C 
ENDBRANCH  32  36
ENDBRANCH  27  28
ENDBRANCH   1  27
BRANCH   6  38
HETATM   38  C11 UNL     1       2.667  -5.727  16.617  1.00  0.00     0.013 C 
HETATM   39  C12 UNL     1       1.918  -5.280  15.382  1.00  0.00     0.012 C 
BRANCH  38  40
HETATM   40  C13 UNL     1       3.100  -7.161  16.390  1.00  0.00     0.002 C 
HETATM   41  C14 UNL     1       2.419  -8.096  17.366  1.00  0.00     0.005 C 
ENDBRANCH  38  40
ENDBRANCH   6  38
BRANCH  11  42
HETATM   42  C17 UNL     1       3.838  -1.633  13.768  1.00  0.00     0.146 C 
HETATM   43  C18 UNL     1       2.862  -0.581  14.206  1.00  0.00     0.042 C 
BRANCH  42  44
HETATM   44  O3  UNL     1       4.792  -1.012  12.974  1.00  0.00    -0.393 OA
ATOM     45  H3  UNL     1       4.409  -0.412  12.343  1.00  0.00     0.210 HD
ENDBRANCH  42  44
ENDBRANCH  11  42
TORSDOF 7
ENDMDL
MODEL 5
REMARK VINA RESULT: -7.851524860      1.879      2.952
REMARK  7 active torsions:
REMARK  status: ('A' for Active; 'I' for Inactive)
REMARK    1  A    between atoms: C2_2  and  C3_3 
REMARK    2  A    between atoms: C6_8  and  C7_9 
REMARK    3  A    between atoms: C7_9  and  C8_10 
REMARK    4  A    between atoms: C10_15  and  C11_16 
REMARK    5  A    between atoms: C11_16  and  C13_18 
REMARK    6  A    between atoms: C16_24  and  C17_25 
REMARK    7  A    between atoms: C17_25  and  O3_27 
ROOT
HETATM    1  C8  UNL     1       5.820  -2.770  15.215  1.00  0.00     0.044 C 
HETATM    2  C9  UNL     1       7.078  -2.514  15.972  1.00  0.00     0.251 C 
HETATM    3  O1  UNL     1       7.284  -1.294  16.327  1.00  0.00    -0.268 OA
HETATM    4  N2  UNL     1       8.013  -3.523  16.301  1.00  0.00    -0.344 N 
ATOM      5  H2  UNL     1       8.889  -3.194  16.707  1.00  0.00     0.163 HD
HETATM    6  C10 UNL     1       7.903  -4.932  16.145  1.00  0.00     0.180 C 
HETATM    7  C15 UNL     1       8.082  -5.551  17.504  1.00  0.00     0.241 C 
HETATM    8  O2  UNL     1       8.930  -4.956  18.255  1.00  0.00    -0.271 OA
HETATM    9  N3  UNL     1       7.384  -6.696  17.940  1.00  0.00    -0.344 N 
ATOM     10  H3  UNL     1       7.903  -7.368  18.505  1.00  0.00     0.163 HD
HETATM   11  C16 UNL     1       5.997  -7.006  17.659  1.00  0.00     0.205 C 
HETATM   12  C19 UNL     1       5.122  -6.142  18.483  1.00  0.00     0.243 C 
HETATM   13  O4  UNL     1       5.112  -6.457  19.733  1.00  0.00    -0.271 OA
HETATM   14  N4  UNL     1       4.350  -5.069  18.042  1.00  0.00    -0.346 N 
ATOM     15  H4  UNL     1       4.374  -4.207  18.586  1.00  0.00     0.163 HD
HETATM   16  C20 UNL     1       3.528  -5.103  16.876  1.00  0.00     0.172 C 
HETATM   17  C21 UNL     1       2.418  -6.135  17.119  1.00  0.00     0.042 C 
HETATM   18  C22 UNL     1       2.902  -3.796  16.571  1.00  0.00     0.244 C 
HETATM   19  O5  UNL     1       1.737  -3.634  17.109  1.00  0.00    -0.271 OA
HETATM   20  N5  UNL     1       3.399  -2.748  15.797  1.00  0.00    -0.316 N 
HETATM   21  C23 UNL     1       2.695  -2.032  14.697  1.00  0.00     0.253 C 
HETATM   22  N6  UNL     1       3.094  -0.689  14.946  1.00  0.00    -0.343 N 
ATOM     23  H6  UNL     1       2.531   0.141  14.762  1.00  0.00     0.164 HD
HETATM   24  C24 UNL     1       4.404  -0.694  15.490  1.00  0.00     0.246 C 
HETATM   25  O6  UNL     1       5.089   0.340  15.576  1.00  0.00    -0.271 OA
HETATM   26  C25 UNL     1       4.674  -2.072  15.868  1.00  0.00     0.219 C 
ENDROOT
BRANCH   1  27
HETATM   27  C7  UNL     1       5.975  -2.793  13.776  1.00  0.00     0.045 C 
BRANCH  27  28
HETATM   28  C6  UNL     1       6.369  -1.656  12.974  1.00  0.00     0.039 A 
HETATM   29  N1  UNL     1       7.657  -1.300  12.813  1.00  0.00    -0.359 N 
HETATM   30  C4  UNL     1       7.798  -0.228  12.030  1.00  0.00     0.012 A 
ATOM     31  H1  UNL     1       8.440  -1.794  13.242  1.00  0.00     0.166 HD
HETATM   32  C3  UNL     1       6.536   0.142  11.657  1.00  0.00    -0.028 A 
HETATM   33  C5  UNL     1       9.086   0.451  11.630  1.00  0.00     0.068 C 
HETATM   34  C26 UNL     1       5.652  -0.750  12.249  1.00  0.00    -0.027 A 
HETATM   35  C27 UNL     1       4.179  -0.640  12.080  1.00  0.00     0.051 C 
BRANCH  32  36
HETATM   36  C2  UNL     1       6.230   1.299  10.775  1.00  0.00     0.036 C 
HETATM   37  C1  UNL     1       6.041   2.557  11.599  1.00  0.00     0.010 C 
ENDBRANCH  32  36
ENDBRANCH  27  28
ENDBRANCH   1  27
BRANCH   6  38
HETATM   38  C11 UNL     1       8.931  -5.498  15.177  1.00  0.00     0.013 C 
HETATM   39  C12 UNL     1      10.039  -4.513  14.878  1.00  0.00     0.012 C 
BRANCH  38  40
HETATM   40  C13 UNL     1       9.576  -6.749  15.738  1.00  0.00     0.002 C 
HETATM   41  C14 UNL     1      10.834  -6.415  16.510  1.00  0.00     0.005 C 
ENDBRANCH  38  40
ENDBRANCH   6  38
BRANCH  11  42
HETATM   42  C17 UNL     1       5.822  -8.485  17.943  1.00  0.00     0.146 C 
HETATM   43  C18 UNL     1       4.536  -9.055  17.420  1.00  0.00     0.042 C 
BRANCH  42  44
HETATM   44  O3  UNL     1       6.857  -9.255  17.430  1.00  0.00    -0.393 OA
ATOM     45  H3  UNL     1       6.603  -9.740  16.653  1.00  0.00     0.210 HD
ENDBRANCH  42  44
ENDBRANCH  11  42
TORSDOF 7
ENDMDL
