MODEL 1
REMARK VINA RESULT: -9.826408062      0.000      0.000
REMARK  11 active torsions:
REMARK  status: ('A' for Active; 'I' for Inactive)
REMARK    1  A    between atoms: N2_8  and  C5_9 
REMARK    2  A    between atoms: C5_9  and  C6_10 
REMARK    3  A    between atoms: C6_10  and  O2_11 
REMARK    4  A    between atoms: N3_13  and  C7_15 
REMARK    5  A    between atoms: C8_18  and  C9_19 
REMARK    6  A    between atoms: C9_19  and  C10_20 
REMARK    7  A    between atoms: C14_24  and  N5_25 
REMARK       I    between atoms: N5_25  and  C15_27 
REMARK    8  A    between atoms: C15_27  and  C16_29 
REMARK    9  A    between atoms: C21_36  and  O4_37 
REMARK   10  A    between atoms: C23_43  and  C24_44 
REMARK   11  A    between atoms: C24_44  and  C25_45 
ROOT
HETATM    1  C7  UNL     1       5.099  -2.025  15.515  1.00  0.00     0.135 A 
HETATM    2  N4  UNL     1       6.215  -2.767  15.454  1.00  0.00    -0.336 N 
ATOM      3  H4  UNL     1       6.386  -3.468  16.175  1.00  0.00     0.168 HD
HETATM    4  C8  UNL     1       7.122  -2.604  14.456  1.00  0.00     0.103 A 
HETATM    5  C22 UNL     1       6.905  -1.665  13.479  1.00  0.00     0.272 A 
HETATM    6  O5  UNL     1       7.721  -1.465  12.515  1.00  0.00    -0.266 OA
HETATM    7  N7  UNL     1       5.786  -0.917  13.536  1.00  0.00    -0.318 N 
ATOM      8  H7  UNL     1       5.624  -0.217  12.811  1.00  0.00     0.169 HD
HETATM    9  C23 UNL     1       4.882  -1.058  14.505  1.00  0.00     0.082 A 
ENDROOT
BRANCH   4  10
HETATM   10  C9  UNL     1       8.208  -3.358  14.444  1.00  0.00     0.049 C 
BRANCH  10  11
HETATM   11  C10 UNL     1       8.862  -3.943  15.585  1.00  0.00     0.002 A 
HETATM   12  C11 UNL     1       9.985  -3.334  16.079  1.00  0.00     0.014 A 
HETATM   13  C12 UNL     1      10.639  -3.870  17.159  1.00  0.00     0.003 A 
HETATM   14  C13 UNL     1      10.139  -5.044  17.741  1.00  0.00     0.032 A 
HETATM   15  C14 UNL     1       9.021  -5.684  17.277  1.00  0.00     0.069 A 
HETATM   16  C21 UNL     1       8.391  -5.113  16.191  1.00  0.00     0.102 A 
BRANCH  15  17
HETATM   17  N5  UNL     1       8.517  -6.862  17.865  1.00  0.00    -0.320 N 
HETATM   18  C15 UNL     1       8.612  -8.182  17.382  1.00  0.00     0.257 C 
HETATM   19  O3  UNL     1       9.169  -8.547  16.321  1.00  0.00    -0.267 OA
ATOM     20  H5  UNL     1       8.023  -6.744  18.749  1.00  0.00     0.169 HD
BRANCH  18  21
HETATM   21  C16 UNL     1       8.014  -9.311  18.152  1.00  0.00     0.047 A 
HETATM   22  C17 UNL     1       7.318 -10.301  17.491  1.00  0.00     0.020 A 
HETATM   23  C18 UNL     1       6.763 -11.355  18.179  1.00  0.00     0.018 A 
HETATM   24  C19 UNL     1       6.902 -11.430  19.551  1.00  0.00     0.087 A 
HETATM   25  N6  UNL     1       7.589 -10.444  20.151  1.00  0.00    -0.374 N 
HETATM   26  C20 UNL     1       8.144  -9.400  19.512  1.00  0.00     0.104 A 
ATOM     27  H6  UNL     1       7.696 -10.491  21.164  1.00  0.00     0.164 HD
ENDBRANCH  18  21
ENDBRANCH  15  17
BRANCH  16  28
HETATM   28  O4  UNL     1       7.275  -5.663  15.650  1.00  0.00    -0.357 OA
ATOM     29  H4  UNL     1       6.977  -6.477  16.038  1.00  0.00     0.217 HD
ENDBRANCH  16  28
ENDBRANCH  10  11
ENDBRANCH   4  10
BRANCH   1  30
HETATM   30  N3  UNL     1       4.224  -2.107  16.384  1.00  0.00    -0.323 N 
HETATM   31  C6  UNL     1       3.240  -2.982  16.714  1.00  0.00     0.137 C 
ATOM     32  H3  UNL     1       4.247  -1.309  17.019  1.00  0.00     0.169 HD
BRANCH  31  33
HETATM   33  C5  UNL     1       2.863  -4.292  16.156  1.00  0.00     0.232 C 
BRANCH  33  34
HETATM   34  N2  UNL     1       3.613  -5.381  16.801  1.00  0.00    -0.292 N 
HETATM   35  N1  UNL     1       4.462  -5.130  17.792  1.00  0.00    -0.264 N 
HETATM   36  C4  UNL     1       5.168  -6.092  18.410  1.00  0.00     0.260 A 
ATOM     37  H1  UNL     1       4.584  -4.165  18.097  1.00  0.00     0.190 HD
HETATM   38  C3  UNL     1       4.998  -7.395  17.992  1.00  0.00     0.084 A 
HETATM   39  O1  UNL     1       5.975  -5.873  19.350  1.00  0.00    -0.267 OA
HETATM   40  C2  UNL     1       4.111  -7.681  16.954  1.00  0.00    -0.040 A 
HETATM   41  C1  UNL     1       3.934  -9.091  16.510  1.00  0.00     0.050 C 
HETATM   42  C29 UNL     1       3.435  -6.635  16.383  1.00  0.00     0.117 A 
ENDBRANCH  33  34
ENDBRANCH  31  33
BRANCH  31  43
HETATM   43  O2  UNL     1       2.468  -2.616  17.713  1.00  0.00    -0.348 OA
ATOM     44  H2  UNL     1       2.676  -1.746  18.036  1.00  0.00     0.219 HD
ENDBRANCH  31  43
ENDBRANCH   1  30
BRANCH   9  45
HETATM   45  C24 UNL     1       3.786  -0.333  14.575  1.00  0.00     0.063 C 
BRANCH  45  46
HETATM   46  C25 UNL     1       3.353   0.574  13.545  1.00  0.00     0.034 A 
HETATM   47  C26 UNL     1       2.179   0.489  12.843  1.00  0.00     0.031 A 
HETATM   48  C27 UNL     1       2.130   1.553  11.938  1.00  0.00     0.019 A 
HETATM   49  C28 UNL     1       3.294   2.250  12.129  1.00  0.00     0.088 A 
HETATM   50  N8  UNL     1       4.010   1.648  13.093  1.00  0.00    -0.366 N 
ATOM     51  H8  UNL     1       4.920   1.963  13.431  1.00  0.00     0.165 HD
ENDBRANCH  45  46
ENDBRANCH   9  45
TORSDOF 11
ENDMDL
MODEL 2
REMARK VINA RESULT: -9.513189784      1.924      9.178
REMARK  11 active torsions:
REMARK  status: ('A' for Active; 'I' for Inactive)
REMARK    1  A    between atoms: N2_8  and  C5_9 
REMARK    2  A    between atoms: C5_9  and  C6_10 
REMARK    3  A    between atoms: C6_10  and  O2_11 
REMARK    4  A    between atoms: N3_13  and  C7_15 
REMARK    5  A    between atoms: C8_18  and  C9_19 
REMARK    6  A    between atoms: C9_19  and  C10_20 
REMARK    7  A    between atoms: C14_24  and  N5_25 
REMARK       I    between atoms: N5_25  and  C15_27 
REMARK    8  A    between atoms: C15_27  and  C16_29 
REMARK    9  A    between atoms: C21_36  and  O4_37 
REMARK   10  A    between atoms: C23_43  and  C24_44 
REMARK   11  A    between atoms: C24_44  and  C25_45 
ROOT
HETATM    1  C7  UNL     1       7.665  -5.524  17.478  1.00  0.00     0.135 A 
HETATM    2  N4  UNL     1       7.533  -4.474  16.654  1.00  0.00    -0.336 N 
ATOM      3  H4  UNL     1       6.818  -3.774  16.850  1.00  0.00     0.168 HD
HETATM    4  C8  UNL     1       8.329  -4.323  15.564  1.00  0.00     0.103 A 
HETATM    5  C22 UNL     1       9.296  -5.257  15.286  1.00  0.00     0.272 A 
HETATM    6  O5  UNL     1      10.076  -5.170  14.277  1.00  0.00    -0.266 OA
HETATM    7  N7  UNL     1       9.433  -6.313  16.111  1.00  0.00    -0.318 N 
ATOM      8  H7  UNL     1      10.151  -7.008  15.905  1.00  0.00     0.169 HD
HETATM    9  C23 UNL     1       8.664  -6.483  17.186  1.00  0.00     0.082 A 
ENDROOT
BRANCH   4  10
HETATM   10  C9  UNL     1       8.156  -3.272  14.780  1.00  0.00     0.049 C 
BRANCH  10  11
HETATM   11  C10 UNL     1       6.944  -2.898  14.099  1.00  0.00     0.002 A 
HETATM   12  C11 UNL     1       5.884  -3.765  14.127  1.00  0.00     0.014 A 
HETATM   13  C12 UNL     1       4.717  -3.446  13.479  1.00  0.00     0.003 A 
HETATM   14  C13 UNL     1       4.634  -2.226  12.794  1.00  0.00     0.032 A 
HETATM   15  C14 UNL     1       5.671  -1.333  12.740  1.00  0.00     0.069 A 
HETATM   16  C21 UNL     1       6.825  -1.689  13.404  1.00  0.00     0.102 A 
BRANCH  15  17
HETATM   17  N5  UNL     1       5.585  -0.105  12.053  1.00  0.00    -0.320 N 
HETATM   18  C15 UNL     1       4.732   0.984  12.324  1.00  0.00     0.257 C 
HETATM   19  O3  UNL     1       3.880   1.051  13.241  1.00  0.00    -0.267 OA
ATOM     20  H5  UNL     1       6.218   0.009  11.262  1.00  0.00     0.169 HD
BRANCH  18  21
HETATM   21  C16 UNL     1       4.788   2.213  11.480  1.00  0.00     0.047 A 
HETATM   22  C17 UNL     1       5.937   2.513  10.780  1.00  0.00     0.020 A 
HETATM   23  C18 UNL     1       6.011   3.636   9.990  1.00  0.00     0.018 A 
HETATM   24  C19 UNL     1       4.922   4.480   9.892  1.00  0.00     0.087 A 
HETATM   25  N6  UNL     1       3.825   4.146  10.590  1.00  0.00    -0.374 N 
HETATM   26  C20 UNL     1       3.716   3.058  11.372  1.00  0.00     0.104 A 
ATOM     27  H6  UNL     1       3.015   4.764  10.523  1.00  0.00     0.164 HD
ENDBRANCH  18  21
ENDBRANCH  15  17
BRANCH  16  28
HETATM   28  O4  UNL     1       7.914  -0.880  13.418  1.00  0.00    -0.357 OA
ATOM     29  H4  UNL     1       8.271  -0.671  14.273  1.00  0.00     0.217 HD
ENDBRANCH  16  28
ENDBRANCH  10  11
ENDBRANCH   4  10
BRANCH   1  30
HETATM   30  N3  UNL     1       6.987  -5.738  18.489  1.00  0.00    -0.323 N 
HETATM   31  C6  UNL     1       5.709  -6.106  18.759  1.00  0.00     0.137 C 
ATOM     32  H3  UNL     1       7.530  -5.605  19.342  1.00  0.00     0.169 HD
BRANCH  31  33
HETATM   33  C5  UNL     1       4.587  -6.477  17.880  1.00  0.00     0.232 C 
BRANCH  33  34
HETATM   34  N2  UNL     1       3.931  -5.285  17.321  1.00  0.00    -0.292 N 
HETATM   35  N1  UNL     1       4.436  -4.072  17.521  1.00  0.00    -0.264 N 
HETATM   36  C4  UNL     1       3.872  -2.955  17.030  1.00  0.00     0.260 A 
ATOM     37  H1  UNL     1       5.290  -3.984  18.072  1.00  0.00     0.190 HD
HETATM   38  C3  UNL     1       2.718  -3.081  16.286  1.00  0.00     0.084 A 
HETATM   39  O1  UNL     1       4.336  -1.800  17.210  1.00  0.00    -0.267 OA
HETATM   40  C2  UNL     1       2.171  -4.346  16.063  1.00  0.00    -0.040 A 
HETATM   41  C1  UNL     1       0.925  -4.472  15.257  1.00  0.00     0.050 C 
HETATM   42  C29 UNL     1       2.816  -5.427  16.603  1.00  0.00     0.117 A 
ENDBRANCH  33  34
ENDBRANCH  31  33
BRANCH  31  43
HETATM   43  O2  UNL     1       5.388  -6.146  20.033  1.00  0.00    -0.348 OA
ATOM     44  H2  UNL     1       5.962  -6.711  20.537  1.00  0.00     0.219 HD
ENDBRANCH  31  43
ENDBRANCH   1  30
BRANCH   9  45
HETATM   45  C24 UNL     1       8.784  -7.511  17.999  1.00  0.00     0.063 C 
BRANCH  45  46
HETATM   46  C25 UNL     1       8.376  -8.850  17.668  1.00  0.00     0.034 A 
HETATM   47  C26 UNL     1       9.182  -9.959  17.674  1.00  0.00     0.031 A 
HETATM   48  C27 UNL     1       8.413 -11.064  17.297  1.00  0.00     0.019 A 
HETATM   49  C28 UNL     1       7.153 -10.573  17.074  1.00  0.00     0.088 A 
HETATM   50  N8  UNL     1       7.153  -9.250  17.301  1.00  0.00    -0.366 N 
ATOM     51  H8  UNL     1       6.341  -8.639  17.208  1.00  0.00     0.165 HD
ENDBRANCH  45  46
ENDBRANCH   9  45
TORSDOF 11
ENDMDL
MODEL 3
REMARK VINA RESULT: -9.294489377      2.571      6.045
REMARK  11 active torsions:
REMARK  status: ('A' for Active; 'I' for Inactive)
REMARK    1  A    between atoms: N2_8  and  C5_9 
REMARK    2  A    between atoms: C5_9  and  C6_10 
REMARK    3  A    between atoms: C6_10  and  O2_11 
REMARK    4  A    between atoms: N3_13  and  C7_15 
REMARK    5  A    between atoms: C8_18  and  C9_19 
REMARK    6  A    between atoms: C9_19  and  C10_20 
REMARK    7  A    between atoms: C14_24  and  N5_25 
REMARK       I    between atoms: N5_25  and  C15_27 
REMARK    8  A    between atoms: C15_27  and  C16_29 
REMARK    9  A    between atoms: C21_36  and  O4_37 
REMARK   10  A    between atoms: C23_43  and  C24_44 
REMARK   11  A    between atoms: C24_44  and  C25_45 
ROOT
HETATM    1  C7  UNL     1       6.360  -0.405  14.368  1.00  0.00     0.135 A 
HETATM    2  N4  UNL     1       7.159  -1.482  14.366  1.00  0.00    -0.336 N 
ATOM      3  H4  UNL     1       8.162  -1.358  14.224  1.00  0.00     0.168 HD
HETATM    4  C8  UNL     1       6.665  -2.734  14.548  1.00  0.00     0.103 A 
HETATM    5  C22 UNL     1       5.318  -2.918  14.740  1.00  0.00     0.272 A 
HETATM    6  O5  UNL     1       4.793  -4.070  14.917  1.00  0.00    -0.266 OA
HETATM    7  N7  UNL     1       4.510  -1.839  14.743  1.00  0.00    -0.318 N 
ATOM      8  H7  UNL     1       3.509  -1.975  14.885  1.00  0.00     0.169 HD
HETATM    9  C23 UNL     1       4.972  -0.602  14.567  1.00  0.00     0.082 A 
ENDROOT
BRANCH   4  10
HETATM   10  C9  UNL     1       7.495  -3.764  14.533  1.00  0.00     0.049 C 
BRANCH  10  11
HETATM   11  C10 UNL     1       8.259  -4.267  15.644  1.00  0.00     0.002 A 
HETATM   12  C11 UNL     1       9.444  -3.653  15.954  1.00  0.00     0.014 A 
HETATM   13  C12 UNL     1      10.204  -4.113  17.000  1.00  0.00     0.003 A 
HETATM   14  C13 UNL     1       9.746  -5.214  17.738  1.00  0.00     0.032 A 
HETATM   15  C14 UNL     1       8.569  -5.856  17.460  1.00  0.00     0.069 A 
HETATM   16  C21 UNL     1       7.834  -5.363  16.402  1.00  0.00     0.102 A 
BRANCH  15  17
HETATM   17  N5  UNL     1       8.109  -6.961  18.204  1.00  0.00    -0.320 N 
HETATM   18  C15 UNL     1       8.229  -8.330  17.891  1.00  0.00     0.257 C 
HETATM   19  O3  UNL     1       8.775  -8.814  16.872  1.00  0.00    -0.267 OA
ATOM     20  H5  UNL     1       7.630  -6.743  19.077  1.00  0.00     0.169 HD
BRANCH  18  21
HETATM   21  C16 UNL     1       7.677  -9.365  18.812  1.00  0.00     0.047 A 
HETATM   22  C17 UNL     1       8.531 -10.124  19.584  1.00  0.00     0.020 A 
HETATM   23  C18 UNL     1       8.046 -11.079  20.446  1.00  0.00     0.018 A 
HETATM   24  C19 UNL     1       6.684 -11.286  20.545  1.00  0.00     0.087 A 
HETATM   25  N6  UNL     1       5.891 -10.523  19.776  1.00  0.00    -0.374 N 
HETATM   26  C20 UNL     1       6.329  -9.580  18.923  1.00  0.00     0.104 A 
ATOM     27  H6  UNL     1       4.883 -10.669  19.843  1.00  0.00     0.164 HD
ENDBRANCH  18  21
ENDBRANCH  15  17
BRANCH  16  28
HETATM   28  O4  UNL     1       6.652  -5.922  16.039  1.00  0.00    -0.357 OA
ATOM     29  H4  UNL     1       5.869  -5.436  16.271  1.00  0.00     0.217 HD
ENDBRANCH  16  28
ENDBRANCH  10  11
ENDBRANCH   4  10
BRANCH   1  30
HETATM   30  N3  UNL     1       6.725   0.765  14.212  1.00  0.00    -0.323 N 
HETATM   31  C6  UNL     1       7.444   1.459  13.294  1.00  0.00     0.137 C 
ATOM     32  H3  UNL     1       6.400   1.365  14.970  1.00  0.00     0.169 HD
BRANCH  31  33
HETATM   33  C5  UNL     1       8.048   1.059  12.013  1.00  0.00     0.232 C 
BRANCH  33  34
HETATM   34  N2  UNL     1       7.385   1.723  10.880  1.00  0.00    -0.292 N 
HETATM   35  N1  UNL     1       6.721   2.862  11.052  1.00  0.00    -0.264 N 
HETATM   36  C4  UNL     1       6.100   3.505  10.048  1.00  0.00     0.260 A 
ATOM     37  H1  UNL     1       6.681   3.266  11.988  1.00  0.00     0.190 HD
HETATM   38  C3  UNL     1       6.159   2.952   8.787  1.00  0.00     0.084 A 
HETATM   39  O1  UNL     1       5.468   4.582  10.192  1.00  0.00    -0.267 OA
HETATM   40  C2  UNL     1       6.852   1.757   8.583  1.00  0.00    -0.040 A 
HETATM   41  C1  UNL     1       6.910   1.169   7.217  1.00  0.00     0.050 C 
HETATM   42  C29 UNL     1       7.453   1.174   9.667  1.00  0.00     0.117 A 
ENDBRANCH  33  34
ENDBRANCH  31  33
BRANCH  31  43
HETATM   43  O2  UNL     1       7.653   2.726  13.579  1.00  0.00    -0.348 OA
ATOM     44  H2  UNL     1       6.846   3.206  13.725  1.00  0.00     0.219 HD
ENDBRANCH  31  43
ENDBRANCH   1  30
BRANCH   9  45
HETATM   45  C24 UNL     1       4.196   0.461  14.564  1.00  0.00     0.063 C 
BRANCH  45  46
HETATM   46  C25 UNL     1       3.503   0.948  13.401  1.00  0.00     0.034 A 
HETATM   47  C26 UNL     1       2.338   0.440  12.890  1.00  0.00     0.031 A 
HETATM   48  C27 UNL     1       1.989   1.186  11.761  1.00  0.00     0.019 A 
HETATM   49  C28 UNL     1       2.973   2.132  11.631  1.00  0.00     0.088 A 
HETATM   50  N8  UNL     1       3.867   1.972  12.620  1.00  0.00    -0.366 N 
ATOM     51  H8  UNL     1       4.699   2.545  12.756  1.00  0.00     0.165 HD
ENDBRANCH  45  46
ENDBRANCH   9  45
TORSDOF 11
ENDMDL
MODEL 4
REMARK VINA RESULT: -9.286775257      4.576      9.018
REMARK  11 active torsions:
REMARK  status: ('A' for Active; 'I' for Inactive)
REMARK    1  A    between atoms: N2_8  and  C5_9 
REMARK    2  A    between atoms: C5_9  and  C6_10 
REMARK    3  A    between atoms: C6_10  and  O2_11 
REMARK    4  A    between atoms: N3_13  and  C7_15 
REMARK    5  A    between atoms: C8_18  and  C9_19 
REMARK    6  A    between atoms: C9_19  and  C10_20 
REMARK    7  A    between atoms: C14_24  and  N5_25 
REMARK       I    between atoms: N5_25  and  C15_27 
REMARK    8  A    between atoms: C15_27  and  C16_29 
REMARK    9  A    between atoms: C21_36  and  O4_37 
REMARK   10  A    between atoms: C23_43  and  C24_44 
REMARK   11  A    between atoms: C24_44  and  C25_45 
ROOT
HETATM    1  C7  UNL     1       6.364   2.041   9.417  1.00  0.00     0.135 A 
HETATM    2  N4  UNL     1       5.306   2.448  10.134  1.00  0.00    -0.336 N 
ATOM      3  H4  UNL     1       5.080   1.968  11.004  1.00  0.00     0.168 HD
HETATM    4  C8  UNL     1       4.531   3.486   9.726  1.00  0.00     0.103 A 
HETATM    5  C22 UNL     1       4.823   4.143   8.557  1.00  0.00     0.272 A 
HETATM    6  O5  UNL     1       4.131   5.126   8.122  1.00  0.00    -0.266 OA
HETATM    7  N7  UNL     1       5.884   3.737   7.833  1.00  0.00    -0.318 N 
ATOM      8  H7  UNL     1       6.102   4.224   6.964  1.00  0.00     0.169 HD
HETATM    9  C23 UNL     1       6.660   2.722   8.212  1.00  0.00     0.082 A 
ENDROOT
BRANCH   4  10
HETATM   10  C9  UNL     1       3.496   3.847  10.468  1.00  0.00     0.049 C 
BRANCH  10  11
HETATM   11  C10 UNL     1       2.483   2.980  11.010  1.00  0.00     0.002 A 
HETATM   12  C11 UNL     1       1.218   3.049  10.490  1.00  0.00     0.014 A 
HETATM   13  C12 UNL     1       0.225   2.245  10.990  1.00  0.00     0.003 A 
HETATM   14  C13 UNL     1       0.529   1.361  12.034  1.00  0.00     0.032 A 
HETATM   15  C14 UNL     1       1.781   1.262  12.582  1.00  0.00     0.069 A 
HETATM   16  C21 UNL     1       2.751   2.086  12.052  1.00  0.00     0.102 A 
BRANCH  15  17
HETATM   17  N5  UNL     1       2.086   0.371  13.630  1.00  0.00    -0.320 N 
HETATM   18  C15 UNL     1       2.900  -0.779  13.582  1.00  0.00     0.257 C 
HETATM   19  O3  UNL     1       3.503  -1.222  12.577  1.00  0.00    -0.267 OA
ATOM     20  H5  UNL     1       1.667   0.584  14.535  1.00  0.00     0.169 HD
BRANCH  18  21
HETATM   21  C16 UNL     1       3.110  -1.605  14.807  1.00  0.00     0.047 A 
HETATM   22  C17 UNL     1       2.359  -2.744  15.005  1.00  0.00     0.020 A 
HETATM   23  C18 UNL     1       2.539  -3.525  16.123  1.00  0.00     0.018 A 
HETATM   24  C19 UNL     1       3.485  -3.169  17.064  1.00  0.00     0.087 A 
HETATM   25  N6  UNL     1       4.193  -2.053  16.828  1.00  0.00    -0.374 N 
HETATM   26  C20 UNL     1       4.045  -1.266  15.748  1.00  0.00     0.104 A 
ATOM     27  H6  UNL     1       4.895  -1.782  17.518  1.00  0.00     0.164 HD
ENDBRANCH  18  21
ENDBRANCH  15  17
BRANCH  16  28
HETATM   28  O4  UNL     1       4.025   2.072  12.518  1.00  0.00    -0.357 OA
ATOM     29  H4  UNL     1       4.374   1.222  12.760  1.00  0.00     0.217 HD
ENDBRANCH  16  28
ENDBRANCH  10  11
ENDBRANCH   4  10
BRANCH   1  30
HETATM   30  N3  UNL     1       7.121   1.110   9.713  1.00  0.00    -0.323 N 
HETATM   31  C6  UNL     1       7.536   0.499  10.852  1.00  0.00     0.137 C 
ATOM     32  H3  UNL     1       7.545   0.691   8.885  1.00  0.00     0.169 HD
BRANCH  31  33
HETATM   33  C5  UNL     1       7.158   0.690  12.261  1.00  0.00     0.232 C 
BRANCH  33  34
HETATM   34  N2  UNL     1       7.000  -0.599  12.951  1.00  0.00    -0.292 N 
HETATM   35  N1  UNL     1       6.248  -1.563  12.429  1.00  0.00    -0.264 N 
HETATM   36  C4  UNL     1       6.074  -2.757  13.021  1.00  0.00     0.260 A 
ATOM     37  H1  UNL     1       5.782  -1.390  11.538  1.00  0.00     0.190 HD
HETATM   38  C3  UNL     1       6.707  -2.984  14.225  1.00  0.00     0.084 A 
HETATM   39  O1  UNL     1       5.367  -3.680  12.542  1.00  0.00    -0.267 OA
HETATM   40  C2  UNL     1       7.502  -1.986  14.791  1.00  0.00    -0.040 A 
HETATM   41  C1  UNL     1       8.182  -2.242  16.091  1.00  0.00     0.050 C 
HETATM   42  C29 UNL     1       7.620  -0.801  14.114  1.00  0.00     0.117 A 
ENDBRANCH  33  34
ENDBRANCH  31  33
BRANCH  31  43
HETATM   43  O2  UNL     1       8.441  -0.441  10.693  1.00  0.00    -0.348 OA
ATOM     44  H2  UNL     1       8.260  -1.001   9.946  1.00  0.00     0.219 HD
ENDBRANCH  31  43
ENDBRANCH   1  30
BRANCH   9  45
HETATM   45  C24 UNL     1       7.697   2.313   7.514  1.00  0.00     0.063 C 
BRANCH  45  46
HETATM   46  C25 UNL     1       7.602   1.490   6.338  1.00  0.00     0.034 A 
HETATM   47  C26 UNL     1       8.206   1.740   5.133  1.00  0.00     0.031 A 
HETATM   48  C27 UNL     1       7.870   0.709   4.251  1.00  0.00     0.019 A 
HETATM   49  C28 UNL     1       7.064  -0.137   4.966  1.00  0.00     0.088 A 
HETATM   50  N8  UNL     1       6.917   0.348   6.210  1.00  0.00    -0.366 N 
ATOM     51  H8  UNL     1       6.364  -0.089   6.948  1.00  0.00     0.165 HD
ENDBRANCH  45  46
ENDBRANCH   9  45
TORSDOF 11
ENDMDL
MODEL 5
REMARK VINA RESULT: -9.263088348      2.332      8.356
REMARK  11 active torsions:
REMARK  status: ('A' for Active; 'I' for Inactive)
REMARK    1  A    between atoms: N2_8  and  C5_9 
REMARK    2  A    between atoms: C5_9  and  C6_10 
REMARK    3  A    between atoms: C6_10  and  O2_11 
REMARK    4  A    between atoms: N3_13  and  C7_15 
REMARK    5  A    between atoms: C8_18  and  C9_19 
REMARK    6  A    between atoms: C9_19  and  C10_20 
REMARK    7  A    between atoms: C14_24  and  N5_25 
REMARK       I    between atoms: N5_25  and  C15_27 
REMARK    8  A    between atoms: C15_27  and  C16_29 
REMARK    9  A    between atoms: C21_36  and  O4_37 
REMARK   10  A    between atoms: C23_43  and  C24_44 
REMARK   11  A    between atoms: C24_44  and  C25_45 
ROOT
HETATM    1  C7  UNL     1       3.633  -6.468  16.765  1.00  0.00     0.135 A 
HETATM    2  N4  UNL     1       4.773  -5.783  16.941  1.00  0.00    -0.336 N 
ATOM      3  H4  UNL     1       4.856  -4.845  16.548  1.00  0.00     0.168 HD
HETATM    4  C8  UNL     1       5.818  -6.309  17.629  1.00  0.00     0.103 A 
HETATM    5  C22 UNL     1       5.722  -7.570  18.164  1.00  0.00     0.272 A 
HETATM    6  O5  UNL     1       6.671  -8.119  18.822  1.00  0.00    -0.266 OA
HETATM    7  N7  UNL     1       4.580  -8.263  17.990  1.00  0.00    -0.318 N 
ATOM      8  H7  UNL     1       4.508  -9.200  18.386  1.00  0.00     0.169 HD
HETATM    9  C23 UNL     1       3.541  -7.768  17.318  1.00  0.00     0.082 A 
ENDROOT
BRANCH   4  10
HETATM   10  C9  UNL     1       6.921  -5.594  17.772  1.00  0.00     0.049 C 
BRANCH  10  11
HETATM   11  C10 UNL     1       7.811  -5.168  16.724  1.00  0.00     0.002 A 
HETATM   12  C11 UNL     1       9.007  -5.818  16.577  1.00  0.00     0.014 A 
HETATM   13  C12 UNL     1       9.884  -5.432  15.595  1.00  0.00     0.003 A 
HETATM   14  C13 UNL     1       9.534  -4.366  14.754  1.00  0.00     0.032 A 
HETATM   15  C14 UNL     1       8.349  -3.689  14.869  1.00  0.00     0.069 A 
HETATM   16  C21 UNL     1       7.495  -4.108  15.866  1.00  0.00     0.102 A 
BRANCH  15  17
HETATM   17  N5  UNL     1       7.997  -2.620  14.021  1.00  0.00    -0.320 N 
HETATM   18  C15 UNL     1       7.566  -1.328  14.385  1.00  0.00     0.257 C 
HETATM   19  O3  UNL     1       7.415  -0.896  15.551  1.00  0.00    -0.267 OA
ATOM     20  H5  UNL     1       8.061  -2.804  13.020  1.00  0.00     0.169 HD
BRANCH  18  21
HETATM   21  C16 UNL     1       7.238  -0.319  13.335  1.00  0.00     0.047 A 
HETATM   22  C17 UNL     1       7.637  -0.530  12.032  1.00  0.00     0.020 A 
HETATM   23  C18 UNL     1       7.341   0.381  11.046  1.00  0.00     0.018 A 
HETATM   24  C19 UNL     1       6.633   1.525  11.358  1.00  0.00     0.087 A 
HETATM   25  N6  UNL     1       6.265   1.687  12.639  1.00  0.00    -0.374 N 
HETATM   26  C20 UNL     1       6.536   0.819  13.629  1.00  0.00     0.104 A 
ATOM     27  H6  UNL     1       5.742   2.530  12.879  1.00  0.00     0.164 HD
ENDBRANCH  18  21
ENDBRANCH  15  17
BRANCH  16  28
HETATM   28  O4  UNL     1       6.294  -3.509  16.070  1.00  0.00    -0.357 OA
ATOM     29  H4  UNL     1       5.615  -3.704  15.435  1.00  0.00     0.217 HD
ENDBRANCH  16  28
ENDBRANCH  10  11
ENDBRANCH   4  10
BRANCH   1  30
HETATM   30  N3  UNL     1       2.636  -6.067  16.155  1.00  0.00    -0.323 N 
HETATM   31  C6  UNL     1       2.065  -4.867  15.879  1.00  0.00     0.137 C 
ATOM     32  H3  UNL     1       2.104  -6.839  15.753  1.00  0.00     0.169 HD
BRANCH  31  33
HETATM   33  C5  UNL     1       2.489  -3.488  16.171  1.00  0.00     0.232 C 
BRANCH  33  34
HETATM   34  N2  UNL     1       3.068  -2.845  14.982  1.00  0.00    -0.292 N 
HETATM   35  N1  UNL     1       3.939  -3.492  14.214  1.00  0.00    -0.264 N 
HETATM   36  C4  UNL     1       4.494  -2.947  13.118  1.00  0.00     0.260 A 
ATOM     37  H1  UNL     1       4.198  -4.446  14.467  1.00  0.00     0.190 HD
HETATM   38  C3  UNL     1       4.140  -1.657  12.782  1.00  0.00     0.084 A 
HETATM   39  O1  UNL     1       5.319  -3.544  12.380  1.00  0.00    -0.267 OA
HETATM   40  C2  UNL     1       3.227  -0.959  13.574  1.00  0.00    -0.040 A 
HETATM   41  C1  UNL     1       2.850   0.433  13.203  1.00  0.00     0.050 C 
HETATM   42  C29 UNL     1       2.713  -1.597  14.672  1.00  0.00     0.117 A 
ENDBRANCH  33  34
ENDBRANCH  31  33
BRANCH  31  43
HETATM   43  O2  UNL     1       0.922  -4.919  15.232  1.00  0.00    -0.348 OA
ATOM     44  H2  UNL     1       0.863  -5.671  14.654  1.00  0.00     0.219 HD
ENDBRANCH  31  43
ENDBRANCH   1  30
BRANCH   9  45
HETATM   45  C24 UNL     1       2.420  -8.433  17.137  1.00  0.00     0.063 C 
BRANCH  45  46
HETATM   46  C25 UNL     1       2.156  -9.732  17.697  1.00  0.00     0.034 A 
HETATM   47  C26 UNL     1       1.228 -10.016  18.664  1.00  0.00     0.031 A 
HETATM   48  C27 UNL     1       1.278 -11.386  18.934  1.00  0.00     0.019 A 
HETATM   49  C28 UNL     1       2.249 -11.886  18.107  1.00  0.00     0.088 A 
HETATM   50  N8  UNL     1       2.761 -10.882  17.377  1.00  0.00    -0.366 N 
ATOM     51  H8  UNL     1       3.501 -10.981  16.682  1.00  0.00     0.165 HD
ENDBRANCH  45  46
ENDBRANCH   9  45
TORSDOF 11
ENDMDL
