MODEL 1
REMARK VINA RESULT: -9.157586514      0.000      0.000
REMARK  13 active torsions:
REMARK  status: ('A' for Active; 'I' for Inactive)
REMARK    1  A    between atoms: N1_2  and  C2_4 
REMARK    2  A    between atoms: C5_9  and  N3_10 
REMARK    3  A    between atoms: N3_10  and  C6_12 
REMARK    4  A    between atoms: C6_12  and  C8_14 
REMARK    5  A    between atoms: C8_14  and  O1_15 
REMARK    6  A    between atoms: C8_14  and  N4_17 
REMARK    7  A    between atoms: N4_17  and  C10_19 
REMARK    8  A    between atoms: C10_19  and  C11_20 
REMARK    9  A    between atoms: C10_19  and  C17_33 
REMARK       I    between atoms: C11_20  and  N5_22 
REMARK   10  A    between atoms: N5_22  and  C12_24 
REMARK       I    between atoms: C17_33  and  N8_35 
REMARK   11  A    between atoms: N8_35  and  C18_37 
REMARK   12  A    between atoms: C18_37  and  C20_39 
REMARK       I    between atoms: C20_39  and  N9_41 
REMARK   13  A    between atoms: N9_41  and  C21_43 
ROOT
HETATM    1  C10 UNL     1       3.470  -2.214  13.778  1.00  0.00     0.271 C 
ENDROOT
BRANCH   1   2
HETATM    2  N4  UNL     1       3.067  -2.798  15.011  1.00  0.00    -0.347 N 
HETATM    3  C9  UNL     1       1.677  -3.298  15.083  1.00  0.00     0.153 C 
BRANCH   2   4
HETATM    4  C8  UNL     1       3.879  -2.985  16.123  1.00  0.00     0.138 C 
BRANCH   4   5
HETATM    5  C6  UNL     1       4.354  -4.176  16.808  1.00  0.00     0.170 C 
HETATM    6  C7  UNL     1       3.368  -4.503  17.929  1.00  0.00     0.041 C 
BRANCH   5   7
HETATM    7  N3  UNL     1       4.620  -5.333  16.012  1.00  0.00    -0.214 N 
ATOM      8  H3  UNL     1       4.611  -5.255  14.995  1.00  0.00     0.178 HD
BRANCH   7   9
HETATM    9  C5  UNL     1       4.870  -6.466  16.557  1.00  0.00     0.680 A 
HETATM   10  N2  UNL     1       4.013  -7.493  16.234  1.00  0.00    -0.202 N 
HETATM   11  C4  UNL     1       4.178  -8.714  16.744  1.00  0.00     0.110 A 
ATOM     12  H2  UNL     1       3.239  -7.318  15.593  1.00  0.00     0.183 HD
HETATM   13  C3  UNL     1       5.224  -8.979  17.618  1.00  0.00     0.066 A 
HETATM   14  C2  UNL     1       6.081  -7.952  17.944  1.00  0.00     0.117 A 
HETATM   15  N11 UNL     1       5.860  -6.751  17.395  1.00  0.00    -0.177 N 
ATOM     16  H11 UNL     1       6.500  -5.996  17.641  1.00  0.00     0.185 HD
BRANCH  14  17
HETATM   17  N1  UNL     1       7.064  -8.172  18.749  1.00  0.00    -0.380 N 
HETATM   18  C1  UNL     1       8.317  -7.495  18.709  1.00  0.00     0.147 C 
ATOM     19  H1  UNL     1       6.935  -8.884  19.469  1.00  0.00     0.160 HD
ENDBRANCH  14  17
ENDBRANCH   7   9
ENDBRANCH   5   7
ENDBRANCH   4   5
BRANCH   4  20
HETATM   20  O1  UNL     1       4.303  -1.874  16.669  1.00  0.00    -0.348 OA
ATOM     21  H1  UNL     1       4.483  -1.191  16.034  1.00  0.00     0.219 HD
ENDBRANCH   4  20
ENDBRANCH   2   4
ENDBRANCH   1   2
BRANCH   1  22
HETATM   22  C11 UNL     1       4.908  -2.536  13.503  1.00  0.00     0.268 C 
HETATM   23  O2  UNL     1       5.210  -3.386  12.602  1.00  0.00    -0.270 OA
HETATM   24  N5  UNL     1       6.004  -1.958  14.180  1.00  0.00    -0.157 N 
ATOM     25  H5  UNL     1       6.030  -0.946  14.305  1.00  0.00     0.187 HD
BRANCH  24  26
HETATM   26  C12 UNL     1       6.979  -2.678  14.649  1.00  0.00     0.685 A 
HETATM   27  N6  UNL     1       7.986  -2.223  15.429  1.00  0.00    -0.194 N 
HETATM   28  C13 UNL     1       8.838  -3.192  15.745  1.00  0.00     0.045 A 
ATOM     29  H6  UNL     1       8.080  -1.255  15.736  1.00  0.00     0.184 HD
HETATM   30  C14 UNL     1      10.088  -3.151  16.575  1.00  0.00     0.071 C 
HETATM   31  C15 UNL     1       8.371  -4.334  15.147  1.00  0.00     0.045 A 
HETATM   32  C16 UNL     1       8.952  -5.709  15.176  1.00  0.00     0.071 C 
HETATM   33  N7  UNL     1       7.230  -3.991  14.480  1.00  0.00    -0.194 N 
ATOM     34  H7  UNL     1       6.654  -4.632  13.934  1.00  0.00     0.184 HD
ENDBRANCH  24  26
ENDBRANCH   1  22
BRANCH   1  35
HETATM   35  C17 UNL     1       3.323  -0.728  13.774  1.00  0.00     0.250 C 
HETATM   36  O3  UNL     1       3.905  -0.055  14.629  1.00  0.00    -0.271 OA
HETATM   37  N8  UNL     1       2.520  -0.110  12.798  1.00  0.00    -0.346 N 
ATOM     38  H8  UNL     1       2.062  -0.713  12.116  1.00  0.00     0.163 HD
BRANCH  37  39
HETATM   39  C18 UNL     1       2.295   1.316  12.687  1.00  0.00     0.173 C 
HETATM   40  C19 UNL     1       1.006   1.602  11.988  1.00  0.00     0.042 C 
BRANCH  39  41
HETATM   41  C20 UNL     1       3.435   1.947  11.982  1.00  0.00     0.245 C 
HETATM   42  O4  UNL     1       3.593   3.203  12.050  1.00  0.00    -0.271 OA
HETATM   43  N9  UNL     1       4.366   1.203  11.228  1.00  0.00    -0.311 N 
ATOM     44  H9  UNL     1       4.013   0.556  10.524  1.00  0.00     0.170 HD
BRANCH  43  45
HETATM   45  C21 UNL     1       5.638   1.300  11.384  1.00  0.00     0.107 A 
HETATM   46  C22 UNL     1       6.561   1.275  10.376  1.00  0.00     0.048 A 
HETATM   47  C23 UNL     1       7.930   1.369  10.661  1.00  0.00     0.005 A 
HETATM   48  C24 UNL     1       8.307   1.487  11.978  1.00  0.00     0.017 A 
HETATM   49  C25 UNL     1       7.342   1.507  12.957  1.00  0.00     0.089 A 
HETATM   50  N10 UNL     1       6.035   1.417  12.687  1.00  0.00    -0.352 N 
ATOM     51  H10 UNL     1       5.347   1.436  13.439  1.00  0.00     0.166 HD
ENDBRANCH  43  45
ENDBRANCH  39  41
ENDBRANCH  37  39
ENDBRANCH   1  35
TORSDOF 13
ENDMDL
MODEL 2
REMARK VINA RESULT: -9.155407577      2.726      4.506
REMARK  13 active torsions:
REMARK  status: ('A' for Active; 'I' for Inactive)
REMARK    1  A    between atoms: N1_2  and  C2_4 
REMARK    2  A    between atoms: C5_9  and  N3_10 
REMARK    3  A    between atoms: N3_10  and  C6_12 
REMARK    4  A    between atoms: C6_12  and  C8_14 
REMARK    5  A    between atoms: C8_14  and  O1_15 
REMARK    6  A    between atoms: C8_14  and  N4_17 
REMARK    7  A    between atoms: N4_17  and  C10_19 
REMARK    8  A    between atoms: C10_19  and  C11_20 
REMARK    9  A    between atoms: C10_19  and  C17_33 
REMARK       I    between atoms: C11_20  and  N5_22 
REMARK   10  A    between atoms: N5_22  and  C12_24 
REMARK       I    between atoms: C17_33  and  N8_35 
REMARK   11  A    between atoms: N8_35  and  C18_37 
REMARK   12  A    between atoms: C18_37  and  C20_39 
REMARK       I    between atoms: C20_39  and  N9_41 
REMARK   13  A    between atoms: N9_41  and  C21_43 
ROOT
HETATM    1  C10 UNL     1       6.031  -0.877  12.852  1.00  0.00     0.271 C 
ENDROOT
BRANCH   1   2
HETATM    2  N4  UNL     1       5.792  -0.073  14.001  1.00  0.00    -0.347 N 
HETATM    3  C9  UNL     1       6.817   0.944  14.322  1.00  0.00     0.153 C 
BRANCH   2   4
HETATM    4  C8  UNL     1       4.661  -0.125  14.806  1.00  0.00     0.138 C 
BRANCH   4   5
HETATM    5  C6  UNL     1       3.313  -0.623  14.582  1.00  0.00     0.170 C 
HETATM    6  C7  UNL     1       2.654   0.256  13.520  1.00  0.00     0.041 C 
BRANCH   5   7
HETATM    7  N3  UNL     1       3.166  -2.007  14.259  1.00  0.00    -0.214 N 
ATOM      8  H3  UNL     1       2.996  -2.281  13.291  1.00  0.00     0.178 HD
BRANCH   7   9
HETATM    9  C5  UNL     1       3.244  -2.909  15.166  1.00  0.00     0.680 A 
HETATM   10  N2  UNL     1       2.746  -2.566  16.403  1.00  0.00    -0.202 N 
HETATM   11  C4  UNL     1       2.777  -3.427  17.421  1.00  0.00     0.110 A 
ATOM     12  H2  UNL     1       2.345  -1.639  16.543  1.00  0.00     0.183 HD
HETATM   13  C3  UNL     1       3.317  -4.697  17.256  1.00  0.00     0.066 A 
HETATM   14  C2  UNL     1       3.817  -5.040  16.021  1.00  0.00     0.117 A 
HETATM   15  N11 UNL     1       3.754  -4.129  15.041  1.00  0.00    -0.177 N 
ATOM     16  H11 UNL     1       4.125  -4.392  14.129  1.00  0.00     0.185 HD
BRANCH  14  17
HETATM   17  N1  UNL     1       4.319  -6.214  15.840  1.00  0.00    -0.380 N 
HETATM   18  C1  UNL     1       3.863  -7.402  16.481  1.00  0.00     0.147 C 
ATOM     19  H1  UNL     1       5.101  -6.299  15.189  1.00  0.00     0.160 HD
ENDBRANCH  14  17
ENDBRANCH   7   9
ENDBRANCH   5   7
ENDBRANCH   4   5
BRANCH   4  20
HETATM   20  O1  UNL     1       4.833   0.371  16.004  1.00  0.00    -0.348 OA
ATOM     21  H1  UNL     1       5.738   0.340  16.294  1.00  0.00     0.219 HD
ENDBRANCH   4  20
ENDBRANCH   2   4
ENDBRANCH   1   2
BRANCH   1  22
HETATM   22  C11 UNL     1       6.632  -2.188  13.258  1.00  0.00     0.268 C 
HETATM   23  O2  UNL     1       5.994  -3.273  13.056  1.00  0.00    -0.270 OA
HETATM   24  N5  UNL     1       7.896  -2.337  13.871  1.00  0.00    -0.157 N 
ATOM     25  H5  UNL     1       8.698  -1.846  13.476  1.00  0.00     0.187 HD
BRANCH  24  26
HETATM   26  C12 UNL     1       8.066  -3.080  14.924  1.00  0.00     0.685 A 
HETATM   27  N6  UNL     1       9.261  -3.444  15.443  1.00  0.00    -0.194 N 
HETATM   28  C13 UNL     1       9.116  -4.212  16.517  1.00  0.00     0.045 A 
ATOM     29  H6  UNL     1      10.162  -3.162  15.057  1.00  0.00     0.184 HD
HETATM   30  C14 UNL     1      10.150  -4.844  17.403  1.00  0.00     0.071 C 
HETATM   31  C15 UNL     1       7.767  -4.360  16.713  1.00  0.00     0.045 A 
HETATM   32  C16 UNL     1       7.056  -5.129  17.776  1.00  0.00     0.071 C 
HETATM   33  N7  UNL     1       7.145  -3.656  15.720  1.00  0.00    -0.194 N 
ATOM     34  H7  UNL     1       6.135  -3.579  15.601  1.00  0.00     0.184 HD
ENDBRANCH  24  26
ENDBRANCH   1  22
BRANCH   1  35
HETATM   35  C17 UNL     1       6.962  -0.225  11.883  1.00  0.00     0.250 C 
HETATM   36  O3  UNL     1       8.031  -0.773  11.601  1.00  0.00    -0.271 OA
HETATM   37  N8  UNL     1       6.611   1.008  11.302  1.00  0.00    -0.346 N 
ATOM     38  H8  UNL     1       5.716   1.416  11.570  1.00  0.00     0.163 HD
BRANCH  37  39
HETATM   39  C18 UNL     1       7.423   1.741  10.353  1.00  0.00     0.173 C 
HETATM   40  C19 UNL     1       7.719   3.117  10.853  1.00  0.00     0.042 C 
BRANCH  39  41
HETATM   41  C20 UNL     1       6.737   1.786   9.042  1.00  0.00     0.245 C 
HETATM   42  O4  UNL     1       5.825   2.644   8.845  1.00  0.00    -0.271 OA
HETATM   43  N9  UNL     1       7.058   0.908   7.986  1.00  0.00    -0.311 N 
ATOM     44  H9  UNL     1       7.080  -0.093   8.179  1.00  0.00     0.170 HD
BRANCH  43  45
HETATM   45  C21 UNL     1       7.323   1.305   6.794  1.00  0.00     0.107 A 
HETATM   46  C22 UNL     1       7.239   0.534   5.668  1.00  0.00     0.048 A 
HETATM   47  C23 UNL     1       7.573   1.065   4.415  1.00  0.00     0.005 A 
HETATM   48  C24 UNL     1       7.984   2.377   4.359  1.00  0.00     0.017 A 
HETATM   49  C25 UNL     1       8.052   3.112   5.518  1.00  0.00     0.089 A 
HETATM   50  N10 UNL     1       7.735   2.607   6.715  1.00  0.00    -0.352 N 
ATOM     51  H10 UNL     1       7.798   3.182   7.555  1.00  0.00     0.166 HD
ENDBRANCH  43  45
ENDBRANCH  39  41
ENDBRANCH  37  39
ENDBRANCH   1  35
TORSDOF 13
ENDMDL
MODEL 3
REMARK VINA RESULT: -9.112124288      2.277      4.452
REMARK  13 active torsions:
REMARK  status: ('A' for Active; 'I' for Inactive)
REMARK    1  A    between atoms: N1_2  and  C2_4 
REMARK    2  A    between atoms: C5_9  and  N3_10 
REMARK    3  A    between atoms: N3_10  and  C6_12 
REMARK    4  A    between atoms: C6_12  and  C8_14 
REMARK    5  A    between atoms: C8_14  and  O1_15 
REMARK    6  A    between atoms: C8_14  and  N4_17 
REMARK    7  A    between atoms: N4_17  and  C10_19 
REMARK    8  A    between atoms: C10_19  and  C11_20 
REMARK    9  A    between atoms: C10_19  and  C17_33 
REMARK       I    between atoms: C11_20  and  N5_22 
REMARK   10  A    between atoms: N5_22  and  C12_24 
REMARK       I    between atoms: C17_33  and  N8_35 
REMARK   11  A    between atoms: N8_35  and  C18_37 
REMARK   12  A    between atoms: C18_37  and  C20_39 
REMARK       I    between atoms: C20_39  and  N9_41 
REMARK   13  A    between atoms: N9_41  and  C21_43 
ROOT
HETATM    1  C10 UNL     1       5.987  -0.883  12.857  1.00  0.00     0.271 C 
ENDROOT
BRANCH   1   2
HETATM    2  N4  UNL     1       5.775  -0.066  14.001  1.00  0.00    -0.347 N 
HETATM    3  C9  UNL     1       6.831   0.923  14.313  1.00  0.00     0.153 C 
BRANCH   2   4
HETATM    4  C8  UNL     1       4.645  -0.079  14.809  1.00  0.00     0.138 C 
BRANCH   4   5
HETATM    5  C6  UNL     1       3.286  -0.549  14.597  1.00  0.00     0.170 C 
HETATM    6  C7  UNL     1       2.643   0.328  13.524  1.00  0.00     0.041 C 
BRANCH   5   7
HETATM    7  N3  UNL     1       3.107  -1.935  14.294  1.00  0.00    -0.214 N 
ATOM      8  H3  UNL     1       2.918  -2.218  13.333  1.00  0.00     0.178 HD
BRANCH   7   9
HETATM    9  C5  UNL     1       3.180  -2.826  15.212  1.00  0.00     0.680 A 
HETATM   10  N2  UNL     1       2.768  -2.436  16.466  1.00  0.00    -0.202 N 
HETATM   11  C4  UNL     1       2.803  -3.282  17.496  1.00  0.00     0.110 A 
ATOM     12  H2  UNL     1       2.430  -1.484  16.610  1.00  0.00     0.183 HD
HETATM   13  C3  UNL     1       3.258  -4.583  17.328  1.00  0.00     0.066 A 
HETATM   14  C2  UNL     1       3.672  -4.974  16.074  1.00  0.00     0.117 A 
HETATM   15  N11 UNL     1       3.610  -4.076  15.083  1.00  0.00    -0.177 N 
ATOM     16  H11 UNL     1       3.917  -4.374  14.158  1.00  0.00     0.185 HD
BRANCH  14  17
HETATM   17  N1  UNL     1       4.095  -6.179  15.889  1.00  0.00    -0.380 N 
HETATM   18  C1  UNL     1       3.577  -7.333  16.545  1.00  0.00     0.147 C 
ATOM     19  H1  UNL     1       4.856  -6.315  15.223  1.00  0.00     0.160 HD
ENDBRANCH  14  17
ENDBRANCH   7   9
ENDBRANCH   5   7
ENDBRANCH   4   5
BRANCH   4  20
HETATM   20  O1  UNL     1       4.832   0.432  15.999  1.00  0.00    -0.348 OA
ATOM     21  H1  UNL     1       5.614   0.968  16.056  1.00  0.00     0.219 HD
ENDBRANCH   4  20
ENDBRANCH   2   4
ENDBRANCH   1   2
BRANCH   1  22
HETATM   22  C11 UNL     1       6.573  -2.200  13.267  1.00  0.00     0.268 C 
HETATM   23  O2  UNL     1       5.920  -3.277  13.071  1.00  0.00    -0.270 OA
HETATM   24  N5  UNL     1       7.836  -2.361  13.878  1.00  0.00    -0.157 N 
ATOM     25  H5  UNL     1       8.643  -1.882  13.479  1.00  0.00     0.187 HD
BRANCH  24  26
HETATM   26  C12 UNL     1       8.000  -3.102  14.933  1.00  0.00     0.685 A 
HETATM   27  N6  UNL     1       9.190  -3.455  15.468  1.00  0.00    -0.194 N 
HETATM   28  C13 UNL     1       9.039  -4.223  16.540  1.00  0.00     0.045 A 
ATOM     29  H6  UNL     1      10.094  -3.166  15.093  1.00  0.00     0.184 HD
HETATM   30  C14 UNL     1      10.067  -4.846  17.440  1.00  0.00     0.071 C 
HETATM   31  C15 UNL     1       7.689  -4.384  16.719  1.00  0.00     0.045 A 
HETATM   32  C16 UNL     1       6.972  -5.159  17.773  1.00  0.00     0.071 C 
HETATM   33  N7  UNL     1       7.074  -3.686  15.718  1.00  0.00    -0.194 N 
ATOM     34  H7  UNL     1       6.065  -3.619  15.585  1.00  0.00     0.184 HD
ENDBRANCH  24  26
ENDBRANCH   1  22
BRANCH   1  35
HETATM   35  C17 UNL     1       6.916  -0.254  11.870  1.00  0.00     0.250 C 
HETATM   36  O3  UNL     1       8.018  -0.766  11.658  1.00  0.00    -0.271 OA
HETATM   37  N8  UNL     1       6.525   0.917  11.194  1.00  0.00    -0.346 N 
ATOM     38  H8  UNL     1       5.604   1.297  11.408  1.00  0.00     0.163 HD
BRANCH  37  39
HETATM   39  C18 UNL     1       7.331   1.622  10.219  1.00  0.00     0.173 C 
HETATM   40  C19 UNL     1       8.198   2.643  10.880  1.00  0.00     0.042 C 
BRANCH  39  41
HETATM   41  C20 UNL     1       6.451   2.246   9.205  1.00  0.00     0.245 C 
HETATM   42  O4  UNL     1       6.294   1.679   8.082  1.00  0.00    -0.271 OA
HETATM   43  N9  UNL     1       5.769   3.459   9.434  1.00  0.00    -0.311 N 
ATOM     44  H9  UNL     1       6.304   4.259   9.773  1.00  0.00     0.170 HD
BRANCH  43  45
HETATM   45  C21 UNL     1       4.508   3.607   9.239  1.00  0.00     0.107 A 
HETATM   46  C22 UNL     1       3.566   3.728  10.223  1.00  0.00     0.048 A 
HETATM   47  C23 UNL     1       2.210   3.865   9.897  1.00  0.00     0.005 A 
HETATM   48  C24 UNL     1       1.864   3.874   8.566  1.00  0.00     0.017 A 
HETATM   49  C25 UNL     1       2.847   3.749   7.614  1.00  0.00     0.089 A 
HETATM   50  N10 UNL     1       4.142   3.618   7.922  1.00  0.00    -0.352 N 
ATOM     51  H10 UNL     1       4.844   3.527   7.188  1.00  0.00     0.166 HD
ENDBRANCH  43  45
ENDBRANCH  39  41
ENDBRANCH  37  39
ENDBRANCH   1  35
TORSDOF 13
ENDMDL
MODEL 4
REMARK VINA RESULT: -9.072427211      2.165      5.020
REMARK  13 active torsions:
REMARK  status: ('A' for Active; 'I' for Inactive)
REMARK    1  A    between atoms: N1_2  and  C2_4 
REMARK    2  A    between atoms: C5_9  and  N3_10 
REMARK    3  A    between atoms: N3_10  and  C6_12 
REMARK    4  A    between atoms: C6_12  and  C8_14 
REMARK    5  A    between atoms: C8_14  and  O1_15 
REMARK    6  A    between atoms: C8_14  and  N4_17 
REMARK    7  A    between atoms: N4_17  and  C10_19 
REMARK    8  A    between atoms: C10_19  and  C11_20 
REMARK    9  A    between atoms: C10_19  and  C17_33 
REMARK       I    between atoms: C11_20  and  N5_22 
REMARK   10  A    between atoms: N5_22  and  C12_24 
REMARK       I    between atoms: C17_33  and  N8_35 
REMARK   11  A    between atoms: N8_35  and  C18_37 
REMARK   12  A    between atoms: C18_37  and  C20_39 
REMARK       I    between atoms: C20_39  and  N9_41 
REMARK   13  A    between atoms: N9_41  and  C21_43 
ROOT
HETATM    1  C10 UNL     1       6.369   0.235  14.105  1.00  0.00     0.271 C 
ENDROOT
BRANCH   1   2
HETATM    2  N4  UNL     1       7.150  -0.943  13.944  1.00  0.00    -0.347 N 
HETATM    3  C9  UNL     1       7.863  -1.092  12.655  1.00  0.00     0.153 C 
BRANCH   2   4
HETATM    4  C8  UNL     1       7.341  -1.927  14.905  1.00  0.00     0.138 C 
BRANCH   4   5
HETATM    5  C6  UNL     1       7.138  -3.367  14.897  1.00  0.00     0.170 C 
HETATM    6  C7  UNL     1       6.048  -3.686  13.876  1.00  0.00     0.041 C 
BRANCH   5   7
HETATM    7  N3  UNL     1       8.285  -4.194  14.690  1.00  0.00    -0.214 N 
ATOM      8  H3  UNL     1       8.738  -4.204  13.776  1.00  0.00     0.178 HD
BRANCH   7   9
HETATM    9  C5  UNL     1       8.753  -4.922  15.635  1.00  0.00     0.680 A 
HETATM   10  N2  UNL     1       9.512  -4.270  16.581  1.00  0.00    -0.202 N 
HETATM   11  C4  UNL     1      10.050  -4.930  17.607  1.00  0.00     0.110 A 
ATOM     12  H2  UNL     1       9.665  -3.265  16.495  1.00  0.00     0.183 HD
HETATM   13  C3  UNL     1       9.856  -6.299  17.747  1.00  0.00     0.066 A 
HETATM   14  C2  UNL     1       9.099  -6.952  16.801  1.00  0.00     0.117 A 
HETATM   15  N11 UNL     1       8.587  -6.230  15.796  1.00  0.00    -0.177 N 
ATOM     16  H11 UNL     1       8.026  -6.722  15.101  1.00  0.00     0.185 HD
BRANCH  14  17
HETATM   17  N1  UNL     1       8.899  -8.222  16.910  1.00  0.00    -0.380 N 
HETATM   18  C1  UNL     1       8.179  -8.844  17.971  1.00  0.00     0.147 C 
ATOM     19  H1  UNL     1       9.285  -8.825  16.183  1.00  0.00     0.160 HD
ENDBRANCH  14  17
ENDBRANCH   7   9
ENDBRANCH   5   7
ENDBRANCH   4   5
BRANCH   4  20
HETATM   20  O1  UNL     1       7.792  -1.478  16.048  1.00  0.00    -0.348 OA
ATOM     21  H1  UNL     1       8.081  -0.574  16.006  1.00  0.00     0.219 HD
ENDBRANCH   4  20
ENDBRANCH   2   4
ENDBRANCH   1   2
BRANCH   1  22
HETATM   22  C11 UNL     1       5.120  -0.078  14.872  1.00  0.00     0.268 C 
HETATM   23  O2  UNL     1       5.008   0.292  16.087  1.00  0.00    -0.270 OA
HETATM   24  N5  UNL     1       4.009  -0.774  14.348  1.00  0.00    -0.157 N 
ATOM     25  H5  UNL     1       3.640  -0.502  13.437  1.00  0.00     0.187 HD
BRANCH  24  26
HETATM   26  C12 UNL     1       3.444  -1.752  14.991  1.00  0.00     0.685 A 
HETATM   27  N6  UNL     1       2.459  -2.543  14.511  1.00  0.00    -0.194 N 
HETATM   28  C13 UNL     1       2.079  -3.451  15.403  1.00  0.00     0.045 A 
ATOM     29  H6  UNL     1       2.057  -2.454  13.577  1.00  0.00     0.184 HD
HETATM   30  C14 UNL     1       1.030  -4.521  15.311  1.00  0.00     0.071 C 
HETATM   31  C15 UNL     1       2.848  -3.248  16.519  1.00  0.00     0.045 A 
HETATM   32  C16 UNL     1       2.827  -3.987  17.816  1.00  0.00     0.071 C 
HETATM   33  N7  UNL     1       3.677  -2.198  16.241  1.00  0.00    -0.194 N 
ATOM     34  H7  UNL     1       4.368  -1.811  16.884  1.00  0.00     0.184 HD
ENDBRANCH  24  26
ENDBRANCH   1  22
BRANCH   1  35
HETATM   35  C17 UNL     1       5.968   0.838  12.799  1.00  0.00     0.250 C 
HETATM   36  O3  UNL     1       5.250   0.198  12.027  1.00  0.00    -0.271 OA
HETATM   37  N8  UNL     1       6.414   2.129  12.461  1.00  0.00    -0.346 N 
ATOM     38  H8  UNL     1       7.006   2.613  13.137  1.00  0.00     0.163 HD
BRANCH  37  39
HETATM   39  C18 UNL     1       6.099   2.823  11.230  1.00  0.00     0.173 C 
HETATM   40  C19 UNL     1       7.141   3.844  10.909  1.00  0.00     0.042 C 
BRANCH  39  41
HETATM   41  C20 UNL     1       4.759   3.445  11.339  1.00  0.00     0.245 C 
HETATM   42  O4  UNL     1       4.553   4.578  10.809  1.00  0.00    -0.271 OA
HETATM   43  N9  UNL     1       3.686   2.825  12.012  1.00  0.00    -0.311 N 
ATOM     44  H9  UNL     1       3.841   2.488  12.962  1.00  0.00     0.170 HD
BRANCH  43  45
HETATM   45  C21 UNL     1       2.524   2.664  11.490  1.00  0.00     0.107 A 
HETATM   46  C22 UNL     1       1.399   2.285  12.168  1.00  0.00     0.048 A 
HETATM   47  C23 UNL     1       0.182   2.119  11.493  1.00  0.00     0.005 A 
HETATM   48  C24 UNL     1       0.161   2.349  10.137  1.00  0.00     0.017 A 
HETATM   49  C25 UNL     1       1.318   2.727   9.499  1.00  0.00     0.089 A 
HETATM   50  N10 UNL     1       2.480   2.886  10.142  1.00  0.00    -0.352 N 
ATOM     51  H10 UNL     1       3.319   3.168   9.635  1.00  0.00     0.166 HD
ENDBRANCH  43  45
ENDBRANCH  39  41
ENDBRANCH  37  39
ENDBRANCH   1  35
TORSDOF 13
ENDMDL
MODEL 5
REMARK VINA RESULT: -9.063090529      0.615      1.285
REMARK  13 active torsions:
REMARK  status: ('A' for Active; 'I' for Inactive)
REMARK    1  A    between atoms: N1_2  and  C2_4 
REMARK    2  A    between atoms: C5_9  and  N3_10 
REMARK    3  A    between atoms: N3_10  and  C6_12 
REMARK    4  A    between atoms: C6_12  and  C8_14 
REMARK    5  A    between atoms: C8_14  and  O1_15 
REMARK    6  A    between atoms: C8_14  and  N4_17 
REMARK    7  A    between atoms: N4_17  and  C10_19 
REMARK    8  A    between atoms: C10_19  and  C11_20 
REMARK    9  A    between atoms: C10_19  and  C17_33 
REMARK       I    between atoms: C11_20  and  N5_22 
REMARK   10  A    between atoms: N5_22  and  C12_24 
REMARK       I    between atoms: C17_33  and  N8_35 
REMARK   11  A    between atoms: N8_35  and  C18_37 
REMARK   12  A    between atoms: C18_37  and  C20_39 
REMARK       I    between atoms: C20_39  and  N9_41 
REMARK   13  A    between atoms: N9_41  and  C21_43 
ROOT
HETATM    1  C10 UNL     1       3.506  -2.167  13.759  1.00  0.00     0.271 C 
ENDROOT
BRANCH   1   2
HETATM    2  N4  UNL     1       3.106  -2.714  15.009  1.00  0.00    -0.347 N 
HETATM    3  C9  UNL     1       1.744  -3.289  15.075  1.00  0.00     0.153 C 
BRANCH   2   4
HETATM    4  C8  UNL     1       3.900  -2.803  16.146  1.00  0.00     0.138 C 
BRANCH   4   5
HETATM    5  C6  UNL     1       4.321  -3.925  16.969  1.00  0.00     0.170 C 
HETATM    6  C7  UNL     1       3.159  -4.304  17.885  1.00  0.00     0.041 C 
BRANCH   5   7
HETATM    7  N3  UNL     1       4.837  -5.077  16.299  1.00  0.00    -0.214 N 
ATOM      8  H3  UNL     1       4.676  -5.190  15.299  1.00  0.00     0.178 HD
BRANCH   7   9
HETATM    9  C5  UNL     1       5.500  -5.970  16.937  1.00  0.00     0.680 A 
HETATM   10  N2  UNL     1       6.471  -5.505  17.794  1.00  0.00    -0.202 N 
HETATM   11  C4  UNL     1       7.221  -6.345  18.507  1.00  0.00     0.110 A 
ATOM     12  H2  UNL     1       6.620  -4.499  17.886  1.00  0.00     0.183 HD
HETATM   13  C3  UNL     1       7.039  -7.718  18.401  1.00  0.00     0.066 A 
HETATM   14  C2  UNL     1       6.069  -8.185  17.544  1.00  0.00     0.117 A 
HETATM   15  N11 UNL     1       5.350  -7.287  16.858  1.00  0.00    -0.177 N 
ATOM     16  H11 UNL     1       4.633  -7.642  16.227  1.00  0.00     0.185 HD
BRANCH  14  17
HETATM   17  N1  UNL     1       5.875  -9.456  17.431  1.00  0.00    -0.380 N 
HETATM   18  C1  UNL     1       4.748 -10.054  16.797  1.00  0.00     0.147 C 
ATOM     19  H1  UNL     1       6.582 -10.079  17.824  1.00  0.00     0.160 HD
ENDBRANCH  14  17
ENDBRANCH   7   9
ENDBRANCH   5   7
ENDBRANCH   4   5
BRANCH   4  20
HETATM   20  O1  UNL     1       4.362  -1.654  16.568  1.00  0.00    -0.348 OA
ATOM     21  H1  UNL     1       3.853  -1.286  17.281  1.00  0.00     0.219 HD
ENDBRANCH   4  20
ENDBRANCH   2   4
ENDBRANCH   1   2
BRANCH   1  22
HETATM   22  C11 UNL     1       4.938  -2.511  13.481  1.00  0.00     0.268 C 
HETATM   23  O2  UNL     1       5.225  -3.373  12.588  1.00  0.00    -0.270 OA
HETATM   24  N5  UNL     1       6.044  -1.941  14.149  1.00  0.00    -0.157 N 
ATOM     25  H5  UNL     1       6.085  -0.929  14.264  1.00  0.00     0.187 HD
BRANCH  24  26
HETATM   26  C12 UNL     1       7.012  -2.670  14.621  1.00  0.00     0.685 A 
HETATM   27  N6  UNL     1       7.997  -2.233  15.438  1.00  0.00    -0.194 N 
HETATM   28  C13 UNL     1       8.846  -3.207  15.748  1.00  0.00     0.045 A 
ATOM     29  H6  UNL     1       8.078  -1.273  15.775  1.00  0.00     0.184 HD
HETATM   30  C14 UNL     1      10.075  -3.184  16.609  1.00  0.00     0.071 C 
HETATM   31  C15 UNL     1       8.399  -4.333  15.107  1.00  0.00     0.045 A 
HETATM   32  C16 UNL     1       8.986  -5.706  15.111  1.00  0.00     0.071 C 
HETATM   33  N7  UNL     1       7.273  -3.976  14.421  1.00  0.00    -0.194 N 
ATOM     34  H7  UNL     1       6.714  -4.604  13.844  1.00  0.00     0.184 HD
ENDBRANCH  24  26
ENDBRANCH   1  22
BRANCH   1  35
HETATM   35  C17 UNL     1       3.374  -0.679  13.718  1.00  0.00     0.250 C 
HETATM   36  O3  UNL     1       4.059   0.014  14.474  1.00  0.00    -0.271 OA
HETATM   37  N8  UNL     1       2.470  -0.084  12.819  1.00  0.00    -0.346 N 
ATOM     38  H8  UNL     1       1.929  -0.704  12.217  1.00  0.00     0.163 HD
BRANCH  37  39
HETATM   39  C18 UNL     1       2.249   1.340  12.684  1.00  0.00     0.173 C 
HETATM   40  C19 UNL     1       0.959   1.616  11.981  1.00  0.00     0.042 C 
BRANCH  39  41
HETATM   41  C20 UNL     1       3.388   1.955  11.965  1.00  0.00     0.245 C 
HETATM   42  O4  UNL     1       3.544   3.213  12.003  1.00  0.00    -0.271 OA
HETATM   43  N9  UNL     1       4.323   1.195  11.232  1.00  0.00    -0.311 N 
ATOM     44  H9  UNL     1       3.972   0.530  10.544  1.00  0.00     0.170 HD
BRANCH  43  45
HETATM   45  C21 UNL     1       5.594   1.299  11.389  1.00  0.00     0.107 A 
HETATM   46  C22 UNL     1       6.521   1.229  10.386  1.00  0.00     0.048 A 
HETATM   47  C23 UNL     1       7.888   1.335  10.672  1.00  0.00     0.005 A 
HETATM   48  C24 UNL     1       8.261   1.511  11.984  1.00  0.00     0.017 A 
HETATM   49  C25 UNL     1       7.292   1.575  12.957  1.00  0.00     0.089 A 
HETATM   50  N10 UNL     1       5.987   1.473  12.686  1.00  0.00    -0.352 N 
ATOM     51  H10 UNL     1       5.296   1.525  13.435  1.00  0.00     0.166 HD
ENDBRANCH  43  45
ENDBRANCH  39  41
ENDBRANCH  37  39
ENDBRANCH   1  35
TORSDOF 13
ENDMDL
