MODEL 1
REMARK VINA RESULT: -8.274615209      0.000      0.000
REMARK  6 active torsions:
REMARK  status: ('A' for Active; 'I' for Inactive)
REMARK    1  A    between atoms: C2_2  and  C4_4 
REMARK    2  A    between atoms: C4_4  and  C5_5 
REMARK    3  A    between atoms: C9_16  and  C10_17 
REMARK    4  A    between atoms: C10_17  and  C11_18 
REMARK    5  A    between atoms: C18_31  and  C19_32 
REMARK    6  A    between atoms: C19_32  and  C20_33 
ROOT
HETATM    1  C5  UNL     1       4.541   0.690  13.000  1.00  0.00     0.177 C 
HETATM    2  N1  UNL     1       3.627   0.046  12.084  1.00  0.00    -0.340 N 
ATOM      3  H1  UNL     1       3.875  -0.913  11.841  1.00  0.00     0.163 HD
HETATM    4  C6  UNL     1       2.466   0.517  11.480  1.00  0.00     0.310 C 
HETATM    5  O1  UNL     1       2.010  -0.195  10.498  1.00  0.00    -0.262 OA
HETATM    6  C7  UNL     1       1.661   1.694  11.764  1.00  0.00     0.316 C 
HETATM    7  O2  UNL     1       0.386   1.546  11.951  1.00  0.00    -0.262 OA
HETATM    8  N2  UNL     1       2.091   3.047  11.872  1.00  0.00    -0.288 N 
ATOM      9  H2  UNL     1       1.719   3.579  12.658  1.00  0.00     0.172 HD
HETATM   10  C8  UNL     1       2.974   3.734  11.015  1.00  0.00     0.247 C 
HETATM   11  O3  UNL     1       3.821   4.502  11.612  1.00  0.00    -0.271 OA
HETATM   12  C9  UNL     1       3.040   3.676   9.541  1.00  0.00     0.177 C 
HETATM   13  N3  UNL     1       4.244   4.310   9.064  1.00  0.00    -0.346 N 
ATOM     14  H3  UNL     1       4.783   4.814   9.768  1.00  0.00     0.163 HD
HETATM   15  C14 UNL     1       4.773   4.330   7.773  1.00  0.00     0.240 C 
HETATM   16  O4  UNL     1       5.272   5.462   7.413  1.00  0.00    -0.271 OA
HETATM   17  C15 UNL     1       4.839   3.256   6.788  1.00  0.00     0.172 C 
HETATM   18  C16 UNL     1       5.048   3.817   5.378  1.00  0.00     0.042 C 
HETATM   19  N4  UNL     1       5.800   2.224   7.005  1.00  0.00    -0.346 N 
ATOM     20  H4  UNL     1       5.841   1.515   6.272  1.00  0.00     0.163 HD
HETATM   21  C17 UNL     1       6.692   2.028   8.057  1.00  0.00     0.241 C 
HETATM   22  O5  UNL     1       6.662   0.862   8.601  1.00  0.00    -0.271 OA
HETATM   23  C18 UNL     1       7.663   2.982   8.623  1.00  0.00     0.177 C 
HETATM   24  N5  UNL     1       8.588   2.299   9.508  1.00  0.00    -0.346 N 
ATOM     25  H5  UNL     1       9.577   2.335   9.264  1.00  0.00     0.163 HD
HETATM   26  C23 UNL     1       8.241   1.597  10.663  1.00  0.00     0.240 C 
HETATM   27  O6  UNL     1       8.875   0.510  10.888  1.00  0.00    -0.271 OA
HETATM   28  C24 UNL     1       7.215   1.971  11.666  1.00  0.00     0.172 C 
HETATM   29  C25 UNL     1       7.682   3.288  12.280  1.00  0.00     0.042 C 
HETATM   30  N6  UNL     1       7.054   0.944  12.668  1.00  0.00    -0.346 N 
ATOM     31  H6  UNL     1       7.859   0.772  13.269  1.00  0.00     0.163 HD
HETATM   32  C26 UNL     1       5.926   0.160  12.908  1.00  0.00     0.241 C 
HETATM   33  O7  UNL     1       6.037  -1.089  13.066  1.00  0.00    -0.271 OA
ENDROOT
BRANCH   1  34
HETATM   34  C4  UNL     1       4.085   0.416  14.441  1.00  0.00     0.038 C 
BRANCH  34  35
HETATM   35  C2  UNL     1       4.309  -1.019  14.824  1.00  0.00    -0.020 C 
HETATM   36  C1  UNL     1       2.972  -1.723  14.755  1.00  0.00     0.009 C 
HETATM   37  C3  UNL     1       4.916  -1.241  16.157  1.00  0.00     0.009 C 
ENDBRANCH  34  35
ENDBRANCH   1  34
BRANCH  12  38
HETATM   38  C10 UNL     1       1.801   4.040   8.836  1.00  0.00     0.038 C 
BRANCH  38  39
HETATM   39  C11 UNL     1       1.871   4.992   7.702  1.00  0.00    -0.020 C 
HETATM   40  C12 UNL     1       1.058   4.339   6.553  1.00  0.00     0.009 C 
HETATM   41  C13 UNL     1       1.086   6.294   7.936  1.00  0.00     0.009 C 
ENDBRANCH  38  39
ENDBRANCH  12  38
BRANCH  23  42
HETATM   42  C19 UNL     1       8.447   3.675   7.510  1.00  0.00     0.038 C 
BRANCH  42  43
HETATM   43  C20 UNL     1       8.732   5.110   7.865  1.00  0.00    -0.020 C 
HETATM   44  C21 UNL     1      10.235   5.164   8.177  1.00  0.00     0.009 C 
HETATM   45  C22 UNL     1       8.542   6.013   6.662  1.00  0.00     0.009 C 
ENDBRANCH  42  43
ENDBRANCH  23  42
TORSDOF 6
ENDMDL
MODEL 2
REMARK VINA RESULT: -7.231165369      7.644     14.177
REMARK  6 active torsions:
REMARK  status: ('A' for Active; 'I' for Inactive)
REMARK    1  A    between atoms: C2_2  and  C4_4 
REMARK    2  A    between atoms: C4_4  and  C5_5 
REMARK    3  A    between atoms: C9_16  and  C10_17 
REMARK    4  A    between atoms: C10_17  and  C11_18 
REMARK    5  A    between atoms: C18_31  and  C19_32 
REMARK    6  A    between atoms: C19_32  and  C20_33 
ROOT
HETATM    1  C5  UNL     1       5.992  -3.794  16.058  1.00  0.00     0.177 C 
HETATM    2  N1  UNL     1       6.904  -4.541  15.222  1.00  0.00    -0.340 N 
ATOM      3  H1  UNL     1       6.656  -4.561  14.233  1.00  0.00     0.163 HD
HETATM    4  C6  UNL     1       8.065  -5.236  15.543  1.00  0.00     0.310 C 
HETATM    5  O1  UNL     1       8.520  -6.032  14.626  1.00  0.00    -0.262 OA
HETATM    6  C7  UNL     1       8.873  -5.225  16.752  1.00  0.00     0.316 C 
HETATM    7  O2  UNL     1      10.147  -5.011  16.648  1.00  0.00    -0.262 OA
HETATM    8  N2  UNL     1       8.444  -5.426  18.095  1.00  0.00    -0.288 N 
ATOM      9  H2  UNL     1       8.818  -4.781  18.790  1.00  0.00     0.172 HD
HETATM   10  C8  UNL     1       7.562  -6.416  18.572  1.00  0.00     0.247 C 
HETATM   11  O3  UNL     1       6.716  -6.008  19.456  1.00  0.00    -0.271 OA
HETATM   12  C9  UNL     1       7.495  -7.839  18.182  1.00  0.00     0.177 C 
HETATM   13  N3  UNL     1       6.292  -8.446  18.694  1.00  0.00    -0.346 N 
ATOM     14  H3  UNL     1       5.754  -7.874  19.344  1.00  0.00     0.163 HD
HETATM   15  C14 UNL     1       5.761  -9.708  18.422  1.00  0.00     0.240 C 
HETATM   16  O4  UNL     1       5.265 -10.314  19.445  1.00  0.00    -0.271 OA
HETATM   17  C15 UNL     1       5.693 -10.425  17.153  1.00  0.00     0.172 C 
HETATM   18  C16 UNL     1       5.485 -11.925  17.382  1.00  0.00     0.042 C 
HETATM   19  N4  UNL     1       4.732  -9.980  16.199  1.00  0.00    -0.346 N 
ATOM     20  H4  UNL     1       4.689 -10.534  15.343  1.00  0.00     0.163 HD
HETATM   21  C17 UNL     1       3.840  -8.911  16.247  1.00  0.00     0.241 C 
HETATM   22  O5  UNL     1       3.868  -8.117  15.234  1.00  0.00    -0.271 OA
HETATM   23  C18 UNL     1       2.871  -8.575  17.305  1.00  0.00     0.177 C 
HETATM   24  N5  UNL     1       1.945  -7.558  16.841  1.00  0.00    -0.346 N 
ATOM     25  H5  UNL     1       0.956  -7.803  16.823  1.00  0.00     0.163 HD
HETATM   26  C23 UNL     1       2.292  -6.274  16.418  1.00  0.00     0.240 C 
HETATM   27  O6  UNL     1       1.657  -5.809  15.411  1.00  0.00    -0.271 OA
HETATM   28  C24 UNL     1       3.319  -5.382  17.008  1.00  0.00     0.172 C 
HETATM   29  C25 UNL     1       2.854  -5.081  18.430  1.00  0.00     0.042 C 
HETATM   30  N6  UNL     1       3.480  -4.174  16.233  1.00  0.00    -0.346 N 
ATOM     31  H6  UNL     1       2.674  -3.549  16.203  1.00  0.00     0.163 HD
HETATM   32  C26 UNL     1       4.606  -3.763  15.523  1.00  0.00     0.241 C 
HETATM   33  O7  UNL     1       4.493  -3.328  14.342  1.00  0.00    -0.271 OA
ENDROOT
BRANCH   1  34
HETATM   34  C4  UNL     1       6.449  -2.328  16.115  1.00  0.00     0.038 C 
BRANCH  34  35
HETATM   35  C2  UNL     1       7.356  -1.990  14.967  1.00  0.00    -0.020 C 
HETATM   36  C1  UNL     1       8.746  -1.793  15.528  1.00  0.00     0.009 C 
HETATM   37  C3  UNL     1       6.970  -0.800  14.172  1.00  0.00     0.009 C 
ENDBRANCH  34  35
ENDBRANCH   1  34
BRANCH  12  38
HETATM   38  C10 UNL     1       8.734  -8.608  18.375  1.00  0.00     0.038 C 
BRANCH  38  39
HETATM   39  C11 UNL     1       8.645 -10.008  18.854  1.00  0.00    -0.020 C 
HETATM   40  C12 UNL     1       9.731 -10.791  18.070  1.00  0.00     0.009 C 
HETATM   41  C13 UNL     1       9.114 -10.198  20.307  1.00  0.00     0.009 C 
ENDBRANCH  38  39
ENDBRANCH  12  38
BRANCH  23  42
HETATM   42  C19 UNL     1       2.086  -9.815  17.730  1.00  0.00     0.038 C 
BRANCH  42  43
HETATM   43  C20 UNL     1       1.820  -9.803  19.212  1.00  0.00    -0.020 C 
HETATM   44  C21 UNL     1       0.291  -9.776  19.353  1.00  0.00     0.009 C 
HETATM   45  C22 UNL     1       2.256 -11.106  19.851  1.00  0.00     0.009 C 
ENDBRANCH  42  43
ENDBRANCH  23  42
TORSDOF 6
ENDMDL
MODEL 3
REMARK VINA RESULT: -7.195217697      2.424      7.192
REMARK  6 active torsions:
REMARK  status: ('A' for Active; 'I' for Inactive)
REMARK    1  A    between atoms: C2_2  and  C4_4 
REMARK    2  A    between atoms: C4_4  and  C5_5 
REMARK    3  A    between atoms: C9_16  and  C10_17 
REMARK    4  A    between atoms: C10_17  and  C11_18 
REMARK    5  A    between atoms: C18_31  and  C19_32 
REMARK    6  A    between atoms: C19_32  and  C20_33 
ROOT
HETATM    1  C5  UNL     1       6.647   5.599   5.809  1.00  0.00     0.177 C 
HETATM    2  N1  UNL     1       5.853   6.728   6.236  1.00  0.00    -0.340 N 
ATOM      3  H1  UNL     1       6.346   7.395   6.831  1.00  0.00     0.163 HD
HETATM    4  C6  UNL     1       4.528   7.057   5.972  1.00  0.00     0.310 C 
HETATM    5  O1  UNL     1       4.017   7.989   6.714  1.00  0.00    -0.262 OA
HETATM    6  C7  UNL     1       3.598   6.526   4.988  1.00  0.00     0.316 C 
HETATM    7  O2  UNL     1       2.981   7.354   4.203  1.00  0.00    -0.262 OA
HETATM    8  N2  UNL     1       3.252   5.166   4.752  1.00  0.00    -0.288 N 
ATOM      9  H2  UNL     1       3.217   4.870   3.776  1.00  0.00     0.172 HD
HETATM   10  C8  UNL     1       2.953   4.181   5.714  1.00  0.00     0.247 C 
HETATM   11  O3  UNL     1       3.454   3.016   5.472  1.00  0.00    -0.271 OA
HETATM   12  C9  UNL     1       2.150   4.325   6.945  1.00  0.00     0.177 C 
HETATM   13  N3  UNL     1       2.306   3.166   7.788  1.00  0.00    -0.346 N 
ATOM     14  H3  UNL     1       2.809   2.383   7.371  1.00  0.00     0.163 HD
HETATM   15  C14 UNL     1       1.863   2.967   9.097  1.00  0.00     0.240 C 
HETATM   16  O4  UNL     1       1.394   1.790   9.332  1.00  0.00    -0.271 OA
HETATM   17  C15 UNL     1       1.860   3.898  10.220  1.00  0.00     0.172 C 
HETATM   18  C16 UNL     1       0.873   3.449  11.302  1.00  0.00     0.042 C 
HETATM   19  N4  UNL     1       3.111   4.176  10.845  1.00  0.00    -0.346 N 
ATOM     20  H4  UNL     1       3.059   4.800  11.651  1.00  0.00     0.163 HD
HETATM   21  C17 UNL     1       4.395   3.734  10.532  1.00  0.00     0.241 C 
HETATM   22  O5  UNL     1       5.286   4.655  10.406  1.00  0.00    -0.271 OA
HETATM   23  C18 UNL     1       4.862   2.351  10.328  1.00  0.00     0.177 C 
HETATM   24  N5  UNL     1       6.312   2.303  10.302  1.00  0.00    -0.346 N 
ATOM     25  H5  UNL     1       6.771   1.734  11.012  1.00  0.00     0.163 HD
HETATM   26  C23 UNL     1       7.132   2.969   9.390  1.00  0.00     0.240 C 
HETATM   27  O6  UNL     1       8.210   3.478   9.850  1.00  0.00    -0.271 OA
HETATM   28  C24 UNL     1       6.893   3.154   7.938  1.00  0.00     0.172 C 
HETATM   29  C25 UNL     1       6.889   1.755   7.327  1.00  0.00     0.042 C 
HETATM   30  N6  UNL     1       7.902   3.995   7.338  1.00  0.00    -0.346 N 
ATOM     31  H6  UNL     1       8.852   3.623   7.333  1.00  0.00     0.163 HD
HETATM   32  C26 UNL     1       7.730   5.254   6.766  1.00  0.00     0.241 C 
HETATM   33  O7  UNL     1       8.521   6.198   7.048  1.00  0.00    -0.271 OA
ENDROOT
BRANCH   1  34
HETATM   34  C4  UNL     1       7.353   5.951   4.491  1.00  0.00     0.038 C 
BRANCH  34  35
HETATM   35  C2  UNL     1       7.525   4.740   3.620  1.00  0.00    -0.020 C 
HETATM   36  C1  UNL     1       6.421   3.767   3.969  1.00  0.00     0.009 C 
HETATM   37  C3  UNL     1       8.836   4.057   3.720  1.00  0.00     0.009 C 
ENDBRANCH  34  35
ENDBRANCH   1  34
BRANCH  12  38
HETATM   38  C10 UNL     1       0.770   4.795   6.749  1.00  0.00     0.038 C 
BRANCH  38  39
HETATM   39  C11 UNL     1       0.522   6.247   6.578  1.00  0.00    -0.020 C 
HETATM   40  C12 UNL     1      -1.015   6.396   6.427  1.00  0.00     0.009 C 
HETATM   41  C13 UNL     1       0.791   7.075   7.846  1.00  0.00     0.009 C 
ENDBRANCH  38  39
ENDBRANCH  12  38
BRANCH  23  42
HETATM   42  C19 UNL     1       4.347   1.440  11.441  1.00  0.00     0.038 C 
BRANCH  42  43
HETATM   43  C20 UNL     1       5.445   1.106  12.415  1.00  0.00    -0.020 C 
HETATM   44  C21 UNL     1       4.739   0.843  13.754  1.00  0.00     0.009 C 
HETATM   45  C22 UNL     1       6.110  -0.207  12.051  1.00  0.00     0.009 C 
ENDBRANCH  42  43
ENDBRANCH  23  42
TORSDOF 6
ENDMDL
MODEL 4
REMARK VINA RESULT: -6.564347818      2.344      7.203
REMARK  6 active torsions:
REMARK  status: ('A' for Active; 'I' for Inactive)
REMARK    1  A    between atoms: C2_2  and  C4_4 
REMARK    2  A    between atoms: C4_4  and  C5_5 
REMARK    3  A    between atoms: C9_16  and  C10_17 
REMARK    4  A    between atoms: C10_17  and  C11_18 
REMARK    5  A    between atoms: C18_31  and  C19_32 
REMARK    6  A    between atoms: C19_32  and  C20_33 
ROOT
HETATM    1  C5  UNL     1       8.227   4.776   6.547  1.00  0.00     0.177 C 
HETATM    2  N1  UNL     1       7.568   6.058   6.648  1.00  0.00    -0.340 N 
ATOM      3  H1  UNL     1       7.990   6.702   7.317  1.00  0.00     0.163 HD
HETATM    4  C6  UNL     1       6.452   6.559   5.985  1.00  0.00     0.310 C 
HETATM    5  O1  UNL     1       5.935   7.639   6.482  1.00  0.00    -0.262 OA
HETATM    6  C7  UNL     1       5.752   6.071   4.808  1.00  0.00     0.316 C 
HETATM    7  O2  UNL     1       5.541   6.890   3.825  1.00  0.00    -0.262 OA
HETATM    8  N2  UNL     1       5.241   4.764   4.570  1.00  0.00    -0.288 N 
ATOM      9  H2  UNL     1       5.425   4.367   3.648  1.00  0.00     0.172 HD
HETATM   10  C8  UNL     1       4.511   3.955   5.463  1.00  0.00     0.247 C 
HETATM   11  O3  UNL     1       4.836   2.707   5.455  1.00  0.00    -0.271 OA
HETATM   12  C9  UNL     1       3.438   4.365   6.391  1.00  0.00     0.177 C 
HETATM   13  N3  UNL     1       3.136   3.301   7.317  1.00  0.00    -0.346 N 
ATOM     14  H3  UNL     1       3.583   2.406   7.117  1.00  0.00     0.163 HD
HETATM   15  C14 UNL     1       2.319   3.326   8.447  1.00  0.00     0.240 C 
HETATM   16  O4  UNL     1       1.594   2.273   8.610  1.00  0.00    -0.271 OA
HETATM   17  C15 UNL     1       2.175   4.368   9.457  1.00  0.00     0.172 C 
HETATM   18  C16 UNL     1       0.861   4.208  10.228  1.00  0.00     0.042 C 
HETATM   19  N4  UNL     1       3.232   4.517  10.403  1.00  0.00    -0.346 N 
ATOM     20  H4  UNL     1       3.073   5.229  11.116  1.00  0.00     0.163 HD
HETATM   21  C17 UNL     1       4.448   3.845  10.510  1.00  0.00     0.241 C 
HETATM   22  O5  UNL     1       5.492   4.593  10.593  1.00  0.00    -0.271 OA
HETATM   23  C18 UNL     1       4.690   2.391  10.542  1.00  0.00     0.177 C 
HETATM   24  N5  UNL     1       6.056   2.114  10.947  1.00  0.00    -0.346 N 
ATOM     25  H5  UNL     1       6.187   1.564  11.796  1.00  0.00     0.163 HD
HETATM   26  C23 UNL     1       7.205   2.533  10.275  1.00  0.00     0.240 C 
HETATM   27  O6  UNL     1       8.188   2.915  10.998  1.00  0.00    -0.271 OA
HETATM   28  C24 UNL     1       7.418   2.584   8.808  1.00  0.00     0.172 C 
HETATM   29  C25 UNL     1       7.327   1.143   8.315  1.00  0.00     0.042 C 
HETATM   30  N6  UNL     1       8.690   3.181   8.478  1.00  0.00    -0.346 N 
ATOM     31  H6  UNL     1       9.519   2.667   8.776  1.00  0.00     0.163 HD
HETATM   32  C26 UNL     1       8.919   4.377   7.801  1.00  0.00     0.241 C 
HETATM   33  O7  UNL     1       9.760   5.212   8.241  1.00  0.00    -0.271 OA
ENDROOT
BRANCH   1  34
HETATM   34  C4  UNL     1       9.324   4.859   5.475  1.00  0.00     0.038 C 
BRANCH  34  35
HETATM   35  C2  UNL     1       9.163   3.782   4.441  1.00  0.00    -0.020 C 
HETATM   36  C1  UNL     1       8.660   4.438   3.174  1.00  0.00     0.009 C 
HETATM   37  C3  UNL     1       8.261   2.666   4.810  1.00  0.00     0.009 C 
ENDBRANCH  34  35
ENDBRANCH   1  34
BRANCH  12  38
HETATM   38  C10 UNL     1       2.277   5.021   5.768  1.00  0.00     0.038 C 
BRANCH  38  39
HETATM   39  C11 UNL     1       1.331   4.205   4.972  1.00  0.00    -0.020 C 
HETATM   40  C12 UNL     1      -0.069   4.830   5.211  1.00  0.00     0.009 C 
HETATM   41  C13 UNL     1       1.491   4.375   3.452  1.00  0.00     0.009 C 
ENDBRANCH  38  39
ENDBRANCH  12  38
BRANCH  23  42
HETATM   42  C19 UNL     1       3.728   1.707  11.511  1.00  0.00     0.038 C 
BRANCH  42  43
HETATM   43  C20 UNL     1       4.424   0.617  12.283  1.00  0.00    -0.020 C 
HETATM   44  C21 UNL     1       4.052   0.855  13.754  1.00  0.00     0.009 C 
HETATM   45  C22 UNL     1       3.847  -0.742  11.940  1.00  0.00     0.009 C 
ENDBRANCH  42  43
ENDBRANCH  23  42
TORSDOF 6
ENDMDL
MODEL 5
REMARK VINA RESULT: -6.550323992      1.751      2.521
REMARK  6 active torsions:
REMARK  status: ('A' for Active; 'I' for Inactive)
REMARK    1  A    between atoms: C2_2  and  C4_4 
REMARK    2  A    between atoms: C4_4  and  C5_5 
REMARK    3  A    between atoms: C9_16  and  C10_17 
REMARK    4  A    between atoms: C10_17  and  C11_18 
REMARK    5  A    between atoms: C18_31  and  C19_32 
REMARK    6  A    between atoms: C19_32  and  C20_33 
ROOT
HETATM    1  C5  UNL     1       6.520   1.122  12.723  1.00  0.00     0.177 C 
HETATM    2  N1  UNL     1       5.614   0.169  12.126  1.00  0.00    -0.340 N 
ATOM      3  H1  UNL     1       6.067  -0.634  11.689  1.00  0.00     0.163 HD
HETATM    4  C6  UNL     1       4.225   0.164  12.046  1.00  0.00     0.310 C 
HETATM    5  O1  UNL     1       3.708  -0.684  11.213  1.00  0.00    -0.262 OA
HETATM    6  C7  UNL     1       3.234   0.963  12.749  1.00  0.00     0.316 C 
HETATM    7  O2  UNL     1       2.266   0.356  13.362  1.00  0.00    -0.262 OA
HETATM    8  N2  UNL     1       3.170   2.380  12.865  1.00  0.00    -0.288 N 
ATOM      9  H2  UNL     1       2.966   2.750  13.794  1.00  0.00     0.172 HD
HETATM   10  C8  UNL     1       3.358   3.331  11.842  1.00  0.00     0.247 C 
HETATM   11  O3  UNL     1       4.043   4.369  12.185  1.00  0.00    -0.271 OA
HETATM   12  C9  UNL     1       2.871   3.276  10.449  1.00  0.00     0.177 C 
HETATM   13  N3  UNL     1       3.497   4.304   9.654  1.00  0.00    -0.346 N 
ATOM     14  H3  UNL     1       4.052   4.984  10.174  1.00  0.00     0.163 HD
HETATM   15  C14 UNL     1       3.450   4.496   8.273  1.00  0.00     0.240 C 
HETATM   16  O4  UNL     1       3.343   5.726   7.905  1.00  0.00    -0.271 OA
HETATM   17  C15 UNL     1       3.505   3.507   7.203  1.00  0.00     0.172 C 
HETATM   18  C16 UNL     1       2.948   4.081   5.896  1.00  0.00     0.042 C 
HETATM   19  N4  UNL     1       4.770   2.909   6.925  1.00  0.00    -0.346 N 
ATOM     20  H4  UNL     1       4.772   2.254   6.143  1.00  0.00     0.163 HD
HETATM   21  C17 UNL     1       6.004   3.077   7.550  1.00  0.00     0.241 C 
HETATM   22  O5  UNL     1       6.594   1.993   7.916  1.00  0.00    -0.271 OA
HETATM   23  C18 UNL     1       6.717   4.332   7.844  1.00  0.00     0.177 C 
HETATM   24  N5  UNL     1       8.086   4.057   8.241  1.00  0.00    -0.346 N 
ATOM     25  H5  UNL     1       8.826   4.454   7.663  1.00  0.00     0.163 HD
HETATM   26  C23 UNL     1       8.476   3.297   9.344  1.00  0.00     0.240 C 
HETATM   27  O6  UNL     1       9.484   2.527   9.186  1.00  0.00    -0.271 OA
HETATM   28  C24 UNL     1       7.850   3.281  10.689  1.00  0.00     0.172 C 
HETATM   29  C25 UNL     1       8.025   4.687  11.255  1.00  0.00     0.042 C 
HETATM   30  N6  UNL     1       8.454   2.284  11.542  1.00  0.00    -0.346 N 
ATOM     31  H6  UNL     1       9.434   2.434  11.785  1.00  0.00     0.163 HD
HETATM   32  C26 UNL     1       7.855   1.143  12.071  1.00  0.00     0.241 C 
HETATM   33  O7  UNL     1       8.447   0.027  12.018  1.00  0.00    -0.271 OA
ENDROOT
BRANCH   1  34
HETATM   34  C4  UNL     1       6.777   0.722  14.185  1.00  0.00     0.038 C 
BRANCH  34  35
HETATM   35  C2  UNL     1       6.219  -0.638  14.488  1.00  0.00    -0.020 C 
HETATM   36  C1  UNL     1       5.189  -0.475  15.583  1.00  0.00     0.009 C 
HETATM   37  C3  UNL     1       7.210  -1.664  14.892  1.00  0.00     0.009 C 
ENDBRANCH  34  35
ENDBRANCH   1  34
BRANCH  12  38
HETATM   38  C10 UNL     1       1.414   3.142  10.291  1.00  0.00     0.038 C 
BRANCH  38  39
HETATM   39  C11 UNL     1       0.735   1.954  10.862  1.00  0.00    -0.020 C 
HETATM   40  C12 UNL     1      -0.785   2.247  10.758  1.00  0.00     0.009 C 
HETATM   41  C13 UNL     1       0.867   0.689   9.996  1.00  0.00     0.009 C 
ENDBRANCH  38  39
ENDBRANCH  12  38
BRANCH  23  42
HETATM   42  C19 UNL     1       6.721   5.248   6.621  1.00  0.00     0.038 C 
BRANCH  42  43
HETATM   43  C20 UNL     1       7.648   4.723   5.557  1.00  0.00    -0.020 C 
HETATM   44  C21 UNL     1       6.783   4.569   4.299  1.00  0.00     0.009 C 
HETATM   45  C22 UNL     1       8.698   5.755   5.196  1.00  0.00     0.009 C 
ENDBRANCH  42  43
ENDBRANCH  23  42
TORSDOF 6
ENDMDL
