MODEL 1
REMARK VINA RESULT: -8.953519996      0.000      0.000
REMARK  10 active torsions:
REMARK  status: ('A' for Active; 'I' for Inactive)
REMARK    1  A    between atoms: C7_7  and  S1_8 
REMARK    2  A    between atoms: S1_8  and  N1_11 
REMARK    3  A    between atoms: C8_13  and  N2_14 
REMARK    4  A    between atoms: C8_13  and  C12_33 
REMARK    5  A    between atoms: N2_14  and  N3_16 
REMARK    6  A    between atoms: C9_18  and  N4_20 
REMARK    7  A    between atoms: N4_20  and  N5_22 
REMARK       I    between atoms: N5_22  and  C10_24 
REMARK    8  A    between atoms: C10_24  and  C11_26 
REMARK    9  A    between atoms: C11_26  and  N6_27 
REMARK   10  A    between atoms: N6_27  and  N7_28 
ROOT
HETATM    1  N1  UNL     1       4.746  -1.512  13.462  1.00  0.00    -0.264 N 
ATOM      2  H1  UNL     1       4.977  -1.260  12.501  1.00  0.00     0.180 HD
HETATM    3  C8  UNL     1       4.448  -0.457  13.933  1.00  0.00     0.146 C 
ENDROOT
BRANCH   3   4
HETATM    4  N2  UNL     1       4.024  -0.218  15.316  1.00  0.00    -0.282 N 
ATOM      5  H2  UNL     1       4.181   0.653  15.822  1.00  0.00     0.188 HD
BRANCH   4   6
HETATM    6  N3  UNL     1       3.359  -1.368  15.867  1.00  0.00    -0.277 N 
HETATM    7  C9  UNL     1       3.800  -2.130  16.810  1.00  0.00     0.185 C 
HETATM    8  S2  UNL     1       5.510  -1.674  17.163  1.00  0.00    -0.010 SA
ATOM      9  H3  UNL     1       2.449  -1.604  15.472  1.00  0.00     0.189 HD
BRANCH   7  10
HETATM   10  N4  UNL     1       3.569  -3.248  17.667  1.00  0.00    -0.276 N 
ATOM     11  H4  UNL     1       3.695  -3.173  18.677  1.00  0.00     0.189 HD
BRANCH  10  12
HETATM   12  N5  UNL     1       3.165  -4.446  17.080  1.00  0.00    -0.267 N 
HETATM   13  C10 UNL     1       3.522  -5.760  17.518  1.00  0.00     0.252 C 
HETATM   14  O3  UNL     1       4.277  -5.863  18.493  1.00  0.00    -0.270 OA
ATOM     15  H5  UNL     1       2.558  -4.379  16.262  1.00  0.00     0.190 HD
BRANCH  13  16
HETATM   16  C11 UNL     1       2.963  -6.897  16.791  1.00  0.00     0.240 C 
BRANCH  16  17
HETATM   17  N6  UNL     1       3.845  -7.776  16.105  1.00  0.00    -0.117 NA
BRANCH  17  18
HETATM   18  N7  UNL     1       4.630  -8.618  16.958  1.00  0.00    -0.253 N 
HETATM   19  N8  UNL     1       5.802  -8.297  17.214  1.00  0.00    -0.334 N 
ATOM     20  H82 UNL     1       6.186  -7.441  16.813  1.00  0.00     0.177 HD
ATOM     21  H81 UNL     1       6.361  -8.896  17.822  1.00  0.00     0.177 HD
ATOM     22  H7  UNL     1       4.231  -9.471  17.350  1.00  0.00     0.203 HD
ENDBRANCH  17  18
ENDBRANCH  16  17
ENDBRANCH  13  16
ENDBRANCH  10  12
ENDBRANCH   7  10
ENDBRANCH   4   6
ENDBRANCH   3   4
BRANCH   3  23
HETATM   23  C12 UNL     1       4.260   0.754  13.048  1.00  0.00     0.083 A 
HETATM   24  C13 UNL     1       5.309   1.492  12.548  1.00  0.00     0.025 A 
HETATM   25  C14 UNL     1       6.662   1.145  12.983  1.00  0.00     0.069 C 
HETATM   26  N9  UNL     1       5.029   2.489  11.652  1.00  0.00    -0.353 N 
HETATM   27  C15 UNL     1       6.076   3.282  11.108  1.00  0.00     0.156 C 
HETATM   28  C16 UNL     1       3.756   2.748  11.262  1.00  0.00     0.048 A 
HETATM   29  C17 UNL     1       3.521   3.745  10.320  1.00  0.00     0.030 A 
HETATM   30  C21 UNL     1       2.706   2.029  11.747  1.00  0.00     0.042 A 
HETATM   31  C18 UNL     1       2.231   3.962   9.925  1.00  0.00     0.002 A 
HETATM   32  C19 UNL     1       1.168   3.239  10.419  1.00  0.00     0.001 A 
HETATM   33  C20 UNL     1       1.378   2.244  11.351  1.00  0.00     0.018 A 
HETATM   34  C22 UNL     1       2.976   1.024  12.649  1.00  0.00     0.200 A 
HETATM   35  O4  UNL     1       1.969   0.367  13.083  1.00  0.00    -0.286 OA
ENDBRANCH   3  23
BRANCH   1  36
HETATM   36  S1  UNL     1       4.999  -3.130  13.464  1.00  0.00     0.264 S 
HETATM   37  O1  UNL     1       5.266  -3.576  12.014  1.00  0.00    -0.200 OA
HETATM   38  O2  UNL     1       3.825  -3.898  14.025  1.00  0.00    -0.200 OA
BRANCH  36  39
HETATM   39  C7  UNL     1       6.392  -3.660  14.365  1.00  0.00     0.085 A 
HETATM   40  C2  UNL     1       7.578  -3.025  14.268  1.00  0.00    -0.039 A 
HETATM   41  C1  UNL     1       7.850  -1.869  13.383  1.00  0.00     0.050 C 
HETATM   42  C3  UNL     1       8.674  -3.464  15.020  1.00  0.00     0.008 A 
HETATM   43  C4  UNL     1       8.573  -4.551  15.873  1.00  0.00     0.001 A 
HETATM   44  C5  UNL     1       7.368  -5.185  15.957  1.00  0.00     0.002 A 
HETATM   45  C6  UNL     1       6.301  -4.756  15.226  1.00  0.00     0.026 A 
ENDBRANCH  36  39
ENDBRANCH   1  36
TORSDOF 10
ENDMDL
MODEL 2
REMARK VINA RESULT: -8.508411583      2.094      3.403
REMARK  10 active torsions:
REMARK  status: ('A' for Active; 'I' for Inactive)
REMARK    1  A    between atoms: C7_7  and  S1_8 
REMARK    2  A    between atoms: S1_8  and  N1_11 
REMARK    3  A    between atoms: C8_13  and  N2_14 
REMARK    4  A    between atoms: C8_13  and  C12_33 
REMARK    5  A    between atoms: N2_14  and  N3_16 
REMARK    6  A    between atoms: C9_18  and  N4_20 
REMARK    7  A    between atoms: N4_20  and  N5_22 
REMARK       I    between atoms: N5_22  and  C10_24 
REMARK    8  A    between atoms: C10_24  and  C11_26 
REMARK    9  A    between atoms: C11_26  and  N6_27 
REMARK   10  A    between atoms: N6_27  and  N7_28 
ROOT
HETATM    1  N1  UNL     1       5.396  -2.064  14.954  1.00  0.00    -0.264 N 
ATOM      2  H1  UNL     1       6.030  -1.267  14.900  1.00  0.00     0.180 HD
HETATM    3  C8  UNL     1       4.623  -1.830  14.076  1.00  0.00     0.146 C 
ENDROOT
BRANCH   3   4
HETATM    4  N2  UNL     1       3.474  -2.656  13.693  1.00  0.00    -0.282 N 
ATOM      5  H2  UNL     1       2.648  -2.303  13.210  1.00  0.00     0.188 HD
BRANCH   4   6
HETATM    6  N3  UNL     1       3.661  -4.027  14.084  1.00  0.00    -0.277 N 
HETATM    7  C9  UNL     1       2.859  -4.736  14.805  1.00  0.00     0.185 C 
HETATM    8  S2  UNL     1       1.573  -3.653  15.463  1.00  0.00    -0.010 SA
ATOM      9  H3  UNL     1       4.513  -4.485  13.760  1.00  0.00     0.189 HD
BRANCH   7  10
HETATM   10  N4  UNL     1       2.564  -6.001  15.396  1.00  0.00    -0.276 N 
ATOM     11  H4  UNL     1       1.610  -6.361  15.421  1.00  0.00     0.189 HD
BRANCH  10  12
HETATM   12  N5  UNL     1       3.622  -6.730  15.937  1.00  0.00    -0.267 N 
HETATM   13  C10 UNL     1       3.856  -6.966  17.328  1.00  0.00     0.252 C 
HETATM   14  O3  UNL     1       3.071  -6.466  18.143  1.00  0.00    -0.270 OA
ATOM     15  H5  UNL     1       4.291  -7.132  15.280  1.00  0.00     0.190 HD
BRANCH  13  16
HETATM   16  C11 UNL     1       5.004  -7.791  17.696  1.00  0.00     0.240 C 
BRANCH  16  17
HETATM   17  N6  UNL     1       6.087  -7.193  18.396  1.00  0.00    -0.117 NA
BRANCH  17  18
HETATM   18  N7  UNL     1       5.801  -5.900  18.943  1.00  0.00    -0.253 N 
HETATM   19  N8  UNL     1       5.414  -5.811  20.120  1.00  0.00    -0.334 N 
ATOM     20  H82 UNL     1       5.307  -6.659  20.677  1.00  0.00     0.177 HD
ATOM     21  H81 UNL     1       5.210  -4.891  20.509  1.00  0.00     0.177 HD
ATOM     22  H7  UNL     1       5.913  -5.062  18.372  1.00  0.00     0.203 HD
ENDBRANCH  17  18
ENDBRANCH  16  17
ENDBRANCH  13  16
ENDBRANCH  10  12
ENDBRANCH   7  10
ENDBRANCH   4   6
ENDBRANCH   3   4
BRANCH   3  23
HETATM   23  C12 UNL     1       4.898  -0.719  13.087  1.00  0.00     0.083 A 
HETATM   24  C13 UNL     1       4.034   0.332  12.876  1.00  0.00     0.025 A 
HETATM   25  C14 UNL     1       2.745   0.312  13.568  1.00  0.00     0.069 C 
HETATM   26  N9  UNL     1       4.442   1.349  12.054  1.00  0.00    -0.353 N 
HETATM   27  C15 UNL     1       3.588   2.456  11.801  1.00  0.00     0.156 C 
HETATM   28  C16 UNL     1       5.662   1.328  11.461  1.00  0.00     0.048 A 
HETATM   29  C17 UNL     1       6.051   2.400  10.664  1.00  0.00     0.030 A 
HETATM   30  C21 UNL     1       6.528   0.295  11.657  1.00  0.00     0.042 A 
HETATM   31  C18 UNL     1       7.297   2.364  10.105  1.00  0.00     0.002 A 
HETATM   32  C19 UNL     1       8.172   1.318  10.299  1.00  0.00     0.001 A 
HETATM   33  C20 UNL     1       7.809   0.246  11.087  1.00  0.00     0.018 A 
HETATM   34  C22 UNL     1       6.128  -0.732  12.482  1.00  0.00     0.200 A 
HETATM   35  O4  UNL     1       6.965  -1.685  12.647  1.00  0.00    -0.286 OA
ENDBRANCH   3  23
BRANCH   1  36
HETATM   36  S1  UNL     1       6.028  -2.924  16.196  1.00  0.00     0.264 S 
HETATM   37  O1  UNL     1       5.016  -4.016  16.587  1.00  0.00    -0.200 OA
HETATM   38  O2  UNL     1       6.337  -2.063  17.398  1.00  0.00    -0.200 OA
BRANCH  36  39
HETATM   39  C7  UNL     1       7.501  -3.780  15.830  1.00  0.00     0.085 A 
HETATM   40  C2  UNL     1       8.650  -3.124  15.566  1.00  0.00    -0.039 A 
HETATM   41  C1  UNL     1       8.791  -1.651  15.510  1.00  0.00     0.050 C 
HETATM   42  C3  UNL     1       9.821  -3.842  15.295  1.00  0.00     0.008 A 
HETATM   43  C4  UNL     1       9.832  -5.227  15.287  1.00  0.00     0.001 A 
HETATM   44  C5  UNL     1       8.661  -5.874  15.552  1.00  0.00     0.002 A 
HETATM   45  C6  UNL     1       7.521  -5.176  15.818  1.00  0.00     0.026 A 
ENDBRANCH  36  39
ENDBRANCH   1  36
TORSDOF 10
ENDMDL
MODEL 3
REMARK VINA RESULT: -8.363792481      1.066      1.447
REMARK  10 active torsions:
REMARK  status: ('A' for Active; 'I' for Inactive)
REMARK    1  A    between atoms: C7_7  and  S1_8 
REMARK    2  A    between atoms: S1_8  and  N1_11 
REMARK    3  A    between atoms: C8_13  and  N2_14 
REMARK    4  A    between atoms: C8_13  and  C12_33 
REMARK    5  A    between atoms: N2_14  and  N3_16 
REMARK    6  A    between atoms: C9_18  and  N4_20 
REMARK    7  A    between atoms: N4_20  and  N5_22 
REMARK       I    between atoms: N5_22  and  C10_24 
REMARK    8  A    between atoms: C10_24  and  C11_26 
REMARK    9  A    between atoms: C11_26  and  N6_27 
REMARK   10  A    between atoms: N6_27  and  N7_28 
ROOT
HETATM    1  N1  UNL     1       5.040  -1.367  13.332  1.00  0.00    -0.264 N 
ATOM      2  H1  UNL     1       5.011  -1.195  12.327  1.00  0.00     0.180 HD
HETATM    3  C8  UNL     1       4.944  -0.264  13.778  1.00  0.00     0.146 C 
ENDROOT
BRANCH   3   4
HETATM    4  N2  UNL     1       4.932   0.094  15.199  1.00  0.00    -0.282 N 
ATOM      5  H2  UNL     1       5.513   0.824  15.613  1.00  0.00     0.188 HD
BRANCH   4   6
HETATM    6  N3  UNL     1       3.998  -0.714  15.936  1.00  0.00    -0.277 N 
HETATM    7  C9  UNL     1       4.282  -1.558  16.869  1.00  0.00     0.185 C 
HETATM    8  S2  UNL     1       6.075  -1.755  16.935  1.00  0.00    -0.010 SA
ATOM      9  H3  UNL     1       3.012  -0.608  15.696  1.00  0.00     0.189 HD
BRANCH   7  10
HETATM   10  N4  UNL     1       3.808  -2.487  17.843  1.00  0.00    -0.276 N 
ATOM     11  H4  UNL     1       3.943  -2.320  18.840  1.00  0.00     0.189 HD
BRANCH  10  12
HETATM   12  N5  UNL     1       3.154  -3.631  17.388  1.00  0.00    -0.267 N 
HETATM   13  C10 UNL     1       3.685  -4.959  17.386  1.00  0.00     0.252 C 
HETATM   14  O3  UNL     1       4.839  -5.125  17.801  1.00  0.00    -0.270 OA
ATOM     15  H5  UNL     1       2.209  -3.509  17.023  1.00  0.00     0.190 HD
BRANCH  13  16
HETATM   16  C11 UNL     1       2.826  -6.036  16.901  1.00  0.00     0.240 C 
BRANCH  16  17
HETATM   17  N6  UNL     1       2.717  -6.254  15.501  1.00  0.00    -0.117 NA
BRANCH  17  18
HETATM   18  N7  UNL     1       1.893  -5.305  14.813  1.00  0.00    -0.253 N 
HETATM   19  N8  UNL     1       0.760  -5.052  15.255  1.00  0.00    -0.334 N 
ATOM     20  H82 UNL     1       0.435  -5.524  16.100  1.00  0.00     0.177 HD
ATOM     21  H81 UNL     1       0.174  -4.377  14.765  1.00  0.00     0.177 HD
ATOM     22  H7  UNL     1       2.232  -4.842  13.970  1.00  0.00     0.203 HD
ENDBRANCH  17  18
ENDBRANCH  16  17
ENDBRANCH  13  16
ENDBRANCH  10  12
ENDBRANCH   7  10
ENDBRANCH   4   6
ENDBRANCH   3   4
BRANCH   3  23
HETATM   23  C12 UNL     1       4.589   0.899  12.880  1.00  0.00     0.083 A 
HETATM   24  C13 UNL     1       5.530   1.651  12.214  1.00  0.00     0.025 A 
HETATM   25  C14 UNL     1       6.942   1.373  12.475  1.00  0.00     0.069 C 
HETATM   26  N9  UNL     1       5.091   2.598  11.327  1.00  0.00    -0.353 N 
HETATM   27  C15 UNL     1       6.021   3.404  10.615  1.00  0.00     0.156 C 
HETATM   28  C16 UNL     1       3.768   2.794  11.104  1.00  0.00     0.048 A 
HETATM   29  C17 UNL     1       3.367   3.739  10.165  1.00  0.00     0.030 A 
HETATM   30  C21 UNL     1       2.823   2.060  11.755  1.00  0.00     0.042 A 
HETATM   31  C18 UNL     1       2.028   3.893   9.941  1.00  0.00     0.002 A 
HETATM   32  C19 UNL     1       1.072   3.154  10.601  1.00  0.00     0.001 A 
HETATM   33  C20 UNL     1       1.446   2.209  11.534  1.00  0.00     0.018 A 
HETATM   34  C22 UNL     1       3.253   1.106  12.650  1.00  0.00     0.200 A 
HETATM   35  O4  UNL     1       2.342   0.432  13.242  1.00  0.00    -0.286 OA
ENDBRANCH   3  23
BRANCH   1  36
HETATM   36  S1  UNL     1       5.190  -2.996  13.398  1.00  0.00     0.264 S 
HETATM   37  O1  UNL     1       5.238  -3.533  11.956  1.00  0.00    -0.200 OA
HETATM   38  O2  UNL     1       4.053  -3.652  14.147  1.00  0.00    -0.200 OA
BRANCH  36  39
HETATM   39  C7  UNL     1       6.653  -3.575  14.147  1.00  0.00     0.085 A 
HETATM   40  C2  UNL     1       7.816  -2.901  14.034  1.00  0.00    -0.039 A 
HETATM   41  C1  UNL     1       8.002  -1.657  13.253  1.00  0.00     0.050 C 
HETATM   42  C3  UNL     1       8.970  -3.383  14.664  1.00  0.00     0.008 A 
HETATM   43  C4  UNL     1       8.950  -4.551  15.409  1.00  0.00     0.001 A 
HETATM   44  C5  UNL     1       7.767  -5.221  15.509  1.00  0.00     0.002 A 
HETATM   45  C6  UNL     1       6.643  -4.752  14.897  1.00  0.00     0.026 A 
ENDBRANCH  36  39
ENDBRANCH   1  36
TORSDOF 10
ENDMDL
MODEL 4
REMARK VINA RESULT: -8.302996352      1.327      1.441
REMARK  10 active torsions:
REMARK  status: ('A' for Active; 'I' for Inactive)
REMARK    1  A    between atoms: C7_7  and  S1_8 
REMARK    2  A    between atoms: S1_8  and  N1_11 
REMARK    3  A    between atoms: C8_13  and  N2_14 
REMARK    4  A    between atoms: C8_13  and  C12_33 
REMARK    5  A    between atoms: N2_14  and  N3_16 
REMARK    6  A    between atoms: C9_18  and  N4_20 
REMARK    7  A    between atoms: N4_20  and  N5_22 
REMARK       I    between atoms: N5_22  and  C10_24 
REMARK    8  A    between atoms: C10_24  and  C11_26 
REMARK    9  A    between atoms: C11_26  and  N6_27 
REMARK   10  A    between atoms: N6_27  and  N7_28 
ROOT
HETATM    1  N1  UNL     1       4.928  -1.617  13.531  1.00  0.00    -0.264 N 
ATOM      2  H1  UNL     1       4.905  -1.369  12.543  1.00  0.00     0.180 HD
HETATM    3  C8  UNL     1       4.699  -0.570  14.058  1.00  0.00     0.146 C 
ENDROOT
BRANCH   3   4
HETATM    4  N2  UNL     1       4.611  -0.330  15.501  1.00  0.00    -0.282 N 
ATOM      5  H2  UNL     1       3.924   0.281  15.941  1.00  0.00     0.188 HD
BRANCH   4   6
HETATM    6  N3  UNL     1       5.617  -1.068  16.217  1.00  0.00    -0.277 N 
HETATM    7  C9  UNL     1       5.446  -2.174  16.859  1.00  0.00     0.185 C 
HETATM    8  S2  UNL     1       3.677  -2.528  16.930  1.00  0.00    -0.010 SA
ATOM      9  H3  UNL     1       6.558  -0.676  16.219  1.00  0.00     0.189 HD
BRANCH   7  10
HETATM   10  N4  UNL     1       6.028  -3.230  17.622  1.00  0.00    -0.276 N 
ATOM     11  H4  UNL     1       6.889  -3.085  18.150  1.00  0.00     0.189 HD
BRANCH  10  12
HETATM   12  N5  UNL     1       5.384  -4.465  17.624  1.00  0.00    -0.267 N 
HETATM   13  C10 UNL     1       5.880  -5.674  18.206  1.00  0.00     0.252 C 
HETATM   14  O3  UNL     1       6.995  -5.645  18.743  1.00  0.00    -0.270 OA
ATOM     15  H5  UNL     1       4.472  -4.512  17.167  1.00  0.00     0.190 HD
BRANCH  13  16
HETATM   16  C11 UNL     1       5.035  -6.862  18.137  1.00  0.00     0.240 C 
BRANCH  16  17
HETATM   17  N6  UNL     1       5.250  -7.916  19.067  1.00  0.00    -0.117 NA
BRANCH  17  18
HETATM   18  N7  UNL     1       6.328  -8.797  18.729  1.00  0.00    -0.253 N 
HETATM   19  N8  UNL     1       7.452  -8.596  19.217  1.00  0.00    -0.334 N 
ATOM     20  H82 UNL     1       7.589  -7.807  19.850  1.00  0.00     0.177 HD
ATOM     21  H81 UNL     1       8.219  -9.223  18.976  1.00  0.00     0.177 HD
ATOM     22  H7  UNL     1       6.174  -9.581  18.094  1.00  0.00     0.203 HD
ENDBRANCH  17  18
ENDBRANCH  16  17
ENDBRANCH  13  16
ENDBRANCH  10  12
ENDBRANCH   7  10
ENDBRANCH   4   6
ENDBRANCH   3   4
BRANCH   3  23
HETATM   23  C12 UNL     1       4.240   0.616  13.240  1.00  0.00     0.083 A 
HETATM   24  C13 UNL     1       5.109   1.488  12.625  1.00  0.00     0.025 A 
HETATM   25  C14 UNL     1       6.542   1.314  12.864  1.00  0.00     0.069 C 
HETATM   26  N9  UNL     1       4.585   2.451  11.803  1.00  0.00    -0.353 N 
HETATM   27  C15 UNL     1       5.438   3.378  11.146  1.00  0.00     0.156 C 
HETATM   28  C16 UNL     1       3.248   2.548  11.596  1.00  0.00     0.048 A 
HETATM   29  C17 UNL     1       2.762   3.516  10.723  1.00  0.00     0.030 A 
HETATM   30  C21 UNL     1       2.374   1.694  12.198  1.00  0.00     0.042 A 
HETATM   31  C18 UNL     1       1.413   3.569  10.512  1.00  0.00     0.002 A 
HETATM   32  C19 UNL     1       0.527   2.710  11.123  1.00  0.00     0.001 A 
HETATM   33  C20 UNL     1       0.987   1.741  11.990  1.00  0.00     0.018 A 
HETATM   34  C22 UNL     1       2.890   0.723  13.026  1.00  0.00     0.200 A 
HETATM   35  O4  UNL     1       2.043  -0.064  13.573  1.00  0.00    -0.286 OA
ENDBRANCH   3  23
BRANCH   1  36
HETATM   36  S1  UNL     1       5.256  -3.220  13.478  1.00  0.00     0.264 S 
HETATM   37  O1  UNL     1       5.323  -3.646  12.000  1.00  0.00    -0.200 OA
HETATM   38  O2  UNL     1       4.218  -4.048  14.199  1.00  0.00    -0.200 OA
BRANCH  36  39
HETATM   39  C7  UNL     1       6.793  -3.684  14.154  1.00  0.00     0.085 A 
HETATM   40  C2  UNL     1       7.871  -2.877  14.073  1.00  0.00    -0.039 A 
HETATM   41  C1  UNL     1       7.898  -1.565  13.386  1.00  0.00     0.050 C 
HETATM   42  C3  UNL     1       9.087  -3.270  14.644  1.00  0.00     0.008 A 
HETATM   43  C4  UNL     1       9.217  -4.485  15.298  1.00  0.00     0.001 A 
HETATM   44  C5  UNL     1       8.118  -5.290  15.368  1.00  0.00     0.002 A 
HETATM   45  C6  UNL     1       6.934  -4.907  14.813  1.00  0.00     0.026 A 
ENDBRANCH  36  39
ENDBRANCH   1  36
TORSDOF 10
ENDMDL
MODEL 5
REMARK VINA RESULT: -8.292012017      1.264      1.441
REMARK  10 active torsions:
REMARK  status: ('A' for Active; 'I' for Inactive)
REMARK    1  A    between atoms: C7_7  and  S1_8 
REMARK    2  A    between atoms: S1_8  and  N1_11 
REMARK    3  A    between atoms: C8_13  and  N2_14 
REMARK    4  A    between atoms: C8_13  and  C12_33 
REMARK    5  A    between atoms: N2_14  and  N3_16 
REMARK    6  A    between atoms: C9_18  and  N4_20 
REMARK    7  A    between atoms: N4_20  and  N5_22 
REMARK       I    between atoms: N5_22  and  C10_24 
REMARK    8  A    between atoms: C10_24  and  C11_26 
REMARK    9  A    between atoms: C11_26  and  N6_27 
REMARK   10  A    between atoms: N6_27  and  N7_28 
ROOT
HETATM    1  N1  UNL     1       4.928  -1.614  13.520  1.00  0.00    -0.264 N 
ATOM      2  H1  UNL     1       4.901  -1.362  12.533  1.00  0.00     0.180 HD
HETATM    3  C8  UNL     1       4.704  -0.569  14.052  1.00  0.00     0.146 C 
ENDROOT
BRANCH   3   4
HETATM    4  N2  UNL     1       4.624  -0.335  15.497  1.00  0.00    -0.282 N 
ATOM      5  H2  UNL     1       3.944   0.281  15.942  1.00  0.00     0.188 HD
BRANCH   4   6
HETATM    6  N3  UNL     1       5.626  -1.084  16.206  1.00  0.00    -0.277 N 
HETATM    7  C9  UNL     1       5.447  -2.187  16.851  1.00  0.00     0.185 C 
HETATM    8  S2  UNL     1       3.674  -2.516  16.939  1.00  0.00    -0.010 SA
ATOM      9  H3  UNL     1       6.573  -0.706  16.197  1.00  0.00     0.189 HD
BRANCH   7  10
HETATM   10  N4  UNL     1       6.022  -3.248  17.612  1.00  0.00    -0.276 N 
ATOM     11  H4  UNL     1       6.889  -3.114  18.133  1.00  0.00     0.189 HD
BRANCH  10  12
HETATM   12  N5  UNL     1       5.362  -4.476  17.621  1.00  0.00    -0.267 N 
HETATM   13  C10 UNL     1       5.832  -5.681  18.231  1.00  0.00     0.252 C 
HETATM   14  O3  UNL     1       6.937  -5.657  18.788  1.00  0.00    -0.270 OA
ATOM     15  H5  UNL     1       4.458  -4.519  17.148  1.00  0.00     0.190 HD
BRANCH  13  16
HETATM   16  C11 UNL     1       4.973  -6.860  18.165  1.00  0.00     0.240 C 
BRANCH  16  17
HETATM   17  N6  UNL     1       3.591  -6.690  17.879  1.00  0.00    -0.117 NA
BRANCH  17  18
HETATM   18  N7  UNL     1       3.203  -7.087  16.559  1.00  0.00    -0.253 N 
HETATM   19  N8  UNL     1       2.845  -6.219  15.745  1.00  0.00    -0.334 N 
ATOM     20  H82 UNL     1       2.832  -5.239  16.030  1.00  0.00     0.177 HD
ATOM     21  H81 UNL     1       2.568  -6.502  14.805  1.00  0.00     0.177 HD
ATOM     22  H7  UNL     1       3.221  -8.070  16.289  1.00  0.00     0.203 HD
ENDBRANCH  17  18
ENDBRANCH  16  17
ENDBRANCH  13  16
ENDBRANCH  10  12
ENDBRANCH   7  10
ENDBRANCH   4   6
ENDBRANCH   3   4
BRANCH   3  23
HETATM   23  C12 UNL     1       4.242   0.620  13.242  1.00  0.00     0.083 A 
HETATM   24  C13 UNL     1       5.109   1.499  12.633  1.00  0.00     0.025 A 
HETATM   25  C14 UNL     1       6.542   1.328  12.872  1.00  0.00     0.069 C 
HETATM   26  N9  UNL     1       4.582   2.466  11.817  1.00  0.00    -0.353 N 
HETATM   27  C15 UNL     1       5.433   3.400  11.166  1.00  0.00     0.156 C 
HETATM   28  C16 UNL     1       3.245   2.560  11.609  1.00  0.00     0.048 A 
HETATM   29  C17 UNL     1       2.757   3.532  10.741  1.00  0.00     0.030 A 
HETATM   30  C21 UNL     1       2.373   1.699  12.204  1.00  0.00     0.042 A 
HETATM   31  C18 UNL     1       1.408   3.582  10.529  1.00  0.00     0.002 A 
HETATM   32  C19 UNL     1       0.525   2.715  11.134  1.00  0.00     0.001 A 
HETATM   33  C20 UNL     1       0.987   1.742  11.995  1.00  0.00     0.018 A 
HETATM   34  C22 UNL     1       2.891   0.724  13.027  1.00  0.00     0.200 A 
HETATM   35  O4  UNL     1       2.047  -0.069  13.568  1.00  0.00    -0.286 OA
ENDBRANCH   3  23
BRANCH   1  36
HETATM   36  S1  UNL     1       5.255  -3.217  13.459  1.00  0.00     0.264 S 
HETATM   37  O1  UNL     1       5.320  -3.637  11.979  1.00  0.00    -0.200 OA
HETATM   38  O2  UNL     1       4.216  -4.047  14.177  1.00  0.00    -0.200 OA
BRANCH  36  39
HETATM   39  C7  UNL     1       6.791  -3.687  14.132  1.00  0.00     0.085 A 
HETATM   40  C2  UNL     1       7.869  -2.878  14.059  1.00  0.00    -0.039 A 
HETATM   41  C1  UNL     1       7.895  -1.560  13.385  1.00  0.00     0.050 C 
HETATM   42  C3  UNL     1       9.085  -3.277  14.627  1.00  0.00     0.008 A 
HETATM   43  C4  UNL     1       9.215  -4.497  15.270  1.00  0.00     0.001 A 
HETATM   44  C5  UNL     1       8.117  -5.304  15.331  1.00  0.00     0.002 A 
HETATM   45  C6  UNL     1       6.932  -4.916  14.779  1.00  0.00     0.026 A 
ENDBRANCH  36  39
ENDBRANCH   1  36
TORSDOF 10
ENDMDL
