MODEL 1
REMARK VINA RESULT: -5.880201778      0.000      0.000
REMARK  4 active torsions:
REMARK  status: ('A' for Active; 'I' for Inactive)
REMARK    1  A    between atoms: N2_4  and  N3_6 
REMARK    2  A    between atoms: C1_8  and  N4_9 
REMARK    3  A    between atoms: N4_9  and  C2_11 
REMARK    4  A    between atoms: C2_11  and  C3_12 
ROOT
HETATM    1  N4  UNL     1      19.660  36.713  29.873  1.00  0.00    -0.381 N 
ATOM      2  H4  UNL     1      19.902  35.883  29.333  1.00  0.00     0.160 HD
ENDROOT
BRANCH   1   3
HETATM    3  C1  UNL     1      18.312  37.004  30.245  1.00  0.00     0.194 C 
HETATM    4  N3  UNL     1      17.713  36.471  31.240  1.00  0.00    -0.283 N 
ATOM      5  H3  UNL     1      16.748  36.745  31.425  1.00  0.00     0.189 HD
BRANCH   4   6
HETATM    6  N2  UNL     1      18.303  35.544  32.081  1.00  0.00    -0.248 N 
HETATM    7  N1  UNL     1      17.615  34.925  32.927  1.00  0.00    -0.331 N 
ATOM      8  H12 UNL     1      16.615  35.118  32.983  1.00  0.00     0.178 HD
ATOM      9  H11 UNL     1      18.049  34.241  33.547  1.00  0.00     0.178 HD
ATOM     10  H2  UNL     1      19.304  35.362  32.012  1.00  0.00     0.207 HD
ENDBRANCH   4   6
ENDBRANCH   1   3
BRANCH   1  11
HETATM   11  C2  UNL     1      20.667  37.665  30.309  1.00  0.00     0.176 C 
BRANCH  11  12
HETATM   12  C3  UNL     1      21.272  38.408  29.142  1.00  0.00     0.318 C 
HETATM   13  N5  UNL     1      22.642  38.737  29.391  1.00  0.00    -0.307 N 
HETATM   14  N6  UNL     1      23.423  37.934  28.891  1.00  0.00    -0.313 N 
ATOM     15  H5  UNL     1      22.939  39.553  29.927  1.00  0.00     0.182 HD
HETATM   16  C4  UNL     1      22.730  36.909  28.209  1.00  0.00     0.373 C 
ATOM     17  H6  UNL     1      24.439  37.997  28.960  1.00  0.00     0.181 HD
HETATM   18  N7  UNL     1      21.398  37.423  28.053  1.00  0.00    -0.035 N 
ATOM     19  H72 UNL     1      20.670  36.709  28.046  1.00  0.00     0.281 HD
ATOM     20  H71 UNL     1      21.197  37.793  27.125  1.00  0.00     0.281 HD
ENDBRANCH  11  12
ENDBRANCH   1  11
TORSDOF 4
ENDMDL
MODEL 2
REMARK VINA RESULT: -5.717280500      1.045      1.433
REMARK  4 active torsions:
REMARK  status: ('A' for Active; 'I' for Inactive)
REMARK    1  A    between atoms: N2_4  and  N3_6 
REMARK    2  A    between atoms: C1_8  and  N4_9 
REMARK    3  A    between atoms: N4_9  and  C2_11 
REMARK    4  A    between atoms: C2_11  and  C3_12 
ROOT
HETATM    1  N4  UNL     1      18.975  36.333  29.297  1.00  0.00    -0.381 N 
ATOM      2  H4  UNL     1      18.942  35.342  29.061  1.00  0.00     0.160 HD
ENDROOT
BRANCH   1   3
HETATM    3  C1  UNL     1      17.946  36.959  30.063  1.00  0.00     0.194 C 
HETATM    4  N3  UNL     1      17.638  36.625  31.258  1.00  0.00    -0.283 N 
ATOM      5  H3  UNL     1      16.887  37.134  31.723  1.00  0.00     0.189 HD
BRANCH   4   6
HETATM    6  N2  UNL     1      18.270  35.610  31.955  1.00  0.00    -0.248 N 
HETATM    7  N1  UNL     1      17.660  34.977  32.849  1.00  0.00    -0.331 N 
ATOM      8  H12 UNL     1      16.691  35.225  33.051  1.00  0.00     0.178 HD
ATOM      9  H11 UNL     1      18.125  34.229  33.363  1.00  0.00     0.178 HD
ATOM     10  H2  UNL     1      19.239  35.375  31.740  1.00  0.00     0.207 HD
ENDBRANCH   4   6
ENDBRANCH   1   3
BRANCH   1  11
HETATM   11  C2  UNL     1      20.073  37.187  28.875  1.00  0.00     0.176 C 
BRANCH  11  12
HETATM   12  C3  UNL     1      21.308  36.963  29.714  1.00  0.00     0.318 C 
HETATM   13  N5  UNL     1      22.481  36.886  28.899  1.00  0.00    -0.307 N 
HETATM   14  N6  UNL     1      23.088  37.951  28.838  1.00  0.00    -0.313 N 
ATOM     15  H5  UNL     1      22.782  36.037  28.421  1.00  0.00     0.182 HD
HETATM   16  C4  UNL     1      22.441  38.950  29.599  1.00  0.00     0.373 C 
ATOM     17  H6  UNL     1      23.947  38.096  28.306  1.00  0.00     0.181 HD
HETATM   18  N7  UNL     1      21.537  38.222  30.445  1.00  0.00    -0.035 N 
ATOM     19  H72 UNL     1      20.685  38.729  30.686  1.00  0.00     0.281 HD
ATOM     20  H71 UNL     1      21.865  38.099  31.402  1.00  0.00     0.281 HD
ENDBRANCH  11  12
ENDBRANCH   1  11
TORSDOF 4
ENDMDL
MODEL 3
REMARK VINA RESULT: -5.684076428      1.379      1.746
REMARK  4 active torsions:
REMARK  status: ('A' for Active; 'I' for Inactive)
REMARK    1  A    between atoms: N2_4  and  N3_6 
REMARK    2  A    between atoms: C1_8  and  N4_9 
REMARK    3  A    between atoms: N4_9  and  C2_11 
REMARK    4  A    between atoms: C2_11  and  C3_12 
ROOT
HETATM    1  N4  UNL     1      18.907  36.293  29.379  1.00  0.00    -0.381 N 
ATOM      2  H4  UNL     1      18.869  35.292  29.191  1.00  0.00     0.160 HD
ENDROOT
BRANCH   1   3
HETATM    3  C1  UNL     1      17.909  36.951  30.161  1.00  0.00     0.194 C 
HETATM    4  N3  UNL     1      17.615  36.631  31.363  1.00  0.00    -0.283 N 
ATOM      5  H3  UNL     1      16.887  37.163  31.839  1.00  0.00     0.189 HD
BRANCH   4   6
HETATM    6  N2  UNL     1      18.231  35.603  32.053  1.00  0.00    -0.248 N 
HETATM    7  N1  UNL     1      17.597  34.941  32.908  1.00  0.00    -0.331 N 
ATOM      8  H12 UNL     1      16.619  35.175  33.083  1.00  0.00     0.178 HD
ATOM      9  H11 UNL     1      18.051  34.183  33.417  1.00  0.00     0.178 HD
ATOM     10  H2  UNL     1      19.209  35.381  31.866  1.00  0.00     0.207 HD
ENDBRANCH   4   6
ENDBRANCH   1   3
BRANCH   1  11
HETATM   11  C2  UNL     1      19.978  37.130  28.867  1.00  0.00     0.176 C 
BRANCH  11  12
HETATM   12  C3  UNL     1      21.191  37.094  29.766  1.00  0.00     0.318 C 
HETATM   13  N5  UNL     1      21.241  35.879  30.521  1.00  0.00    -0.307 N 
HETATM   14  N6  UNL     1      21.971  35.034  30.013  1.00  0.00    -0.313 N 
ATOM     15  H5  UNL     1      20.726  35.732  31.388  1.00  0.00     0.182 HD
HETATM   16  C4  UNL     1      22.553  35.515  28.819  1.00  0.00     0.373 C 
ATOM     17  H6  UNL     1      22.135  34.105  30.402  1.00  0.00     0.181 HD
HETATM   18  N7  UNL     1      22.354  36.936  28.875  1.00  0.00    -0.035 N 
ATOM     19  H72 UNL     1      22.248  37.382  27.964  1.00  0.00     0.281 HD
ATOM     20  H71 UNL     1      23.178  37.465  29.160  1.00  0.00     0.281 HD
ENDBRANCH  11  12
ENDBRANCH   1  11
TORSDOF 4
ENDMDL
MODEL 4
REMARK VINA RESULT: -5.673886828      1.705      2.053
REMARK  4 active torsions:
REMARK  status: ('A' for Active; 'I' for Inactive)
REMARK    1  A    between atoms: N2_4  and  N3_6 
REMARK    2  A    between atoms: C1_8  and  N4_9 
REMARK    3  A    between atoms: N4_9  and  C2_11 
REMARK    4  A    between atoms: C2_11  and  C3_12 
ROOT
HETATM    1  N4  UNL     1      20.362  35.270  30.088  1.00  0.00    -0.381 N 
ATOM      2  H4  UNL     1      19.579  34.650  29.882  1.00  0.00     0.160 HD
ENDROOT
BRANCH   1   3
HETATM    3  C1  UNL     1      20.221  36.400  30.948  1.00  0.00     0.194 C 
HETATM    4  N3  UNL     1      19.210  36.605  31.702  1.00  0.00    -0.283 N 
ATOM      5  H3  UNL     1      19.202  37.444  32.282  1.00  0.00     0.189 HD
BRANCH   4   6
HETATM    6  N2  UNL     1      18.124  35.750  31.775  1.00  0.00    -0.248 N 
HETATM    7  N1  UNL     1      17.925  35.061  32.802  1.00  0.00    -0.331 N 
ATOM      8  H12 UNL     1      18.577  35.143  33.582  1.00  0.00     0.178 HD
ATOM      9  H11 UNL     1      17.124  34.430  32.856  1.00  0.00     0.178 HD
ATOM     10  H2  UNL     1      17.481  35.681  30.986  1.00  0.00     0.207 HD
ENDBRANCH   4   6
ENDBRANCH   1   3
BRANCH   1  11
HETATM   11  C2  UNL     1      21.682  35.051  29.523  1.00  0.00     0.176 C 
BRANCH  11  12
HETATM   12  C3  UNL     1      22.160  36.253  28.742  1.00  0.00     0.318 C 
HETATM   13  N5  UNL     1      23.564  36.176  28.480  1.00  0.00    -0.307 N 
HETATM   14  N6  UNL     1      23.816  35.732  27.364  1.00  0.00    -0.313 N 
ATOM     15  H5  UNL     1      24.280  36.460  29.149  1.00  0.00     0.182 HD
HETATM   16  C4  UNL     1      22.630  35.425  26.659  1.00  0.00     0.373 C 
ATOM     17  H6  UNL     1      24.757  35.602  26.994  1.00  0.00     0.181 HD
HETATM   18  N7  UNL     1      21.597  36.107  27.388  1.00  0.00    -0.035 N 
ATOM     19  H72 UNL     1      20.687  35.647  27.358  1.00  0.00     0.281 HD
ATOM     20  H71 UNL     1      21.291  36.981  26.963  1.00  0.00     0.281 HD
ENDBRANCH  11  12
ENDBRANCH   1  11
TORSDOF 4
ENDMDL
MODEL 5
REMARK VINA RESULT: -5.638308482      3.185      5.194
REMARK  4 active torsions:
REMARK  status: ('A' for Active; 'I' for Inactive)
REMARK    1  A    between atoms: N2_4  and  N3_6 
REMARK    2  A    between atoms: C1_8  and  N4_9 
REMARK    3  A    between atoms: N4_9  and  C2_11 
REMARK    4  A    between atoms: C2_11  and  C3_12 
ROOT
HETATM    1  N4  UNL     1      17.636  37.031  29.648  1.00  0.00    -0.381 N 
ATOM      2  H4  UNL     1      17.045  36.318  29.219  1.00  0.00     0.160 HD
ENDROOT
BRANCH   1   3
HETATM    3  C1  UNL     1      18.856  36.698  30.310  1.00  0.00     0.194 C 
HETATM    4  N3  UNL     1      18.921  36.049  31.409  1.00  0.00    -0.283 N 
ATOM      5  H3  UNL     1      19.842  35.859  31.804  1.00  0.00     0.189 HD
BRANCH   4   6
HETATM    6  N2  UNL     1      17.809  35.588  32.092  1.00  0.00    -0.248 N 
HETATM    7  N1  UNL     1      17.941  34.862  33.105  1.00  0.00    -0.331 N 
ATOM      8  H12 UNL     1      18.882  34.619  33.416  1.00  0.00     0.178 HD
ATOM      9  H11 UNL     1      17.122  34.522  33.609  1.00  0.00     0.178 HD
ATOM     10  H2  UNL     1      16.875  35.840  31.769  1.00  0.00     0.207 HD
ENDBRANCH   4   6
ENDBRANCH   1   3
BRANCH   1  11
HETATM   11  C2  UNL     1      17.282  38.440  29.620  1.00  0.00     0.176 C 
BRANCH  11  12
HETATM   12  C3  UNL     1      16.648  38.881  30.917  1.00  0.00     0.318 C 
HETATM   13  N5  UNL     1      15.968  40.130  30.763  1.00  0.00    -0.307 N 
HETATM   14  N6  UNL     1      14.763  39.996  30.573  1.00  0.00    -0.313 N 
ATOM     15  H5  UNL     1      16.434  41.036  30.806  1.00  0.00     0.182 HD
HETATM   16  C4  UNL     1      14.399  38.631  30.563  1.00  0.00     0.373 C 
ATOM     17  H6  UNL     1      14.110  40.768  30.440  1.00  0.00     0.181 HD
HETATM   18  N7  UNL     1      15.523  37.959  31.154  1.00  0.00    -0.035 N 
ATOM     19  H72 UNL     1      15.676  37.012  30.809  1.00  0.00     0.281 HD
ATOM     20  H71 UNL     1      15.390  37.699  32.131  1.00  0.00     0.281 HD
ENDBRANCH  11  12
ENDBRANCH   1  11
TORSDOF 4
ENDMDL
