MODEL 1
REMARK VINA RESULT: -6.828372930      0.000      0.000
REMARK  5 active torsions:
REMARK  status: ('A' for Active; 'I' for Inactive)
REMARK    1  A    between atoms: N1_1  and  N2_4 
REMARK       I    between atoms: N2_4  and  C1_6 
REMARK       I    between atoms: C1_6  and  N3_8 
REMARK    2  A    between atoms: N3_8  and  N4_9 
REMARK       I    between atoms: N4_9  and  C2_11 
REMARK    3  A    between atoms: C2_11  and  C3_13 
REMARK       I    between atoms: N5_18  and  C8_19 
REMARK       I    between atoms: C8_19  and  N7_24 
REMARK    4  A    between atoms: N6_20  and  O3_22 
REMARK    5  A    between atoms: N7_24  and  N8_26 
ROOT
HETATM    1  C3  UNL     1     -64.163  89.150  95.678  1.00  0.00     0.197 C 
HETATM    2  C4  UNL     1     -64.367  87.691  96.078  1.00  0.00     0.036 C 
HETATM    3  C5  UNL     1     -64.155  86.811  94.887  1.00  0.00     0.004 C 
HETATM    4  C6  UNL     1     -65.048  87.209  93.741  1.00  0.00     0.020 C 
HETATM    5  C7  UNL     1     -64.610  88.600  93.328  1.00  0.00     0.142 C 
HETATM    6  N5  UNL     1     -64.906  89.432  94.516  1.00  0.00    -0.201 N 
HETATM    7  C8  UNL     1     -65.889  90.428  94.304  1.00  0.00     0.714 C 
HETATM    8  N6  UNL     1     -67.114  90.080  94.264  1.00  0.00    -0.097 N 
ATOM      9  H6  UNL     1     -67.350  89.096  94.390  1.00  0.00     0.213 HD
HETATM   10  N7  UNL     1     -65.537  91.781  94.116  1.00  0.00    -0.137 N 
ATOM     11  H7  UNL     1     -65.948  92.497  94.716  1.00  0.00     0.205 HD
ENDROOT
BRANCH   1  12
HETATM   12  C2  UNL     1     -64.480  90.007  96.868  1.00  0.00     0.270 C 
HETATM   13  N4  UNL     1     -63.388  90.397  97.677  1.00  0.00    -0.196 N 
ATOM     14  H4  UNL     1     -62.478  90.065  97.357  1.00  0.00     0.205 HD
HETATM   15  O2  UNL     1     -65.629  90.342  97.113  1.00  0.00    -0.269 OA
BRANCH  13  16
HETATM   16  N3  UNL     1     -63.357  91.133  98.797  1.00  0.00    -0.261 NA
HETATM   17  C1  UNL     1     -63.326  91.868  99.917  1.00  0.00     0.430 C 
HETATM   18  N2  UNL     1     -62.563  93.114  99.854  1.00  0.00    -0.245 N 
HETATM   19  O1  UNL     1     -63.904  91.595 101.035  1.00  0.00    -0.227 OA
ATOM     20  H2  UNL     1     -62.086  93.384  98.993  1.00  0.00     0.192 HD
BRANCH  18  21
HETATM   21  N1  UNL     1     -62.492  93.925 100.973  1.00  0.00    -0.340 N 
ATOM     22  H12 UNL     1     -63.320  94.043 101.557  1.00  0.00     0.177 HD
ATOM     23  H11 UNL     1     -61.614  94.394 101.198  1.00  0.00     0.177 HD
ENDBRANCH  18  21
ENDBRANCH  13  16
ENDBRANCH   1  12
BRANCH   8  24
HETATM   24  O3  UNL     1     -68.125  90.979  94.059  1.00  0.00    -0.276 OA
ATOM     25  H3  UNL     1     -68.502  91.491  94.765  1.00  0.00     0.245 HD
ENDBRANCH   8  24
BRANCH  10  26
HETATM   26  N8  UNL     1     -64.625  92.157  93.112  1.00  0.00    -0.331 N 
ATOM     27  H82 UNL     1     -64.877  91.993  92.138  1.00  0.00     0.177 HD
ATOM     28  H81 UNL     1     -63.730  92.585  93.351  1.00  0.00     0.177 HD
ENDBRANCH  10  26
TORSDOF 5
ENDMDL
MODEL 2
REMARK VINA RESULT: -6.591704890      2.733      7.330
REMARK  5 active torsions:
REMARK  status: ('A' for Active; 'I' for Inactive)
REMARK    1  A    between atoms: N1_1  and  N2_4 
REMARK       I    between atoms: N2_4  and  C1_6 
REMARK       I    between atoms: C1_6  and  N3_8 
REMARK    2  A    between atoms: N3_8  and  N4_9 
REMARK       I    between atoms: N4_9  and  C2_11 
REMARK    3  A    between atoms: C2_11  and  C3_13 
REMARK       I    between atoms: N5_18  and  C8_19 
REMARK       I    between atoms: C8_19  and  N7_24 
REMARK    4  A    between atoms: N6_20  and  O3_22 
REMARK    5  A    between atoms: N7_24  and  N8_26 
ROOT
HETATM    1  C3  UNL     1     -62.877  89.618 101.057  1.00  0.00     0.197 C 
HETATM    2  C4  UNL     1     -61.726  88.635 100.866  1.00  0.00     0.036 C 
HETATM    3  C5  UNL     1     -61.057  88.386 102.180  1.00  0.00     0.004 C 
HETATM    4  C6  UNL     1     -60.597  89.671 102.818  1.00  0.00     0.020 C 
HETATM    5  C7  UNL     1     -61.853  90.465 103.120  1.00  0.00     0.142 C 
HETATM    6  N5  UNL     1     -62.430  90.737 101.785  1.00  0.00    -0.201 N 
HETATM    7  C8  UNL     1     -62.478  92.108 101.435  1.00  0.00     0.714 C 
HETATM    8  N6  UNL     1     -61.402  92.684 101.068  1.00  0.00    -0.097 N 
ATOM      9  H6  UNL     1     -60.540  92.140 101.034  1.00  0.00     0.213 HD
HETATM   10  N7  UNL     1     -63.679  92.844 101.507  1.00  0.00    -0.137 N 
ATOM     11  H7  UNL     1     -64.013  93.344 100.683  1.00  0.00     0.205 HD
ENDROOT
BRANCH   1  12
HETATM   12  C2  UNL     1     -63.459  89.920  99.707  1.00  0.00     0.270 C 
HETATM   13  N4  UNL     1     -63.011  89.119  98.631  1.00  0.00    -0.196 N 
ATOM     14  H4  UNL     1     -62.339  88.396  98.886  1.00  0.00     0.205 HD
HETATM   15  O2  UNL     1     -64.276  90.815  99.560  1.00  0.00    -0.269 OA
BRANCH  13  16
HETATM   16  N3  UNL     1     -63.328  89.158  97.329  1.00  0.00    -0.261 NA
HETATM   17  C1  UNL     1     -63.646  89.199  96.028  1.00  0.00     0.430 C 
HETATM   18  N2  UNL     1     -63.244  88.043  95.226  1.00  0.00    -0.245 N 
HETATM   19  O1  UNL     1     -64.273  90.143  95.415  1.00  0.00    -0.227 OA
ATOM     20  H2  UNL     1     -62.747  87.264  95.658  1.00  0.00     0.192 HD
BRANCH  18  21
HETATM   21  N1  UNL     1     -63.544  88.016  93.876  1.00  0.00    -0.340 N 
ATOM     22  H12 UNL     1     -62.981  88.567  93.228  1.00  0.00     0.177 HD
ATOM     23  H11 UNL     1     -64.323  87.445  93.547  1.00  0.00     0.177 HD
ENDBRANCH  18  21
ENDBRANCH  13  16
ENDBRANCH   1  12
BRANCH   8  24
HETATM   24  O3  UNL     1     -61.361  94.006 100.718  1.00  0.00    -0.276 OA
ATOM     25  H3  UNL     1     -60.946  94.309  99.920  1.00  0.00     0.245 HD
ENDBRANCH   8  24
BRANCH  10  26
HETATM   26  N8  UNL     1     -64.423  92.897 102.700  1.00  0.00    -0.331 N 
ATOM     27  H82 UNL     1     -64.158  92.280 103.468  1.00  0.00     0.177 HD
ATOM     28  H81 UNL     1     -65.211  93.538 102.798  1.00  0.00     0.177 HD
ENDBRANCH  10  26
TORSDOF 5
ENDMDL
MODEL 3
REMARK VINA RESULT: -6.585370448      1.014      1.063
REMARK  5 active torsions:
REMARK  status: ('A' for Active; 'I' for Inactive)
REMARK    1  A    between atoms: N1_1  and  N2_4 
REMARK       I    between atoms: N2_4  and  C1_6 
REMARK       I    between atoms: C1_6  and  N3_8 
REMARK    2  A    between atoms: N3_8  and  N4_9 
REMARK       I    between atoms: N4_9  and  C2_11 
REMARK    3  A    between atoms: C2_11  and  C3_13 
REMARK       I    between atoms: N5_18  and  C8_19 
REMARK       I    between atoms: C8_19  and  N7_24 
REMARK    4  A    between atoms: N6_20  and  O3_22 
REMARK    5  A    between atoms: N7_24  and  N8_26 
ROOT
HETATM    1  C3  UNL     1     -64.131  89.158  95.603  1.00  0.00     0.197 C 
HETATM    2  C4  UNL     1     -64.288  87.677  95.933  1.00  0.00     0.036 C 
HETATM    3  C5  UNL     1     -64.065  86.862  94.699  1.00  0.00     0.004 C 
HETATM    4  C6  UNL     1     -64.981  87.289  93.582  1.00  0.00     0.020 C 
HETATM    5  C7  UNL     1     -64.588  88.711  93.234  1.00  0.00     0.142 C 
HETATM    6  N5  UNL     1     -64.894  89.475  94.463  1.00  0.00    -0.201 N 
HETATM    7  C8  UNL     1     -65.908  90.451  94.310  1.00  0.00     0.714 C 
HETATM    8  N6  UNL     1     -67.124  90.069  94.265  1.00  0.00    -0.097 N 
ATOM      9  H6  UNL     1     -67.329  89.073  94.345  1.00  0.00     0.213 HD
HETATM   10  N7  UNL     1     -65.597  91.821  94.185  1.00  0.00    -0.137 N 
ATOM     11  H7  UNL     1     -66.022  92.494  94.824  1.00  0.00     0.205 HD
ENDROOT
BRANCH   1  12
HETATM   12  C2  UNL     1     -64.459  89.946  96.836  1.00  0.00     0.270 C 
HETATM   13  N4  UNL     1     -63.384  90.240  97.706  1.00  0.00    -0.196 N 
ATOM     14  H4  UNL     1     -62.476  89.896  97.395  1.00  0.00     0.205 HD
HETATM   15  O2  UNL     1     -65.603  90.309  97.065  1.00  0.00    -0.269 OA
BRANCH  13  16
HETATM   16  N3  UNL     1     -63.366  90.900  98.873  1.00  0.00    -0.261 NA
HETATM   17  C1  UNL     1     -63.347  91.561 100.038  1.00  0.00     0.430 C 
HETATM   18  N2  UNL     1     -63.545  90.756 101.243  1.00  0.00    -0.245 N 
HETATM   19  O1  UNL     1     -63.166  92.825 100.206  1.00  0.00    -0.227 OA
ATOM     20  H2  UNL     1     -63.691  89.748 101.172  1.00  0.00     0.192 HD
BRANCH  18  21
HETATM   21  N1  UNL     1     -63.533  91.372 102.482  1.00  0.00    -0.340 N 
ATOM     22  H12 UNL     1     -63.144  92.310 102.569  1.00  0.00     0.177 HD
ATOM     23  H11 UNL     1     -63.914  90.879 103.291  1.00  0.00     0.177 HD
ENDBRANCH  18  21
ENDBRANCH  13  16
ENDBRANCH   1  12
BRANCH   8  24
HETATM   24  O3  UNL     1     -68.162  90.947  94.114  1.00  0.00    -0.276 OA
ATOM     25  H3  UNL     1     -68.455  91.514  94.817  1.00  0.00     0.245 HD
ENDBRANCH   8  24
BRANCH  10  26
HETATM   26  N8  UNL     1     -64.708  92.272  93.192  1.00  0.00    -0.331 N 
ATOM     27  H82 UNL     1     -65.091  92.585  92.300  1.00  0.00     0.177 HD
ATOM     28  H81 UNL     1     -63.702  92.286  93.358  1.00  0.00     0.177 HD
ENDBRANCH  10  26
TORSDOF 5
ENDMDL
MODEL 4
REMARK VINA RESULT: -6.549520751      2.702      7.280
REMARK  5 active torsions:
REMARK  status: ('A' for Active; 'I' for Inactive)
REMARK    1  A    between atoms: N1_1  and  N2_4 
REMARK       I    between atoms: N2_4  and  C1_6 
REMARK       I    between atoms: C1_6  and  N3_8 
REMARK    2  A    between atoms: N3_8  and  N4_9 
REMARK       I    between atoms: N4_9  and  C2_11 
REMARK    3  A    between atoms: C2_11  and  C3_13 
REMARK       I    between atoms: N5_18  and  C8_19 
REMARK       I    between atoms: C8_19  and  N7_24 
REMARK    4  A    between atoms: N6_20  and  O3_22 
REMARK    5  A    between atoms: N7_24  and  N8_26 
ROOT
HETATM    1  C3  UNL     1     -62.682  89.717 100.971  1.00  0.00     0.197 C 
HETATM    2  C4  UNL     1     -61.417  88.930 100.640  1.00  0.00     0.036 C 
HETATM    3  C5  UNL     1     -60.547  88.846 101.854  1.00  0.00     0.004 C 
HETATM    4  C6  UNL     1     -60.231  90.212 102.402  1.00  0.00     0.020 C 
HETATM    5  C7  UNL     1     -61.551  90.799 102.861  1.00  0.00     0.142 C 
HETATM    6  N5  UNL     1     -62.337  90.921 101.614  1.00  0.00    -0.201 N 
HETATM    7  C8  UNL     1     -62.661  92.251 101.253  1.00  0.00     0.714 C 
HETATM    8  N6  UNL     1     -61.756  92.982 100.733  1.00  0.00    -0.097 N 
ATOM      9  H6  UNL     1     -60.827  92.587 100.589  1.00  0.00     0.213 HD
HETATM   10  N7  UNL     1     -63.949  92.781 101.477  1.00  0.00    -0.137 N 
ATOM     11  H7  UNL     1     -64.469  93.187 100.699  1.00  0.00     0.205 HD
ENDROOT
BRANCH   1  12
HETATM   12  C2  UNL     1     -63.480  89.867  99.709  1.00  0.00     0.270 C 
HETATM   13  N4  UNL     1     -63.252  88.905  98.698  1.00  0.00    -0.196 N 
ATOM     14  H4  UNL     1     -62.569  88.186  98.937  1.00  0.00     0.205 HD
HETATM   15  O2  UNL     1     -64.281  90.778  99.576  1.00  0.00    -0.269 OA
BRANCH  13  16
HETATM   16  N3  UNL     1     -63.789  88.787  97.475  1.00  0.00    -0.261 NA
HETATM   17  C1  UNL     1     -64.325  88.669  96.253  1.00  0.00     0.430 C 
HETATM   18  N2  UNL     1     -65.693  88.155  96.191  1.00  0.00    -0.245 N 
HETATM   19  O1  UNL     1     -63.764  88.968  95.132  1.00  0.00    -0.227 OA
ATOM     20  H2  UNL     1     -66.188  87.904  97.047  1.00  0.00     0.192 HD
BRANCH  18  21
HETATM   21  N1  UNL     1     -66.310  88.012  94.961  1.00  0.00    -0.340 N 
ATOM     22  H12 UNL     1     -67.329  88.009  94.911  1.00  0.00     0.177 HD
ATOM     23  H11 UNL     1     -65.738  87.911  94.122  1.00  0.00     0.177 HD
ENDBRANCH  18  21
ENDBRANCH  13  16
ENDBRANCH   1  12
BRANCH   8  24
HETATM   24  O3  UNL     1     -61.985  94.279 100.360  1.00  0.00    -0.276 OA
ATOM     25  H3  UNL     1     -61.311  94.947 100.401  1.00  0.00     0.245 HD
ENDBRANCH   8  24
BRANCH  10  26
HETATM   26  N8  UNL     1     -64.527  92.756 102.760  1.00  0.00    -0.331 N 
ATOM     27  H82 UNL     1     -63.985  93.115 103.546  1.00  0.00     0.177 HD
ATOM     28  H81 UNL     1     -65.468  92.388 102.904  1.00  0.00     0.177 HD
ENDBRANCH  10  26
TORSDOF 5
ENDMDL
MODEL 5
REMARK VINA RESULT: -6.475122874      2.975      4.018
REMARK  5 active torsions:
REMARK  status: ('A' for Active; 'I' for Inactive)
REMARK    1  A    between atoms: N1_1  and  N2_4 
REMARK       I    between atoms: N2_4  and  C1_6 
REMARK       I    between atoms: C1_6  and  N3_8 
REMARK    2  A    between atoms: N3_8  and  N4_9 
REMARK       I    between atoms: N4_9  and  C2_11 
REMARK    3  A    between atoms: C2_11  and  C3_13 
REMARK       I    between atoms: N5_18  and  C8_19 
REMARK       I    between atoms: C8_19  and  N7_24 
REMARK    4  A    between atoms: N6_20  and  O3_22 
REMARK    5  A    between atoms: N7_24  and  N8_26 
ROOT
HETATM    1  C3  UNL     1     -65.628  88.868  96.538  1.00  0.00     0.197 C 
HETATM    2  C4  UNL     1     -65.729  90.389  96.619  1.00  0.00     0.036 C 
HETATM    3  C5  UNL     1     -66.787  90.871  95.679  1.00  0.00     0.004 C 
HETATM    4  C6  UNL     1     -66.531  90.401  94.271  1.00  0.00     0.020 C 
HETATM    5  C7  UNL     1     -66.644  88.889  94.304  1.00  0.00     0.142 C 
HETATM    6  N5  UNL     1     -65.536  88.470  95.191  1.00  0.00    -0.201 N 
HETATM    7  C8  UNL     1     -64.539  87.692  94.555  1.00  0.00     0.714 C 
HETATM    8  N6  UNL     1     -63.693  88.276  93.803  1.00  0.00    -0.097 N 
ATOM      9  H6  UNL     1     -63.757  89.287  93.684  1.00  0.00     0.213 HD
HETATM   10  N7  UNL     1     -64.482  86.292  94.722  1.00  0.00    -0.137 N 
ATOM     11  H7  UNL     1     -63.618  85.859  95.050  1.00  0.00     0.205 HD
ENDROOT
BRANCH   1  12
HETATM   12  C2  UNL     1     -64.493  88.431  97.417  1.00  0.00     0.270 C 
HETATM   13  N4  UNL     1     -63.859  89.437  98.181  1.00  0.00    -0.196 N 
ATOM     14  H4  UNL     1     -64.253  90.372  98.069  1.00  0.00     0.205 HD
HETATM   15  O2  UNL     1     -64.145  87.261  97.459  1.00  0.00    -0.269 OA
BRANCH  13  16
HETATM   16  N3  UNL     1     -62.824  89.361  99.030  1.00  0.00    -0.261 NA
HETATM   17  C1  UNL     1     -61.790  89.286  99.877  1.00  0.00     0.430 C 
HETATM   18  N2  UNL     1     -61.827  88.197 100.853  1.00  0.00    -0.245 N 
HETATM   19  O1  UNL     1     -60.765  90.067  99.916  1.00  0.00    -0.227 OA
ATOM     20  H2  UNL     1     -62.613  87.546 100.868  1.00  0.00     0.192 HD
BRANCH  18  21
HETATM   21  N1  UNL     1     -60.789  88.057 101.756  1.00  0.00    -0.340 N 
ATOM     22  H12 UNL     1     -60.887  88.446 102.694  1.00  0.00     0.177 HD
ATOM     23  H11 UNL     1     -59.940  87.568 101.472  1.00  0.00     0.177 HD
ENDBRANCH  18  21
ENDBRANCH  13  16
ENDBRANCH   1  12
BRANCH   8  24
HETATM   24  O3  UNL     1     -62.702  87.597  93.148  1.00  0.00    -0.276 OA
ATOM     25  H3  UNL     1     -61.880  87.370  93.566  1.00  0.00     0.245 HD
ENDBRANCH   8  24
BRANCH  10  26
HETATM   26  N8  UNL     1     -65.600  85.485  94.442  1.00  0.00    -0.331 N 
ATOM     27  H82 UNL     1     -65.906  85.394  93.473  1.00  0.00     0.177 HD
ATOM     28  H81 UNL     1     -66.097  85.001  95.190  1.00  0.00     0.177 HD
ENDBRANCH  10  26
TORSDOF 5
ENDMDL
