MODEL 1
REMARK VINA RESULT: -6.962494396      0.000      0.000
REMARK  2 active torsions:
REMARK  status: ('A' for Active; 'I' for Inactive)
REMARK       I    between atoms: C1_4  and  N3_6 
REMARK    1  A    between atoms: N3_6  and  N4_8 
REMARK    2  A    between atoms: C2_10  and  N5_11 
ROOT
HETATM    1  N5  UNL     1     -63.403  88.429  98.589  1.00  0.00    -0.341 N 
ATOM      2  H5  UNL     1     -63.351  87.511  99.031  1.00  0.00     0.167 HD
HETATM    3  C3  UNL     1     -62.777  89.400  99.176  1.00  0.00     0.079 C 
HETATM    4  C4  UNL     1     -62.070  88.982 100.438  1.00  0.00     0.103 C 
HETATM    5  C5  UNL     1     -60.845  89.798 100.700  1.00  0.00     0.239 C 
HETATM    6  N6  UNL     1     -59.929  89.102 101.555  1.00  0.00    -0.073 N 
ATOM      7  H61 UNL     1     -58.986  89.476 101.446  1.00  0.00     0.277 HD
ATOM      8  H62 UNL     1     -59.781  88.151 101.217  1.00  0.00     0.277 HD
HETATM    9  C6  UNL     1     -60.303  89.087 102.942  1.00  0.00     0.259 C 
HETATM   10  C7  UNL     1     -60.624  90.445 103.498  1.00  0.00     0.259 C 
HETATM   11  N7  UNL     1     -62.051  90.666 103.653  1.00  0.00    -0.072 N 
ATOM     12  H71 UNL     1     -62.405  90.210 104.494  1.00  0.00     0.277 HD
ATOM     13  H72 UNL     1     -62.583  90.149 102.952  1.00  0.00     0.277 HD
HETATM   14  C8  UNL     1     -62.388  92.058 103.637  1.00  0.00     0.259 C 
HETATM   15  C9  UNL     1     -63.677  92.220 102.856  1.00  0.00     0.259 C 
HETATM   16  N8  UNL     1     -63.329  92.722 101.538  1.00  0.00    -0.072 N 
ATOM     17  H81 UNL     1     -62.319  92.806 101.423  1.00  0.00     0.277 HD
ATOM     18  H82 UNL     1     -63.580  93.705 101.433  1.00  0.00     0.277 HD
HETATM   19  C10 UNL     1     -63.921  91.904 100.488  1.00  0.00     0.251 C 
HETATM   20  C11 UNL     1     -63.015  91.936  99.310  1.00  0.00     0.148 C 
HETATM   21  N9  UNL     1     -62.786  90.701  98.649  1.00  0.00    -0.378 N 
ATOM     22  H9  UNL     1     -62.600  90.769  97.648  1.00  0.00     0.160 HD
ENDROOT
BRANCH   1  23
HETATM   23  C2  UNL     1     -64.147  88.523  97.398  1.00  0.00     0.198 C 
HETATM   24  N4  UNL     1     -64.314  87.558  96.572  1.00  0.00    -0.294 N 
ATOM     25  H4  UNL     1     -63.895  86.646  96.756  1.00  0.00     0.187 HD
BRANCH  24  26
HETATM   26  N3  UNL     1     -65.070  87.763  95.426  1.00  0.00    -0.273 N 
HETATM   27  C1  UNL     1     -64.740  87.011  94.262  1.00  0.00     0.200 C 
HETATM   28  N1  UNL     1     -65.257  85.848  94.145  1.00  0.00    -0.372 N 
HETATM   29  N2  UNL     1     -63.877  87.491  93.245  1.00  0.00    -0.062 NA
ATOM     30  H12 UNL     1     -65.021  85.310  93.312  1.00  0.00     0.158 HD
ATOM     31  H11 UNL     1     -65.878  85.503  94.877  1.00  0.00     0.158 HD
ATOM     32  H3  UNL     1     -65.838  88.433  95.417  1.00  0.00     0.189 HD
ENDBRANCH  24  26
ENDBRANCH   1  23
TORSDOF 2
ENDMDL
MODEL 2
REMARK VINA RESULT: -6.757489218      1.807      1.851
REMARK  2 active torsions:
REMARK  status: ('A' for Active; 'I' for Inactive)
REMARK       I    between atoms: C1_4  and  N3_6 
REMARK    1  A    between atoms: N3_6  and  N4_8 
REMARK    2  A    between atoms: C2_10  and  N5_11 
ROOT
HETATM    1  N5  UNL     1     -63.019  89.217  98.275  1.00  0.00    -0.341 N 
ATOM      2  H5  UNL     1     -63.190  88.212  98.312  1.00  0.00     0.167 HD
HETATM    3  C3  UNL     1     -62.450  89.755  99.308  1.00  0.00     0.079 C 
HETATM    4  C4  UNL     1     -62.139  88.768 100.403  1.00  0.00     0.103 C 
HETATM    5  C5  UNL     1     -60.931  89.159 101.193  1.00  0.00     0.239 C 
HETATM    6  N6  UNL     1     -60.351  88.024 101.850  1.00  0.00    -0.073 N 
ATOM      7  H61 UNL     1     -59.373  88.207 102.077  1.00  0.00     0.277 HD
ATOM      8  H62 UNL     1     -60.237  87.253 101.192  1.00  0.00     0.277 HD
HETATM    9  C6  UNL     1     -61.061  87.584 103.018  1.00  0.00     0.259 C 
HETATM   10  C7  UNL     1     -61.348  88.681 104.003  1.00  0.00     0.259 C 
HETATM   11  N7  UNL     1     -62.731  89.122 103.966  1.00  0.00    -0.072 N 
ATOM     12  H71 UNL     1     -63.337  88.476 104.470  1.00  0.00     0.277 HD
ATOM     13  H72 UNL     1     -63.126  89.019 103.031  1.00  0.00     0.277 HD
HETATM   14  C8  UNL     1     -62.885  90.462 104.449  1.00  0.00     0.259 C 
HETATM   15  C9  UNL     1     -63.906  91.162 103.575  1.00  0.00     0.259 C 
HETATM   16  N8  UNL     1     -63.180  92.025 102.660  1.00  0.00    -0.072 N 
ATOM     17  H81 UNL     1     -62.171  91.933 102.778  1.00  0.00     0.277 HD
ATOM     18  H82 UNL     1     -63.277  93.008 102.914  1.00  0.00     0.277 HD
HETATM   19  C10 UNL     1     -63.581  91.788 101.279  1.00  0.00     0.251 C 
HETATM   20  C11 UNL     1     -62.410  92.058 100.405  1.00  0.00     0.148 C 
HETATM   21  N9  UNL     1     -62.170  91.129  99.357  1.00  0.00    -0.378 N 
ATOM     22  H9  UNL     1     -61.732  91.517  98.521  1.00  0.00     0.160 HD
ENDROOT
BRANCH   1  23
HETATM   23  C2  UNL     1     -63.422  89.891  97.107  1.00  0.00     0.198 C 
HETATM   24  N4  UNL     1     -64.640  90.008  96.726  1.00  0.00    -0.294 N 
ATOM     25  H4  UNL     1     -65.394  89.600  97.278  1.00  0.00     0.187 HD
BRANCH  24  26
HETATM   26  N3  UNL     1     -64.924  90.696  95.553  1.00  0.00    -0.273 N 
HETATM   27  C1  UNL     1     -65.146  89.938  94.368  1.00  0.00     0.200 C 
HETATM   28  N1  UNL     1     -66.330  89.506  94.158  1.00  0.00    -0.372 N 
HETATM   29  N2  UNL     1     -64.126  89.648  93.428  1.00  0.00    -0.062 NA
ATOM     30  H12 UNL     1     -66.489  88.963  93.309  1.00  0.00     0.158 HD
ATOM     31  H11 UNL     1     -67.064  89.715  94.835  1.00  0.00     0.158 HD
ATOM     32  H3  UNL     1     -64.972  91.715  95.541  1.00  0.00     0.189 HD
ENDBRANCH  24  26
ENDBRANCH   1  23
TORSDOF 2
ENDMDL
MODEL 3
REMARK VINA RESULT: -6.586370687      0.816      1.071
REMARK  2 active torsions:
REMARK  status: ('A' for Active; 'I' for Inactive)
REMARK       I    between atoms: C1_4  and  N3_6 
REMARK    1  A    between atoms: N3_6  and  N4_8 
REMARK    2  A    between atoms: C2_10  and  N5_11 
ROOT
HETATM    1  N5  UNL     1     -63.220  88.773  98.604  1.00  0.00    -0.341 N 
ATOM      2  H5  UNL     1     -63.165  87.816  98.954  1.00  0.00     0.167 HD
HETATM    3  C3  UNL     1     -62.596  89.683  99.282  1.00  0.00     0.079 C 
HETATM    4  C4  UNL     1     -61.885  89.146 100.496  1.00  0.00     0.103 C 
HETATM    5  C5  UNL     1     -60.662  89.936 100.835  1.00  0.00     0.239 C 
HETATM    6  N6  UNL     1     -59.743  89.162 101.616  1.00  0.00    -0.073 N 
ATOM      7  H61 UNL     1     -58.801  89.547 101.543  1.00  0.00     0.277 HD
ATOM      8  H62 UNL     1     -59.592  88.249 101.187  1.00  0.00     0.277 HD
HETATM    9  C6  UNL     1     -60.114  89.010 102.996  1.00  0.00     0.259 C 
HETATM   10  C7  UNL     1     -60.437  90.306 103.683  1.00  0.00     0.259 C 
HETATM   11  N7  UNL     1     -61.864  90.506 103.861  1.00  0.00    -0.072 N 
ATOM     12  H71 UNL     1     -62.215  89.969 104.653  1.00  0.00     0.277 HD
ATOM     13  H72 UNL     1     -62.396  90.059 103.114  1.00  0.00     0.277 HD
HETATM   14  C8  UNL     1     -62.206  91.893 103.982  1.00  0.00     0.259 C 
HETATM   15  C9  UNL     1     -63.496  92.126 103.223  1.00  0.00     0.259 C 
HETATM   16  N8  UNL     1     -63.152  92.756 101.960  1.00  0.00    -0.072 N 
ATOM     17  H81 UNL     1     -62.143  92.854 101.852  1.00  0.00     0.277 HD
ATOM     18  H82 UNL     1     -63.407  93.744 101.952  1.00  0.00     0.277 HD
HETATM   19  C10 UNL     1     -63.744  92.043 100.836  1.00  0.00     0.251 C 
HETATM   20  C11 UNL     1     -62.840  92.194  99.665  1.00  0.00     0.148 C 
HETATM   21  N9  UNL     1     -62.609  91.030  98.885  1.00  0.00    -0.378 N 
ATOM     22  H9  UNL     1     -62.426  91.196  97.896  1.00  0.00     0.160 HD
ENDROOT
BRANCH   1  23
HETATM   23  C2  UNL     1     -63.967  88.981  97.430  1.00  0.00     0.198 C 
HETATM   24  N4  UNL     1     -63.665  88.490  96.285  1.00  0.00    -0.294 N 
ATOM     25  H4  UNL     1     -62.836  87.906  96.179  1.00  0.00     0.187 HD
BRANCH  24  26
HETATM   26  N3  UNL     1     -64.476  88.762  95.191  1.00  0.00    -0.273 N 
HETATM   27  C1  UNL     1     -65.664  87.992  95.030  1.00  0.00     0.200 C 
HETATM   28  N1  UNL     1     -66.711  88.389  95.644  1.00  0.00    -0.372 N 
HETATM   29  N2  UNL     1     -65.730  86.824  94.230  1.00  0.00    -0.062 NA
ATOM     30  H12 UNL     1     -67.561  87.838  95.528  1.00  0.00     0.158 HD
ATOM     31  H11 UNL     1     -66.663  89.229  96.219  1.00  0.00     0.158 HD
ATOM     32  H3  UNL     1     -64.228  89.491  94.523  1.00  0.00     0.189 HD
ENDBRANCH  24  26
ENDBRANCH   1  23
TORSDOF 2
ENDMDL
MODEL 4
REMARK VINA RESULT: -6.534617847      1.450      3.277
REMARK  2 active torsions:
REMARK  status: ('A' for Active; 'I' for Inactive)
REMARK       I    between atoms: C1_4  and  N3_6 
REMARK    1  A    between atoms: N3_6  and  N4_8 
REMARK    2  A    between atoms: C2_10  and  N5_11 
ROOT
HETATM    1  N5  UNL     1     -63.461  90.888  97.933  1.00  0.00    -0.341 N 
ATOM      2  H5  UNL     1     -63.508  91.843  97.579  1.00  0.00     0.167 HD
HETATM    3  C3  UNL     1     -63.330  90.741  99.213  1.00  0.00     0.079 C 
HETATM    4  C4  UNL     1     -63.269  92.045  99.964  1.00  0.00     0.103 C 
HETATM    5  C5  UNL     1     -63.829  91.933 101.346  1.00  0.00     0.239 C 
HETATM    6  N6  UNL     1     -64.240  93.212 101.845  1.00  0.00    -0.073 N 
ATOM      7  H61 UNL     1     -64.921  93.099 102.595  1.00  0.00     0.277 HD
ATOM      8  H62 UNL     1     -64.817  93.694 101.156  1.00  0.00     0.277 HD
HETATM    9  C6  UNL     1     -63.162  94.059 102.273  1.00  0.00     0.259 C 
HETATM   10  C7  UNL     1     -62.211  93.394 103.228  1.00  0.00     0.259 C 
HETATM   11  N7  UNL     1     -60.963  93.003 102.597  1.00  0.00    -0.072 N 
ATOM     12  H71 UNL     1     -60.338  93.802 102.492  1.00  0.00     0.277 HD
ATOM     13  H72 UNL     1     -61.103  92.775 101.613  1.00  0.00     0.277 HD
HETATM   14  C8  UNL     1     -60.318  91.929 103.292  1.00  0.00     0.259 C 
HETATM   15  C9  UNL     1     -59.730  90.988 102.259  1.00  0.00     0.259 C 
HETATM   16  N8  UNL     1     -60.610  89.837 102.164  1.00  0.00    -0.072 N 
ATOM     17  H81 UNL     1     -61.429  89.940 102.764  1.00  0.00     0.277 HD
ATOM     18  H82 UNL     1     -60.199  89.013 102.602  1.00  0.00     0.277 HD
HETATM   19  C10 UNL     1     -60.989  89.576 100.782  1.00  0.00     0.251 C 
HETATM   20  C11 UNL     1     -62.352  88.982 100.780  1.00  0.00     0.148 C 
HETATM   21  N9  UNL     1     -63.258  89.468  99.801  1.00  0.00    -0.378 N 
ATOM     22  H9  UNL     1     -63.955  88.797  99.478  1.00  0.00     0.160 HD
ENDROOT
BRANCH   1  23
HETATM   23  C2  UNL     1     -63.545  89.851  96.984  1.00  0.00     0.198 C 
HETATM   24  N4  UNL     1     -63.971  90.002  95.785  1.00  0.00    -0.294 N 
ATOM     25  H4  UNL     1     -64.278  90.919  95.460  1.00  0.00     0.187 HD
BRANCH  24  26
HETATM   26  N3  UNL     1     -64.010  88.907  94.932  1.00  0.00    -0.273 N 
HETATM   27  C1  UNL     1     -64.724  87.750  95.360  1.00  0.00     0.200 C 
HETATM   28  N1  UNL     1     -65.980  87.715  95.129  1.00  0.00    -0.372 N 
HETATM   29  N2  UNL     1     -64.109  86.656  96.018  1.00  0.00    -0.062 NA
ATOM     30  H12 UNL     1     -66.491  86.886  95.435  1.00  0.00     0.158 HD
ATOM     31  H11 UNL     1     -66.423  88.502  94.656  1.00  0.00     0.158 HD
ATOM     32  H3  UNL     1     -63.542  88.930  94.027  1.00  0.00     0.189 HD
ENDBRANCH  24  26
ENDBRANCH   1  23
TORSDOF 2
ENDMDL
MODEL 5
REMARK VINA RESULT: -6.509211235      1.541      3.268
REMARK  2 active torsions:
REMARK  status: ('A' for Active; 'I' for Inactive)
REMARK       I    between atoms: C1_4  and  N3_6 
REMARK    1  A    between atoms: N3_6  and  N4_8 
REMARK    2  A    between atoms: C2_10  and  N5_11 
ROOT
HETATM    1  N5  UNL     1     -63.625  90.534  98.068  1.00  0.00    -0.341 N 
ATOM      2  H5  UNL     1     -63.480  91.395  97.541  1.00  0.00     0.167 HD
HETATM    3  C3  UNL     1     -63.402  90.581  99.343  1.00  0.00     0.079 C 
HETATM    4  C4  UNL     1     -62.958  91.937  99.825  1.00  0.00     0.103 C 
HETATM    5  C5  UNL     1     -63.384  92.208 101.233  1.00  0.00     0.239 C 
HETATM    6  N6  UNL     1     -63.427  93.616 101.500  1.00  0.00    -0.073 N 
ATOM      7  H61 UNL     1     -64.036  93.807 102.296  1.00  0.00     0.277 HD
ATOM      8  H62 UNL     1     -63.942  94.101 100.766  1.00  0.00     0.277 HD
HETATM    9  C6  UNL     1     -62.141  94.224 101.697  1.00  0.00     0.259 C 
HETATM   10  C7  UNL     1     -61.283  93.516 102.706  1.00  0.00     0.259 C 
HETATM   11  N7  UNL     1     -60.233  92.722 102.091  1.00  0.00    -0.072 N 
ATOM     12  H71 UNL     1     -59.451  93.308 101.799  1.00  0.00     0.277 HD
ATOM     13  H72 UNL     1     -60.523  92.371 101.178  1.00  0.00     0.277 HD
HETATM   14  C8  UNL     1     -59.793  91.656 102.941  1.00  0.00     0.259 C 
HETATM   15  C9  UNL     1     -59.553  90.435 102.075  1.00  0.00     0.259 C 
HETATM   16  N8  UNL     1     -60.686  89.543 102.253  1.00  0.00    -0.072 N 
ATOM     17  H81 UNL     1     -61.391  89.950 102.867  1.00  0.00     0.277 HD
ATOM     18  H82 UNL     1     -60.438  88.730 102.816  1.00  0.00     0.277 HD
HETATM   19  C10 UNL     1     -61.255  89.152 100.970  1.00  0.00     0.251 C 
HETATM   20  C11 UNL     1     -62.712  88.929 101.160  1.00  0.00     0.148 C 
HETATM   21  N9  UNL     1     -63.572  89.451 100.158  1.00  0.00    -0.378 N 
ATOM     22  H9  UNL     1     -64.438  88.932 100.010  1.00  0.00     0.160 HD
ENDROOT
BRANCH   1  23
HETATM   23  C2  UNL     1     -64.048  89.405  97.342  1.00  0.00     0.198 C 
HETATM   24  N4  UNL     1     -63.414  88.909  96.344  1.00  0.00    -0.294 N 
ATOM     25  H4  UNL     1     -62.543  89.333  96.026  1.00  0.00     0.187 HD
BRANCH  24  26
HETATM   26  N3  UNL     1     -63.925  87.790  95.700  1.00  0.00    -0.273 N 
HETATM   27  C1  UNL     1     -64.987  87.979  94.769  1.00  0.00     0.200 C 
HETATM   28  N1  UNL     1     -64.670  88.272  93.566  1.00  0.00    -0.372 N 
HETATM   29  N2  UNL     1     -66.355  87.857  95.115  1.00  0.00    -0.062 NA
ATOM     30  H12 UNL     1     -65.430  88.406  92.899  1.00  0.00     0.158 HD
ATOM     31  H11 UNL     1     -63.685  88.359  93.317  1.00  0.00     0.158 HD
ATOM     32  H3  UNL     1     -63.551  86.860  95.888  1.00  0.00     0.189 HD
ENDBRANCH  24  26
ENDBRANCH   1  23
TORSDOF 2
ENDMDL
