MODEL 1
REMARK VINA RESULT: -7.690016428      0.000      0.000
REMARK  7 active torsions:
REMARK  status: ('A' for Active; 'I' for Inactive)
REMARK    1  A    between atoms: C1_2  and  C2_4 
REMARK       I    between atoms: C2_4  and  N2_6 
REMARK    2  A    between atoms: N2_6  and  N3_8 
REMARK    3  A    between atoms: N3_8  and  C3_10 
REMARK    4  A    between atoms: C3_10  and  N4_12 
REMARK    5  A    between atoms: N4_12  and  N5_14 
REMARK       I    between atoms: N5_14  and  C4_16 
REMARK    6  A    between atoms: C4_16  and  C5_18 
REMARK    7  A    between atoms: C5_18  and  N6_19 
ROOT
HETATM    1  N4  UNL     1      21.550  88.006  75.950  1.00  0.00    -0.272 N 
ATOM      2  H4  UNL     1      22.284  87.298  75.994  1.00  0.00     0.189 HD
ENDROOT
BRANCH   1   3
HETATM    3  C3  UNL     1      20.416  87.774  76.750  1.00  0.00     0.205 C 
HETATM    4  S1  UNL     1      20.666  87.136  78.272  1.00  0.00    -0.038 SA
BRANCH   3   5
HETATM    5  N3  UNL     1      19.071  88.027  76.390  1.00  0.00    -0.272 N 
ATOM      6  H3  UNL     1      18.457  88.559  77.008  1.00  0.00     0.189 HD
BRANCH   5   7
HETATM    7  N2  UNL     1      18.599  87.529  75.160  1.00  0.00    -0.260 N 
HETATM    8  C2  UNL     1      18.477  88.322  73.999  1.00  0.00     0.325 C 
HETATM    9  O2  UNL     1      18.800  89.528  74.034  1.00  0.00    -0.261 OA
ATOM     10  H2  UNL     1      18.332  86.546  75.106  1.00  0.00     0.190 HD
BRANCH   8  11
HETATM   11  C1  UNL     1      17.979  87.742  72.773  1.00  0.00     0.324 C 
HETATM   12  N1  UNL     1      18.788  87.183  71.765  1.00  0.00    -0.053 NA
HETATM   13  O1  UNL     1      16.712  87.738  72.601  1.00  0.00    -0.266 OA
ENDBRANCH   8  11
ENDBRANCH   5   7
ENDBRANCH   3   5
ENDBRANCH   1   3
BRANCH   1  14
HETATM   14  N5  UNL     1      21.790  89.081  75.112  1.00  0.00    -0.266 N 
HETATM   15  C4  UNL     1      22.157  88.919  73.782  1.00  0.00     0.272 C 
HETATM   16  O3  UNL     1      22.305  87.779  73.277  1.00  0.00    -0.269 OA
ATOM     17  H5  UNL     1      21.693  90.026  75.484  1.00  0.00     0.190 HD
BRANCH  15  18
HETATM   18  C5  UNL     1      22.404  90.076  72.850  1.00  0.00     0.205 A 
HETATM   19  C6  UNL     1      22.313  91.462  73.280  1.00  0.00     0.052 A 
HETATM   20  C7  UNL     1      23.676  90.833  73.239  1.00  0.00     0.052 A 
BRANCH  18  21
HETATM   21  N6  UNL     1      22.247  89.721  71.449  1.00  0.00    -0.061 N 
ATOM     22  H63 UNL     1      23.156  89.598  71.001  1.00  0.00     0.275 HD
ATOM     23  H62 UNL     1      21.884  88.773  71.352  1.00  0.00     0.275 HD
ATOM     24  H61 UNL     1      21.674  90.386  70.931  1.00  0.00     0.275 HD
ENDBRANCH  18  21
ENDBRANCH  15  18
ENDBRANCH   1  14
TORSDOF 7
ENDMDL
MODEL 2
REMARK VINA RESULT: -7.487013667      2.814      4.634
REMARK  7 active torsions:
REMARK  status: ('A' for Active; 'I' for Inactive)
REMARK    1  A    between atoms: C1_2  and  C2_4 
REMARK       I    between atoms: C2_4  and  N2_6 
REMARK    2  A    between atoms: N2_6  and  N3_8 
REMARK    3  A    between atoms: N3_8  and  C3_10 
REMARK    4  A    between atoms: C3_10  and  N4_12 
REMARK    5  A    between atoms: N4_12  and  N5_14 
REMARK       I    between atoms: N5_14  and  C4_16 
REMARK    6  A    between atoms: C4_16  and  C5_18 
REMARK    7  A    between atoms: C5_18  and  N6_19 
ROOT
HETATM    1  N4  UNL     1      21.431  88.716  75.192  1.00  0.00    -0.272 N 
ATOM      2  H4  UNL     1      21.388  89.735  75.150  1.00  0.00     0.189 HD
ENDROOT
BRANCH   1   3
HETATM    3  C3  UNL     1      21.083  88.031  74.014  1.00  0.00     0.205 C 
HETATM    4  S1  UNL     1      22.154  88.106  72.736  1.00  0.00    -0.038 SA
BRANCH   3   5
HETATM    5  N3  UNL     1      19.904  87.279  73.799  1.00  0.00    -0.272 N 
ATOM      6  H3  UNL     1      19.951  86.281  73.595  1.00  0.00     0.189 HD
BRANCH   5   7
HETATM    7  N2  UNL     1      18.662  87.940  73.873  1.00  0.00    -0.260 N 
HETATM    8  C2  UNL     1      17.862  88.215  72.743  1.00  0.00     0.325 C 
HETATM    9  O2  UNL     1      18.248  87.862  71.608  1.00  0.00    -0.261 OA
ATOM     10  H2  UNL     1      18.325  88.236  74.789  1.00  0.00     0.190 HD
BRANCH   8  11
HETATM   11  C1  UNL     1      16.602  88.904  72.896  1.00  0.00     0.324 C 
HETATM   12  N1  UNL     1      15.417  88.310  73.370  1.00  0.00    -0.053 NA
HETATM   13  O1  UNL     1      16.570  90.142  72.578  1.00  0.00    -0.266 OA
ENDBRANCH   8  11
ENDBRANCH   5   7
ENDBRANCH   3   5
ENDBRANCH   1   3
BRANCH   1  14
HETATM   14  N5  UNL     1      21.826  88.173  76.402  1.00  0.00    -0.266 N 
HETATM   15  C4  UNL     1      20.932  87.552  77.265  1.00  0.00     0.272 C 
HETATM   16  O3  UNL     1      19.710  87.466  76.992  1.00  0.00    -0.269 OA
ATOM     17  H5  UNL     1      22.809  88.231  76.669  1.00  0.00     0.190 HD
BRANCH  15  18
HETATM   18  C5  UNL     1      21.346  86.939  78.576  1.00  0.00     0.205 A 
HETATM   19  C6  UNL     1      20.521  85.974  79.287  1.00  0.00     0.052 A 
HETATM   20  C7  UNL     1      21.626  85.442  78.420  1.00  0.00     0.052 A 
BRANCH  18  21
HETATM   21  N6  UNL     1      22.342  87.727  79.283  1.00  0.00    -0.061 N 
ATOM     22  H63 UNL     1      22.712  87.214  80.084  1.00  0.00     0.275 HD
ATOM     23  H62 UNL     1      23.195  87.815  78.732  1.00  0.00     0.275 HD
ATOM     24  H61 UNL     1      21.997  88.644  79.568  1.00  0.00     0.275 HD
ENDBRANCH  18  21
ENDBRANCH  15  18
ENDBRANCH   1  14
TORSDOF 7
ENDMDL
MODEL 3
REMARK VINA RESULT: -7.410430708      2.521      4.389
REMARK  7 active torsions:
REMARK  status: ('A' for Active; 'I' for Inactive)
REMARK    1  A    between atoms: C1_2  and  C2_4 
REMARK       I    between atoms: C2_4  and  N2_6 
REMARK    2  A    between atoms: N2_6  and  N3_8 
REMARK    3  A    between atoms: N3_8  and  C3_10 
REMARK    4  A    between atoms: C3_10  and  N4_12 
REMARK    5  A    between atoms: N4_12  and  N5_14 
REMARK       I    between atoms: N5_14  and  C4_16 
REMARK    6  A    between atoms: C4_16  and  C5_18 
REMARK    7  A    between atoms: C5_18  and  N6_19 
ROOT
HETATM    1  N4  UNL     1      21.421  89.349  74.747  1.00  0.00    -0.272 N 
ATOM      2  H4  UNL     1      21.249  90.353  74.797  1.00  0.00     0.189 HD
ENDROOT
BRANCH   1   3
HETATM    3  C3  UNL     1      21.468  88.790  73.456  1.00  0.00     0.205 C 
HETATM    4  S1  UNL     1      22.962  88.680  72.720  1.00  0.00    -0.038 SA
BRANCH   3   5
HETATM    5  N3  UNL     1      20.366  88.310  72.710  1.00  0.00    -0.272 N 
ATOM      6  H3  UNL     1      20.476  87.535  72.057  1.00  0.00     0.189 HD
BRANCH   5   7
HETATM    7  N2  UNL     1      19.112  88.926  72.891  1.00  0.00    -0.260 N 
HETATM    8  C2  UNL     1      17.886  88.237  72.777  1.00  0.00     0.325 C 
HETATM    9  O2  UNL     1      17.882  87.018  72.506  1.00  0.00    -0.261 OA
ATOM     10  H2  UNL     1      19.090  89.921  73.115  1.00  0.00     0.190 HD
BRANCH   8  11
HETATM   11  C1  UNL     1      16.638  88.939  72.970  1.00  0.00     0.324 C 
HETATM   12  N1  UNL     1      15.487  88.379  73.555  1.00  0.00    -0.053 NA
HETATM   13  O1  UNL     1      16.585  90.155  72.580  1.00  0.00    -0.266 OA
ENDBRANCH   8  11
ENDBRANCH   5   7
ENDBRANCH   3   5
ENDBRANCH   1   3
BRANCH   1  14
HETATM   14  N5  UNL     1      21.581  88.698  75.957  1.00  0.00    -0.266 N 
HETATM   15  C4  UNL     1      20.810  87.599  76.318  1.00  0.00     0.272 C 
HETATM   16  O3  UNL     1      19.914  87.151  75.562  1.00  0.00    -0.269 OA
ATOM     17  H5  UNL     1      22.291  89.035  76.608  1.00  0.00     0.190 HD
BRANCH  15  18
HETATM   18  C5  UNL     1      20.982  86.866  77.622  1.00  0.00     0.205 A 
HETATM   19  C6  UNL     1      21.832  85.694  77.757  1.00  0.00     0.052 A 
HETATM   20  C7  UNL     1      22.408  87.022  78.157  1.00  0.00     0.052 A 
BRANCH  18  21
HETATM   21  N6  UNL     1      19.895  87.107  78.557  1.00  0.00    -0.061 N 
ATOM     22  H63 UNL     1      19.890  88.079  78.867  1.00  0.00     0.275 HD
ATOM     23  H62 UNL     1      18.993  87.077  78.083  1.00  0.00     0.275 HD
ATOM     24  H61 UNL     1      19.908  86.472  79.356  1.00  0.00     0.275 HD
ENDBRANCH  18  21
ENDBRANCH  15  18
ENDBRANCH   1  14
TORSDOF 7
ENDMDL
MODEL 4
REMARK VINA RESULT: -7.385119211      2.665      4.476
REMARK  7 active torsions:
REMARK  status: ('A' for Active; 'I' for Inactive)
REMARK    1  A    between atoms: C1_2  and  C2_4 
REMARK       I    between atoms: C2_4  and  N2_6 
REMARK    2  A    between atoms: N2_6  and  N3_8 
REMARK    3  A    between atoms: N3_8  and  C3_10 
REMARK    4  A    between atoms: C3_10  and  N4_12 
REMARK    5  A    between atoms: N4_12  and  N5_14 
REMARK       I    between atoms: N5_14  and  C4_16 
REMARK    6  A    between atoms: C4_16  and  C5_18 
REMARK    7  A    between atoms: C5_18  and  N6_19 
ROOT
HETATM    1  N4  UNL     1      21.783  88.889  74.996  1.00  0.00    -0.272 N 
ATOM      2  H4  UNL     1      21.580  89.889  75.000  1.00  0.00     0.189 HD
ENDROOT
BRANCH   1   3
HETATM    3  C3  UNL     1      21.794  88.263  73.736  1.00  0.00     0.205 C 
HETATM    4  S1  UNL     1      23.214  88.321  72.861  1.00  0.00    -0.038 SA
BRANCH   3   5
HETATM    5  N3  UNL     1      20.711  87.585  73.128  1.00  0.00    -0.272 N 
ATOM      6  H3  UNL     1      20.867  86.738  72.581  1.00  0.00     0.189 HD
BRANCH   5   7
HETATM    7  N2  UNL     1      19.413  88.105  73.294  1.00  0.00    -0.260 N 
HETATM    8  C2  UNL     1      18.391  87.959  72.333  1.00  0.00     0.325 C 
HETATM    9  O2  UNL     1      18.619  87.339  71.273  1.00  0.00    -0.261 OA
ATOM     10  H2  UNL     1      19.202  88.614  74.153  1.00  0.00     0.190 HD
BRANCH   8  11
HETATM   11  C1  UNL     1      17.084  88.527  72.571  1.00  0.00     0.324 C 
HETATM   12  N1  UNL     1      16.838  89.886  72.842  1.00  0.00    -0.053 NA
HETATM   13  O1  UNL     1      16.084  87.731  72.529  1.00  0.00    -0.266 OA
ENDBRANCH   8  11
ENDBRANCH   5   7
ENDBRANCH   3   5
ENDBRANCH   1   3
BRANCH   1  14
HETATM   14  N5  UNL     1      22.016  88.310  76.231  1.00  0.00    -0.266 N 
HETATM   15  C4  UNL     1      21.191  87.321  76.755  1.00  0.00     0.272 C 
HETATM   16  O3  UNL     1      20.180  86.915  76.134  1.00  0.00    -0.269 OA
ATOM     17  H5  UNL     1      22.821  88.619  76.776  1.00  0.00     0.190 HD
BRANCH  15  18
HETATM   18  C5  UNL     1      21.438  86.666  78.088  1.00  0.00     0.205 A 
HETATM   19  C6  UNL     1      21.745  87.425  79.291  1.00  0.00     0.052 A 
HETATM   20  C7  UNL     1      20.320  86.998  79.080  1.00  0.00     0.052 A 
BRANCH  18  21
HETATM   21  N6  UNL     1      21.826  85.270  77.972  1.00  0.00    -0.061 N 
ATOM     22  H63 UNL     1      22.748  85.113  78.380  1.00  0.00     0.275 HD
ATOM     23  H62 UNL     1      21.267  84.684  78.592  1.00  0.00     0.275 HD
ATOM     24  H61 UNL     1      21.790  84.924  77.013  1.00  0.00     0.275 HD
ENDBRANCH  18  21
ENDBRANCH  15  18
ENDBRANCH   1  14
TORSDOF 7
ENDMDL
MODEL 5
REMARK VINA RESULT: -7.381361864      2.559      4.409
REMARK  7 active torsions:
REMARK  status: ('A' for Active; 'I' for Inactive)
REMARK    1  A    between atoms: C1_2  and  C2_4 
REMARK       I    between atoms: C2_4  and  N2_6 
REMARK    2  A    between atoms: N2_6  and  N3_8 
REMARK    3  A    between atoms: N3_8  and  C3_10 
REMARK    4  A    between atoms: C3_10  and  N4_12 
REMARK    5  A    between atoms: N4_12  and  N5_14 
REMARK       I    between atoms: N5_14  and  C4_16 
REMARK    6  A    between atoms: C4_16  and  C5_18 
REMARK    7  A    between atoms: C5_18  and  N6_19 
ROOT
HETATM    1  N4  UNL     1      21.282  89.168  74.907  1.00  0.00    -0.272 N 
ATOM      2  H4  UNL     1      20.773  90.049  74.987  1.00  0.00     0.189 HD
ENDROOT
BRANCH   1   3
HETATM    3  C3  UNL     1      21.431  88.654  73.605  1.00  0.00     0.205 C 
HETATM    4  S1  UNL     1      22.985  88.397  73.054  1.00  0.00    -0.038 SA
BRANCH   3   5
HETATM    5  N3  UNL     1      20.386  88.332  72.707  1.00  0.00    -0.272 N 
ATOM      6  H3  UNL     1      20.539  87.671  71.945  1.00  0.00     0.189 HD
BRANCH   5   7
HETATM    7  N2  UNL     1      19.131  88.945  72.888  1.00  0.00    -0.260 N 
HETATM    8  C2  UNL     1      17.907  88.252  72.779  1.00  0.00     0.325 C 
HETATM    9  O2  UNL     1      17.907  87.031  72.513  1.00  0.00    -0.261 OA
ATOM     10  H2  UNL     1      19.106  89.941  73.109  1.00  0.00     0.190 HD
BRANCH   8  11
HETATM   11  C1  UNL     1      16.657  88.949  72.973  1.00  0.00     0.324 C 
HETATM   12  N1  UNL     1      15.501  88.379  73.538  1.00  0.00    -0.053 NA
HETATM   13  O1  UNL     1      16.608  90.173  72.604  1.00  0.00    -0.266 OA
ENDBRANCH   8  11
ENDBRANCH   5   7
ENDBRANCH   3   5
ENDBRANCH   1   3
BRANCH   1  14
HETATM   14  N5  UNL     1      21.745  88.621  76.090  1.00  0.00    -0.266 N 
HETATM   15  C4  UNL     1      21.192  87.473  76.645  1.00  0.00     0.272 C 
HETATM   16  O3  UNL     1      20.229  86.880  76.100  1.00  0.00    -0.269 OA
ATOM     17  H5  UNL     1      22.519  89.077  76.574  1.00  0.00     0.190 HD
BRANCH  15  18
HETATM   18  C5  UNL     1      21.694  86.853  77.922  1.00  0.00     0.205 A 
HETATM   19  C6  UNL     1      22.240  87.641  79.015  1.00  0.00     0.052 A 
HETATM   20  C7  UNL     1      20.798  87.229  79.105  1.00  0.00     0.052 A 
BRANCH  18  21
HETATM   21  N6  UNL     1      22.039  85.448  77.775  1.00  0.00    -0.061 N 
ATOM     22  H63 UNL     1      21.533  84.876  78.451  1.00  0.00     0.275 HD
ATOM     23  H62 UNL     1      21.653  85.067  76.911  1.00  0.00     0.275 HD
ATOM     24  H61 UNL     1      23.043  85.276  77.832  1.00  0.00     0.275 HD
ENDBRANCH  18  21
ENDBRANCH  15  18
ENDBRANCH   1  14
TORSDOF 7
ENDMDL
