MODEL 1
REMARK VINA RESULT: -8.375938972      0.000      0.000
REMARK  2 active torsions:
REMARK  status: ('A' for Active; 'I' for Inactive)
REMARK       I    between atoms: C1_4  and  N3_6 
REMARK       I    between atoms: C2_8  and  N5_10 
REMARK    1  A    between atoms: C6_15  and  C7_16 
REMARK       I    between atoms: C7_16  and  N6_18 
REMARK    2  A    between atoms: N6_18  and  N7_20 
REMARK       I    between atoms: N7_20  and  C8_22 
ROOT
HETATM    1  N1  UNL     1      22.087  85.837  77.879  1.00  0.00    -0.373 N 
ATOM      2  H11 UNL     1      22.253  85.192  77.106  1.00  0.00     0.158 HD
ATOM      3  H12 UNL     1      21.883  85.463  78.806  1.00  0.00     0.158 HD
HETATM    4  C1  UNL     1      22.145  87.099  77.624  1.00  0.00     0.188 C 
HETATM    5  N2  UNL     1      21.913  87.998  78.703  1.00  0.00    -0.064 NA
HETATM    6  N3  UNL     1      22.427  87.617  76.339  1.00  0.00    -0.305 N 
ATOM      7  H3  UNL     1      23.338  88.046  76.186  1.00  0.00     0.171 HD
HETATM    8  C2  UNL     1      21.588  87.579  75.333  1.00  0.00     0.193 C 
HETATM    9  N4  UNL     1      20.345  86.963  75.637  1.00  0.00    -0.063 NA
HETATM   10  N5  UNL     1      21.937  88.120  74.082  1.00  0.00    -0.338 N 
HETATM   11  C3  UNL     1      23.365  88.319  73.800  1.00  0.00     0.152 C 
HETATM   12  C4  UNL     1      23.401  89.718  73.161  1.00  0.00     0.187 C 
HETATM   13  O1  UNL     1      22.287  90.471  73.506  1.00  0.00    -0.387 OA
HETATM   14  C5  UNL     1      21.138  90.045  72.860  1.00  0.00     0.202 C 
HETATM   15  C6  UNL     1      21.059  88.521  73.029  1.00  0.00     0.204 C 
ENDROOT
BRANCH  15  16
HETATM   16  C7  UNL     1      19.681  88.055  73.100  1.00  0.00     0.261 C 
HETATM   17  O2  UNL     1      19.334  87.028  72.472  1.00  0.00    -0.269 OA
HETATM   18  N6  UNL     1      18.709  88.737  73.867  1.00  0.00    -0.265 N 
ATOM     19  H6  UNL     1      18.993  89.573  74.378  1.00  0.00     0.190 HD
BRANCH  18  20
HETATM   20  N7  UNL     1      17.382  88.321  73.960  1.00  0.00    -0.251 N 
HETATM   21  C8  UNL     1      16.336  88.921  73.198  1.00  0.00     0.347 C 
HETATM   22  N8  UNL     1      15.007  88.442  73.345  1.00  0.00    -0.038 NA
HETATM   23  O3  UNL     1      16.549  89.861  72.396  1.00  0.00    -0.249 OA
ATOM     24  H7  UNL     1      17.150  87.559  74.597  1.00  0.00     0.191 HD
ENDBRANCH  18  20
ENDBRANCH  15  16
TORSDOF 2
ENDMDL
MODEL 2
REMARK VINA RESULT: -8.338175394      1.081      1.219
REMARK  2 active torsions:
REMARK  status: ('A' for Active; 'I' for Inactive)
REMARK       I    between atoms: C1_4  and  N3_6 
REMARK       I    between atoms: C2_8  and  N5_10 
REMARK    1  A    between atoms: C6_15  and  C7_16 
REMARK       I    between atoms: C7_16  and  N6_18 
REMARK    2  A    between atoms: N6_18  and  N7_20 
REMARK       I    between atoms: N7_20  and  C8_22 
ROOT
HETATM    1  N1  UNL     1      22.065  85.732  77.653  1.00  0.00    -0.373 N 
ATOM      2  H11 UNL     1      21.827  85.236  76.794  1.00  0.00     0.158 HD
ATOM      3  H12 UNL     1      21.939  85.264  78.550  1.00  0.00     0.158 HD
HETATM    4  C1  UNL     1      22.514  86.935  77.540  1.00  0.00     0.188 C 
HETATM    5  N2  UNL     1      22.846  87.626  78.739  1.00  0.00    -0.064 NA
HETATM    6  N3  UNL     1      22.687  87.583  76.296  1.00  0.00    -0.305 N 
ATOM      7  H3  UNL     1      23.639  87.724  75.959  1.00  0.00     0.171 HD
HETATM    8  C2  UNL     1      21.700  88.015  75.549  1.00  0.00     0.193 C 
HETATM    9  N4  UNL     1      20.412  87.775  76.097  1.00  0.00    -0.063 NA
HETATM   10  N5  UNL     1      21.950  88.656  74.323  1.00  0.00    -0.338 N 
HETATM   11  C3  UNL     1      23.264  88.446  73.699  1.00  0.00     0.152 C 
HETATM   12  C4  UNL     1      23.661  89.860  73.241  1.00  0.00     0.187 C 
HETATM   13  O1  UNL     1      22.985  90.842  73.953  1.00  0.00    -0.387 OA
HETATM   14  C5  UNL     1      21.652  90.939  73.589  1.00  0.00     0.202 C 
HETATM   15  C6  UNL     1      21.074  89.516  73.594  1.00  0.00     0.204 C 
ENDROOT
BRANCH  15  16
HETATM   16  C7  UNL     1      19.667  89.506  73.971  1.00  0.00     0.261 C 
HETATM   17  O2  UNL     1      19.194  90.445  74.652  1.00  0.00    -0.269 OA
HETATM   18  N6  UNL     1      18.807  88.453  73.584  1.00  0.00    -0.265 N 
ATOM     19  H6  UNL     1      19.194  87.689  73.030  1.00  0.00     0.190 HD
BRANCH  18  20
HETATM   20  N7  UNL     1      17.456  88.408  73.925  1.00  0.00    -0.251 N 
HETATM   21  C8  UNL     1      16.417  88.520  72.954  1.00  0.00     0.347 C 
HETATM   22  N8  UNL     1      15.062  88.464  73.378  1.00  0.00    -0.038 NA
HETATM   23  O3  UNL     1      16.657  88.666  71.732  1.00  0.00    -0.249 OA
ATOM     24  H7  UNL     1      17.201  88.291  74.905  1.00  0.00     0.191 HD
ENDBRANCH  18  20
ENDBRANCH  15  16
TORSDOF 2
ENDMDL
MODEL 3
REMARK VINA RESULT: -7.673131330      2.103      5.069
REMARK  2 active torsions:
REMARK  status: ('A' for Active; 'I' for Inactive)
REMARK       I    between atoms: C1_4  and  N3_6 
REMARK       I    between atoms: C2_8  and  N5_10 
REMARK    1  A    between atoms: C6_15  and  C7_16 
REMARK       I    between atoms: C7_16  and  N6_18 
REMARK    2  A    between atoms: N6_18  and  N7_20 
REMARK       I    between atoms: N7_20  and  C8_22 
ROOT
HETATM    1  N1  UNL     1      21.106  87.481  78.828  1.00  0.00    -0.373 N 
ATOM      2  H11 UNL     1      20.531  88.324  78.820  1.00  0.00     0.158 HD
ATOM      3  H12 UNL     1      21.636  87.247  79.668  1.00  0.00     0.158 HD
HETATM    4  C1  UNL     1      21.122  86.763  77.759  1.00  0.00     0.188 C 
HETATM    5  N2  UNL     1      21.924  85.587  77.771  1.00  0.00    -0.064 NA
HETATM    6  N3  UNL     1      20.387  87.088  76.596  1.00  0.00    -0.305 N 
ATOM      7  H3  UNL     1      19.571  86.521  76.371  1.00  0.00     0.171 HD
HETATM    8  C2  UNL     1      20.692  88.074  75.788  1.00  0.00     0.193 C 
HETATM    9  N4  UNL     1      21.842  88.809  76.178  1.00  0.00    -0.063 NA
HETATM   10  N5  UNL     1      19.915  88.336  74.645  1.00  0.00    -0.338 N 
HETATM   11  C3  UNL     1      18.550  87.793  74.608  1.00  0.00     0.152 C 
HETATM   12  C4  UNL     1      18.439  87.227  73.182  1.00  0.00     0.187 C 
HETATM   13  O1  UNL     1      19.687  86.960  72.635  1.00  0.00    -0.387 OA
HETATM   14  C5  UNL     1      20.369  88.113  72.282  1.00  0.00     0.202 C 
HETATM   15  C6  UNL     1      20.296  89.070  73.481  1.00  0.00     0.204 C 
ENDROOT
BRANCH  15  16
HETATM   16  C7  UNL     1      21.487  89.903  73.581  1.00  0.00     0.261 C 
HETATM   17  O2  UNL     1      21.413  91.044  74.094  1.00  0.00    -0.269 OA
HETATM   18  N6  UNL     1      22.743  89.456  73.109  1.00  0.00    -0.265 N 
ATOM     19  H6  UNL     1      22.801  88.527  72.692  1.00  0.00     0.190 HD
BRANCH  18  20
HETATM   20  N7  UNL     1      23.904  90.223  73.189  1.00  0.00    -0.251 N 
HETATM   21  C8  UNL     1      25.081  89.911  72.446  1.00  0.00     0.347 C 
HETATM   22  N8  UNL     1      26.225  90.741  72.578  1.00  0.00    -0.038 NA
HETATM   23  O3  UNL     1      25.142  88.924  71.674  1.00  0.00    -0.249 OA
ATOM     24  H7  UNL     1      23.912  91.038  73.801  1.00  0.00     0.191 HD
ENDBRANCH  18  20
ENDBRANCH  15  16
TORSDOF 2
ENDMDL
MODEL 4
REMARK VINA RESULT: -7.519224313      2.275      3.910
REMARK  2 active torsions:
REMARK  status: ('A' for Active; 'I' for Inactive)
REMARK       I    between atoms: C1_4  and  N3_6 
REMARK       I    between atoms: C2_8  and  N5_10 
REMARK    1  A    between atoms: C6_15  and  C7_16 
REMARK       I    between atoms: C7_16  and  N6_18 
REMARK    2  A    between atoms: N6_18  and  N7_20 
REMARK       I    between atoms: N7_20  and  C8_22 
ROOT
HETATM    1  N1  UNL     1      22.230  92.146  73.047  1.00  0.00    -0.373 N 
ATOM      2  H11 UNL     1      21.445  92.467  73.614  1.00  0.00     0.158 HD
ATOM      3  H12 UNL     1      22.469  92.652  72.194  1.00  0.00     0.158 HD
HETATM    4  C1  UNL     1      22.873  91.107  73.456  1.00  0.00     0.188 C 
HETATM    5  N2  UNL     1      23.969  90.659  72.665  1.00  0.00    -0.064 NA
HETATM    6  N3  UNL     1      22.541  90.406  74.638  1.00  0.00    -0.305 N 
ATOM      7  H3  UNL     1      23.165  90.497  75.439  1.00  0.00     0.171 HD
HETATM    8  C2  UNL     1      21.480  89.647  74.768  1.00  0.00     0.193 C 
HETATM    9  N4  UNL     1      20.670  89.580  73.603  1.00  0.00    -0.063 NA
HETATM   10  N5  UNL     1      21.217  88.976  75.975  1.00  0.00    -0.338 N 
HETATM   11  C3  UNL     1      21.879  89.472  77.190  1.00  0.00     0.152 C 
HETATM   12  C4  UNL     1      22.358  88.181  77.875  1.00  0.00     0.187 C 
HETATM   13  O1  UNL     1      22.474  87.131  76.975  1.00  0.00    -0.387 OA
HETATM   14  C5  UNL     1      21.242  86.636  76.577  1.00  0.00     0.202 C 
HETATM   15  C6  UNL     1      20.376  87.839  76.176  1.00  0.00     0.204 C 
ENDROOT
BRANCH  15  16
HETATM   16  C7  UNL     1      19.446  87.503  75.106  1.00  0.00     0.261 C 
HETATM   17  O2  UNL     1      19.661  86.505  74.380  1.00  0.00    -0.269 OA
HETATM   18  N6  UNL     1      18.291  88.281  74.860  1.00  0.00    -0.265 N 
ATOM     19  H6  UNL     1      18.118  89.093  75.453  1.00  0.00     0.190 HD
BRANCH  18  20
HETATM   20  N7  UNL     1      17.379  87.990  73.848  1.00  0.00    -0.251 N 
HETATM   21  C8  UNL     1      16.873  88.988  72.962  1.00  0.00     0.347 C 
HETATM   22  N8  UNL     1      15.946  88.614  71.953  1.00  0.00    -0.038 NA
HETATM   23  O3  UNL     1      17.220  90.190  73.042  1.00  0.00    -0.249 OA
ATOM     24  H7  UNL     1      17.060  87.028  73.736  1.00  0.00     0.191 HD
ENDBRANCH  18  20
ENDBRANCH  15  16
TORSDOF 2
ENDMDL
MODEL 5
REMARK VINA RESULT: -7.474940420      2.775      5.482
REMARK  2 active torsions:
REMARK  status: ('A' for Active; 'I' for Inactive)
REMARK       I    between atoms: C1_4  and  N3_6 
REMARK       I    between atoms: C2_8  and  N5_10 
REMARK    1  A    between atoms: C6_15  and  C7_16 
REMARK       I    between atoms: C7_16  and  N6_18 
REMARK    2  A    between atoms: N6_18  and  N7_20 
REMARK       I    between atoms: N7_20  and  C8_22 
ROOT
HETATM    1  N1  UNL     1      23.897  90.934  73.308  1.00  0.00    -0.373 N 
ATOM      2  H11 UNL     1      24.273  89.997  73.456  1.00  0.00     0.158 HD
ATOM      3  H12 UNL     1      24.525  91.737  73.355  1.00  0.00     0.158 HD
HETATM    4  C1  UNL     1      22.635  91.037  73.069  1.00  0.00     0.188 C 
HETATM    5  N2  UNL     1      22.111  92.344  72.862  1.00  0.00    -0.064 NA
HETATM    6  N3  UNL     1      21.766  89.924  73.004  1.00  0.00    -0.305 N 
ATOM      7  H3  UNL     1      21.414  89.645  72.089  1.00  0.00     0.171 HD
HETATM    8  C2  UNL     1      21.384  89.229  74.047  1.00  0.00     0.193 C 
HETATM    9  N4  UNL     1      21.924  89.688  75.278  1.00  0.00    -0.063 NA
HETATM   10  N5  UNL     1      20.512  88.134  73.905  1.00  0.00    -0.338 N 
HETATM   11  C3  UNL     1      20.392  87.526  72.573  1.00  0.00     0.152 C 
HETATM   12  C4  UNL     1      18.875  87.322  72.420  1.00  0.00     0.187 C 
HETATM   13  O1  UNL     1      18.154  88.166  73.254  1.00  0.00    -0.387 OA
HETATM   14  C5  UNL     1      18.220  87.781  74.583  1.00  0.00     0.202 C 
HETATM   15  C6  UNL     1      19.699  87.531  74.912  1.00  0.00     0.204 C 
ENDROOT
BRANCH  15  16
HETATM   16  C7  UNL     1      20.007  87.856  76.299  1.00  0.00     0.261 C 
HETATM   17  O2  UNL     1      19.296  88.679  76.921  1.00  0.00    -0.269 OA
HETATM   18  N6  UNL     1      21.099  87.263  76.972  1.00  0.00    -0.265 N 
ATOM     19  H6  UNL     1      21.676  86.593  76.463  1.00  0.00     0.190 HD
BRANCH  18  20
HETATM   20  N7  UNL     1      21.424  87.548  78.297  1.00  0.00    -0.251 N 
HETATM   21  C8  UNL     1      20.782  86.907  79.398  1.00  0.00     0.347 C 
HETATM   22  N8  UNL     1      21.169  87.249  80.721  1.00  0.00    -0.038 NA
HETATM   23  O3  UNL     1      19.885  86.046  79.240  1.00  0.00    -0.249 OA
ATOM     24  H7  UNL     1      22.148  88.241  78.486  1.00  0.00     0.191 HD
ENDBRANCH  18  20
ENDBRANCH  15  16
TORSDOF 2
ENDMDL
