MODEL 1
REMARK VINA RESULT: -9.823146209      0.000      0.000
REMARK  6 active torsions:
REMARK  status: ('A' for Active; 'I' for Inactive)
REMARK    1  A    between atoms: C2_2  and  N1_3 
REMARK    2  A    between atoms: N3_18  and  C13_19 
REMARK    3  A    between atoms: C13_19  and  C14_20 
REMARK    4  A    between atoms: C14_20  and  C15_21 
REMARK    5  A    between atoms: C15_21  and  C17_23 
REMARK    6  A    between atoms: C17_23  and  C18_24 
ROOT
HETATM    1  N1  UNL     1      15.214   5.989  20.892  1.00  0.00    -0.318 N 
HETATM    2  C3  UNL     1      15.122   6.253  22.301  1.00  0.00     0.224 C 
HETATM    3  O1  UNL     1      14.392   5.464  22.971  1.00  0.00    -0.273 OA
HETATM    4  C4  UNL     1      15.815   7.361  22.962  1.00  0.00     0.108 C 
HETATM    5  C5  UNL     1      16.038   8.550  22.095  1.00  0.00     0.050 C 
HETATM    6  C6  UNL     1      16.124   8.248  20.656  1.00  0.00    -0.028 A 
HETATM    7  C7  UNL     1      16.628   9.237  19.829  1.00  0.00     0.041 A 
HETATM    8  C8  UNL     1      16.735   9.020  18.470  1.00  0.00     0.066 A 
HETATM    9  C9  UNL     1      16.351   7.826  17.899  1.00  0.00     0.065 A 
HETATM   10  C10 UNL     1      15.850   6.835  18.711  1.00  0.00     0.062 A 
HETATM   11  C11 UNL     1      15.733   7.036  20.086  1.00  0.00     0.045 A 
HETATM   12  N2  UNL     1      16.559   7.873  16.559  1.00  0.00    -0.306 N 
ATOM     13  H2  UNL     1      16.365   7.132  15.885  1.00  0.00     0.171 HD
HETATM   14  C12 UNL     1      17.073   9.091  16.291  1.00  0.00     0.327 A 
HETATM   15  O2  UNL     1      17.383   9.467  15.131  1.00  0.00    -0.246 OA
HETATM   16  N3  UNL     1      17.179   9.787  17.452  1.00  0.00    -0.297 N 
ENDROOT
BRANCH  16  17
HETATM   17  C13 UNL     1      17.675  11.121  17.620  1.00  0.00     0.134 C 
BRANCH  17  18
HETATM   18  C14 UNL     1      19.187  11.196  17.521  1.00  0.00     0.025 C 
BRANCH  18  19
HETATM   19  C15 UNL     1      19.573  12.098  16.390  1.00  0.00    -0.011 C 
HETATM   20  C16 UNL     1      18.575  13.214  16.168  1.00  0.00     0.010 C 
BRANCH  19  21
HETATM   21  C17 UNL     1      19.763  11.371  15.079  1.00  0.00     0.062 C 
BRANCH  21  22
HETATM   22  C18 UNL     1      19.902  12.264  13.927  1.00  0.00     0.025 A 
HETATM   23  C19 UNL     1      19.025  12.321  12.840  1.00  0.00     0.114 A 
HETATM   24  N4  UNL     1      19.442  13.243  11.965  1.00  0.00    -0.360 N 
HETATM   25  C20 UNL     1      20.562  13.776  12.466  1.00  0.00     0.180 A 
ATOM     26  H4  UNL     1      18.992  13.491  11.084  1.00  0.00     0.166 HD
HETATM   27  N5  UNL     1      20.839  13.185  13.649  1.00  0.00    -0.355 N 
ATOM     28  H5  UNL     1      21.640  13.404  14.242  1.00  0.00     0.166 HD
ENDBRANCH  21  22
ENDBRANCH  19  21
ENDBRANCH  18  19
ENDBRANCH  17  18
ENDBRANCH  16  17
BRANCH   1  29
HETATM   29  C2  UNL     1      14.808   4.737  20.316  1.00  0.00     0.128 C 
HETATM   30  C1  UNL     1      15.833   3.635  20.509  1.00  0.00     0.027 C 
ENDBRANCH   1  29
TORSDOF 6
ENDMDL
MODEL 2
REMARK VINA RESULT: -9.749438643      1.108      1.324
REMARK  6 active torsions:
REMARK  status: ('A' for Active; 'I' for Inactive)
REMARK    1  A    between atoms: C2_2  and  N1_3 
REMARK    2  A    between atoms: N3_18  and  C13_19 
REMARK    3  A    between atoms: C13_19  and  C14_20 
REMARK    4  A    between atoms: C14_20  and  C15_21 
REMARK    5  A    between atoms: C15_21  and  C17_23 
REMARK    6  A    between atoms: C17_23  and  C18_24 
ROOT
HETATM    1  N1  UNL     1      15.530   6.716  20.108  1.00  0.00    -0.318 N 
HETATM    2  C3  UNL     1      15.374   7.081  21.488  1.00  0.00     0.224 C 
HETATM    3  O1  UNL     1      14.616   6.340  22.181  1.00  0.00    -0.273 OA
HETATM    4  C4  UNL     1      16.036   8.237  22.096  1.00  0.00     0.108 C 
HETATM    5  C5  UNL     1      16.297   9.361  21.156  1.00  0.00     0.050 C 
HETATM    6  C6  UNL     1      16.447   8.955  19.748  1.00  0.00    -0.028 A 
HETATM    7  C7  UNL     1      16.986   9.884  18.874  1.00  0.00     0.041 A 
HETATM    8  C8  UNL     1      17.154   9.568  17.541  1.00  0.00     0.066 A 
HETATM    9  C9  UNL     1      16.797   8.334  17.042  1.00  0.00     0.065 A 
HETATM   10  C10 UNL     1      16.261   7.402  17.901  1.00  0.00     0.062 A 
HETATM   11  C11 UNL     1      16.083   7.703  19.251  1.00  0.00     0.045 A 
HETATM   12  N2  UNL     1      17.065   8.283  15.712  1.00  0.00    -0.306 N 
ATOM     13  H2  UNL     1      16.902   7.494  15.087  1.00  0.00     0.171 HD
HETATM   14  C12 UNL     1      17.589   9.481  15.379  1.00  0.00     0.327 A 
HETATM   15  O2  UNL     1      17.950   9.772  14.210  1.00  0.00    -0.246 OA
HETATM   16  N3  UNL     1      17.642  10.260  16.490  1.00  0.00    -0.297 N 
ENDROOT
BRANCH  16  17
HETATM   17  C13 UNL     1      18.129  11.604  16.581  1.00  0.00     0.134 C 
BRANCH  17  18
HETATM   18  C14 UNL     1      19.642  11.671  16.672  1.00  0.00     0.025 C 
BRANCH  18  19
HETATM   19  C15 UNL     1      20.216  11.946  15.317  1.00  0.00    -0.011 C 
HETATM   20  C16 UNL     1      21.655  12.412  15.378  1.00  0.00     0.010 C 
BRANCH  19  21
HETATM   21  C17 UNL     1      19.427  12.964  14.525  1.00  0.00     0.062 C 
BRANCH  21  22
HETATM   22  C18 UNL     1      19.855  13.081  13.129  1.00  0.00     0.025 A 
HETATM   23  C19 UNL     1      19.472  12.225  12.094  1.00  0.00     0.114 A 
HETATM   24  N4  UNL     1      20.040  12.613  10.947  1.00  0.00    -0.360 N 
HETATM   25  C20 UNL     1      20.776  13.695  11.224  1.00  0.00     0.180 A 
ATOM     26  H4  UNL     1      19.932  12.168  10.035  1.00  0.00     0.166 HD
HETATM   27  N5  UNL     1      20.665  13.977  12.541  1.00  0.00    -0.355 N 
ATOM     28  H5  UNL     1      21.125  14.752  13.017  1.00  0.00     0.166 HD
ENDBRANCH  21  22
ENDBRANCH  19  21
ENDBRANCH  18  19
ENDBRANCH  17  18
ENDBRANCH  16  17
BRANCH   1  29
HETATM   29  C2  UNL     1      15.151   5.424  19.608  1.00  0.00     0.128 C 
HETATM   30  C1  UNL     1      16.136   4.332  19.979  1.00  0.00     0.027 C 
ENDBRANCH   1  29
TORSDOF 6
ENDMDL
MODEL 3
REMARK VINA RESULT: -9.328596893      1.240      1.730
REMARK  6 active torsions:
REMARK  status: ('A' for Active; 'I' for Inactive)
REMARK    1  A    between atoms: C2_2  and  N1_3 
REMARK    2  A    between atoms: N3_18  and  C13_19 
REMARK    3  A    between atoms: C13_19  and  C14_20 
REMARK    4  A    between atoms: C14_20  and  C15_21 
REMARK    5  A    between atoms: C15_21  and  C17_23 
REMARK    6  A    between atoms: C17_23  and  C18_24 
ROOT
HETATM    1  N1  UNL     1      15.233   6.741  20.114  1.00  0.00    -0.318 N 
HETATM    2  C3  UNL     1      15.276   6.985  21.529  1.00  0.00     0.224 C 
HETATM    3  O1  UNL     1      14.373   6.427  22.220  1.00  0.00    -0.273 OA
HETATM    4  C4  UNL     1      16.287   7.827  22.173  1.00  0.00     0.108 C 
HETATM    5  C5  UNL     1      16.814   8.921  21.312  1.00  0.00     0.050 C 
HETATM    6  C6  UNL     1      16.753   8.643  19.867  1.00  0.00    -0.028 A 
HETATM    7  C7  UNL     1      17.491   9.463  19.032  1.00  0.00     0.041 A 
HETATM    8  C8  UNL     1      17.479   9.258  17.667  1.00  0.00     0.066 A 
HETATM    9  C9  UNL     1      16.742   8.242  17.098  1.00  0.00     0.065 A 
HETATM   10  C10 UNL     1      16.004   7.420  17.918  1.00  0.00     0.062 A 
HETATM   11  C11 UNL     1      16.003   7.612  19.299  1.00  0.00     0.045 A 
HETATM   12  N2  UNL     1      16.903   8.260  15.750  1.00  0.00    -0.306 N 
ATOM     13  H2  UNL     1      16.475   7.624  15.076  1.00  0.00     0.171 HD
HETATM   14  C12 UNL     1      17.739   9.282  15.476  1.00  0.00     0.327 A 
HETATM   15  O2  UNL     1      18.101   9.580  14.308  1.00  0.00    -0.246 OA
HETATM   16  N3  UNL     1      18.088   9.887  16.640  1.00  0.00    -0.297 N 
ENDROOT
BRANCH  16  17
HETATM   17  C13 UNL     1      18.957  11.014  16.803  1.00  0.00     0.134 C 
BRANCH  17  18
HETATM   18  C14 UNL     1      18.567  12.183  15.918  1.00  0.00     0.025 C 
BRANCH  18  19
HETATM   19  C15 UNL     1      19.487  12.251  14.738  1.00  0.00    -0.011 C 
HETATM   20  C16 UNL     1      20.889  12.676  15.116  1.00  0.00     0.010 C 
BRANCH  19  21
HETATM   21  C17 UNL     1      18.996  13.173  13.646  1.00  0.00     0.062 C 
BRANCH  21  22
HETATM   22  C18 UNL     1      19.800  13.115  12.423  1.00  0.00     0.025 A 
HETATM   23  C19 UNL     1      20.642  14.131  11.962  1.00  0.00     0.114 A 
HETATM   24  N4  UNL     1      21.227  13.756  10.820  1.00  0.00    -0.360 N 
HETATM   25  C20 UNL     1      20.781  12.526  10.540  1.00  0.00     0.180 A 
ATOM     26  H4  UNL     1      21.888  14.303  10.268  1.00  0.00     0.166 HD
HETATM   27  N5  UNL     1      19.920  12.140  11.507  1.00  0.00    -0.355 N 
ATOM     28  H5  UNL     1      19.434  11.244  11.537  1.00  0.00     0.166 HD
ENDBRANCH  21  22
ENDBRANCH  19  21
ENDBRANCH  18  19
ENDBRANCH  17  18
ENDBRANCH  16  17
BRANCH   1  29
HETATM   29  C2  UNL     1      14.457   5.677  19.540  1.00  0.00     0.128 C 
HETATM   30  C1  UNL     1      12.971   5.816  19.808  1.00  0.00     0.027 C 
ENDBRANCH   1  29
TORSDOF 6
ENDMDL
MODEL 4
REMARK VINA RESULT: -9.040731514      2.290      9.086
REMARK  6 active torsions:
REMARK  status: ('A' for Active; 'I' for Inactive)
REMARK    1  A    between atoms: C2_2  and  N1_3 
REMARK    2  A    between atoms: N3_18  and  C13_19 
REMARK    3  A    between atoms: C13_19  and  C14_20 
REMARK    4  A    between atoms: C14_20  and  C15_21 
REMARK    5  A    between atoms: C15_21  and  C17_23 
REMARK    6  A    between atoms: C17_23  and  C18_24 
ROOT
HETATM    1  N1  UNL     1      18.562  11.422  15.367  1.00  0.00    -0.318 N 
HETATM    2  C3  UNL     1      18.526  11.039  13.983  1.00  0.00     0.224 C 
HETATM    3  O1  UNL     1      18.804  11.947  13.145  1.00  0.00    -0.273 OA
HETATM    4  C4  UNL     1      18.192   9.688  13.528  1.00  0.00     0.108 C 
HETATM    5  C5  UNL     1      17.263   8.949  14.426  1.00  0.00     0.050 C 
HETATM    6  C6  UNL     1      17.320   9.366  15.837  1.00  0.00    -0.028 A 
HETATM    7  C7  UNL     1      16.723   8.535  16.769  1.00  0.00     0.041 A 
HETATM    8  C8  UNL     1      16.740   8.867  18.109  1.00  0.00     0.066 A 
HETATM    9  C9  UNL     1      17.343  10.021  18.558  1.00  0.00     0.065 A 
HETATM   10  C10 UNL     1      17.940  10.856  17.641  1.00  0.00     0.062 A 
HETATM   11  C11 UNL     1      17.933  10.538  16.283  1.00  0.00     0.045 A 
HETATM   12  N2  UNL     1      17.218  10.108  19.907  1.00  0.00    -0.306 N 
ATOM     13  H2  UNL     1      17.568  10.856  20.505  1.00  0.00     0.171 HD
HETATM   14  C12 UNL     1      16.539   9.011  20.301  1.00  0.00     0.327 A 
HETATM   15  O2  UNL     1      16.250   8.778  21.504  1.00  0.00    -0.246 OA
HETATM   16  N3  UNL     1      16.249   8.259  19.210  1.00  0.00    -0.297 N 
ENDROOT
BRANCH  16  17
HETATM   17  C13 UNL     1      15.540   7.014  19.180  1.00  0.00     0.134 C 
BRANCH  17  18
HETATM   18  C14 UNL     1      16.187   5.955  20.053  1.00  0.00     0.025 C 
BRANCH  18  19
HETATM   19  C15 UNL     1      15.259   5.587  21.169  1.00  0.00    -0.011 C 
HETATM   20  C16 UNL     1      15.951   4.818  22.272  1.00  0.00     0.010 C 
BRANCH  19  21
HETATM   21  C17 UNL     1      14.063   4.781  20.715  1.00  0.00     0.062 C 
BRANCH  21  22
HETATM   22  C18 UNL     1      12.778   5.383  21.080  1.00  0.00     0.025 A 
HETATM   23  C19 UNL     1      11.526   4.924  20.663  1.00  0.00     0.114 A 
HETATM   24  N4  UNL     1      10.562   5.697  21.174  1.00  0.00    -0.360 N 
HETATM   25  C20 UNL     1      11.167   6.639  21.907  1.00  0.00     0.180 A 
ATOM     26  H4  UNL     1       9.558   5.590  21.032  1.00  0.00     0.166 HD
HETATM   27  N5  UNL     1      12.504   6.449  21.849  1.00  0.00    -0.355 N 
ATOM     28  H5  UNL     1      13.200   7.028  22.318  1.00  0.00     0.166 HD
ENDBRANCH  21  22
ENDBRANCH  19  21
ENDBRANCH  18  19
ENDBRANCH  17  18
ENDBRANCH  16  17
BRANCH   1  29
HETATM   29  C2  UNL     1      19.196  12.630  15.815  1.00  0.00     0.128 C 
HETATM   30  C1  UNL     1      20.665  12.702  15.443  1.00  0.00     0.027 C 
ENDBRANCH   1  29
TORSDOF 6
ENDMDL
MODEL 5
REMARK VINA RESULT: -8.944227449      3.860      7.013
REMARK  6 active torsions:
REMARK  status: ('A' for Active; 'I' for Inactive)
REMARK    1  A    between atoms: C2_2  and  N1_3 
REMARK    2  A    between atoms: N3_18  and  C13_19 
REMARK    3  A    between atoms: C13_19  and  C14_20 
REMARK    4  A    between atoms: C14_20  and  C15_21 
REMARK    5  A    between atoms: C15_21  and  C17_23 
REMARK    6  A    between atoms: C17_23  and  C18_24 
ROOT
HETATM    1  N1  UNL     1      10.131   4.038  22.845  1.00  0.00    -0.318 N 
HETATM    2  C3  UNL     1       9.326   5.204  22.605  1.00  0.00     0.224 C 
HETATM    3  O1  UNL     1       8.076   5.060  22.753  1.00  0.00    -0.273 OA
HETATM    4  C4  UNL     1       9.880   6.500  22.209  1.00  0.00     0.108 C 
HETATM    5  C5  UNL     1      11.143   6.415  21.426  1.00  0.00     0.050 C 
HETATM    6  C6  UNL     1      11.944   5.208  21.691  1.00  0.00    -0.028 A 
HETATM    7  C7  UNL     1      13.253   5.204  21.242  1.00  0.00     0.041 A 
HETATM    8  C8  UNL     1      14.059   4.104  21.457  1.00  0.00     0.066 A 
HETATM    9  C9  UNL     1      13.594   2.988  22.119  1.00  0.00     0.065 A 
HETATM   10  C10 UNL     1      12.294   2.980  22.571  1.00  0.00     0.062 A 
HETATM   11  C11 UNL     1      11.465   4.081  22.362  1.00  0.00     0.045 A 
HETATM   12  N2  UNL     1      14.580   2.058  22.196  1.00  0.00    -0.306 N 
ATOM     13  H2  UNL     1      14.517   1.137  22.630  1.00  0.00     0.171 HD
HETATM   14  C12 UNL     1      15.659   2.590  21.586  1.00  0.00     0.327 A 
HETATM   15  O2  UNL     1      16.756   1.983  21.479  1.00  0.00    -0.246 OA
HETATM   16  N3  UNL     1      15.342   3.831  21.137  1.00  0.00    -0.297 N 
ENDROOT
BRANCH  16  17
HETATM   17  C13 UNL     1      16.196   4.742  20.434  1.00  0.00     0.134 C 
BRANCH  17  18
HETATM   18  C14 UNL     1      16.862   5.745  21.356  1.00  0.00     0.025 C 
BRANCH  18  19
HETATM   19  C15 UNL     1      16.532   7.136  20.910  1.00  0.00    -0.011 C 
HETATM   20  C16 UNL     1      15.758   7.913  21.953  1.00  0.00     0.010 C 
BRANCH  19  21
HETATM   21  C17 UNL     1      15.752   7.183  19.616  1.00  0.00     0.062 C 
BRANCH  21  22
HETATM   22  C18 UNL     1      16.357   8.044  18.598  1.00  0.00     0.025 A 
HETATM   23  C19 UNL     1      16.991   9.264  18.846  1.00  0.00     0.114 A 
HETATM   24  N4  UNL     1      17.431   9.793  17.700  1.00  0.00    -0.360 N 
HETATM   25  C20 UNL     1      17.095   8.941  16.724  1.00  0.00     0.180 A 
ATOM     26  H4  UNL     1      17.928  10.677  17.589  1.00  0.00     0.166 HD
HETATM   27  N5  UNL     1      16.447   7.886  17.267  1.00  0.00    -0.355 N 
ATOM     28  H5  UNL     1      16.080   7.090  16.745  1.00  0.00     0.166 HD
ENDBRANCH  21  22
ENDBRANCH  19  21
ENDBRANCH  18  19
ENDBRANCH  17  18
ENDBRANCH  16  17
BRANCH   1  29
HETATM   29  C2  UNL     1       9.627   2.885  23.537  1.00  0.00     0.128 C 
HETATM   30  C1  UNL     1       9.736   3.003  25.045  1.00  0.00     0.027 C 
ENDBRANCH   1  29
TORSDOF 6
ENDMDL
