MODEL 1
REMARK VINA RESULT: -8.626991945      0.000      0.000
REMARK  8 active torsions:
REMARK  status: ('A' for Active; 'I' for Inactive)
REMARK    1  A    between atoms: O1_2  and  C2_3 
REMARK    2  A    between atoms: C2_3  and  C3_5 
REMARK    3  A    between atoms: C6_8  and  C7_9 
REMARK    4  A    between atoms: C7_9  and  N1_10 
REMARK    5  A    between atoms: C7_9  and  C16_24 
REMARK    6  A    between atoms: N1_10  and  C8_12 
REMARK    7  A    between atoms: C8_12  and  C10_14 
REMARK       I    between atoms: C10_14  and  N2_16 
REMARK    8  A    between atoms: N2_16  and  C11_18 
ROOT
HETATM    1  C7  UNL     1      15.178   6.773  20.664  1.00  0.00     0.084 C 
ENDROOT
BRANCH   1   2
HETATM    2  C6  UNL     1      15.630   7.854  19.781  1.00  0.00     0.008 C 
HETATM    3  C5  UNL     1      16.430   7.317  18.635  1.00  0.00     0.007 C 
HETATM    4  C4  UNL     1      16.565   8.348  17.567  1.00  0.00     0.015 C 
HETATM    5  C3  UNL     1      16.918   9.677  18.101  1.00  0.00     0.085 C 
HETATM    6  C20 UNL     1      17.307   9.738  19.548  1.00  0.00     0.015 C 
HETATM    7  C19 UNL     1      16.432   8.934  20.454  1.00  0.00     0.007 C 
BRANCH   5   8
HETATM    8  C2  UNL     1      18.057  10.231  17.310  1.00  0.00     0.262 C 
HETATM    9  O2  UNL     1      18.984   9.470  16.912  1.00  0.00    -0.265 OA
BRANCH   8  10
HETATM   10  O1  UNL     1      18.150  11.571  16.984  1.00  0.00    -0.326 OA
HETATM   11  C1  UNL     1      19.269  12.047  16.255  1.00  0.00     0.213 C 
ENDBRANCH   8  10
ENDBRANCH   5   8
ENDBRANCH   1   2
BRANCH   1  12
HETATM   12  N1  UNL     1      13.799   6.920  21.023  1.00  0.00    -0.405 N 
ATOM     13  H1  UNL     1      13.445   7.790  21.420  1.00  0.00     0.154 HD
BRANCH  12  14
HETATM   14  C8  UNL     1      12.947   5.809  20.804  1.00  0.00     0.165 C 
HETATM   15  C9  UNL     1      13.021   5.118  19.479  1.00  0.00     0.042 C 
BRANCH  14  16
HETATM   16  C10 UNL     1      11.543   6.187  21.100  1.00  0.00     0.240 C 
HETATM   17  O3  UNL     1      11.236   7.404  21.196  1.00  0.00    -0.271 OA
HETATM   18  N2  UNL     1      10.567   5.195  21.273  1.00  0.00    -0.355 N 
ATOM     19  H2  UNL     1      10.846   4.219  21.174  1.00  0.00     0.162 HD
BRANCH  18  20
HETATM   20  C11 UNL     1       9.183   5.485  21.585  1.00  0.00     0.088 C 
HETATM   21  C12 UNL     1       8.319   5.338  20.368  1.00  0.00     0.051 C 
HETATM   22  C13 UNL     1       7.753   3.963  20.267  1.00  0.00     0.169 C 
HETATM   23  O4  UNL     1       7.025   3.689  21.430  1.00  0.00    -0.391 OA
HETATM   24  C14 UNL     1       7.975   3.461  22.430  1.00  0.00     0.169 C 
HETATM   25  C15 UNL     1       8.730   4.718  22.792  1.00  0.00     0.051 C 
ENDBRANCH  18  20
ENDBRANCH  14  16
ENDBRANCH  12  14
ENDBRANCH   1  12
BRANCH   1  26
HETATM   26  C16 UNL     1      15.945   6.518  21.924  1.00  0.00     0.000 C 
HETATM   27  C17 UNL     1      16.394   5.112  22.107  1.00  0.00     0.011 C 
HETATM   28  C18 UNL     1      15.332   7.142  23.139  1.00  0.00     0.011 C 
ENDBRANCH   1  26
TORSDOF 8
ENDMDL
MODEL 2
REMARK VINA RESULT: -8.475345223      3.601      6.921
REMARK  8 active torsions:
REMARK  status: ('A' for Active; 'I' for Inactive)
REMARK    1  A    between atoms: O1_2  and  C2_3 
REMARK    2  A    between atoms: C2_3  and  C3_5 
REMARK    3  A    between atoms: C6_8  and  C7_9 
REMARK    4  A    between atoms: C7_9  and  N1_10 
REMARK    5  A    between atoms: C7_9  and  C16_24 
REMARK    6  A    between atoms: N1_10  and  C8_12 
REMARK    7  A    between atoms: C8_12  and  C10_14 
REMARK       I    between atoms: C10_14  and  N2_16 
REMARK    8  A    between atoms: N2_16  and  C11_18 
ROOT
HETATM    1  C7  UNL     1      14.657   6.043  20.624  1.00  0.00     0.084 C 
ENDROOT
BRANCH   1   2
HETATM    2  C6  UNL     1      15.223   7.217  19.949  1.00  0.00     0.008 C 
HETATM    3  C5  UNL     1      16.078   6.812  18.788  1.00  0.00     0.007 C 
HETATM    4  C4  UNL     1      16.338   7.982  17.902  1.00  0.00     0.015 C 
HETATM    5  C3  UNL     1      16.714   9.193  18.656  1.00  0.00     0.085 C 
HETATM    6  C20 UNL     1      16.999   9.013  20.116  1.00  0.00     0.015 C 
HETATM    7  C19 UNL     1      16.024   8.134  20.830  1.00  0.00     0.007 C 
BRANCH   5   8
HETATM    8  C2  UNL     1      17.933   9.793  18.034  1.00  0.00     0.262 C 
HETATM    9  O2  UNL     1      18.360  10.915  18.429  1.00  0.00    -0.265 OA
BRANCH   8  10
HETATM   10  O1  UNL     1      18.633   9.165  17.022  1.00  0.00    -0.326 OA
HETATM   11  C1  UNL     1      18.919   9.861  15.821  1.00  0.00     0.213 C 
ENDBRANCH   8  10
ENDBRANCH   5   8
ENDBRANCH   1   2
BRANCH   1  12
HETATM   12  N1  UNL     1      15.292   4.829  20.205  1.00  0.00    -0.405 N 
ATOM     13  H1  UNL     1      15.247   4.516  19.235  1.00  0.00     0.154 HD
BRANCH  12  14
HETATM   14  C8  UNL     1      15.983   4.081  21.189  1.00  0.00     0.165 C 
HETATM   15  C9  UNL     1      16.180   4.706  22.534  1.00  0.00     0.042 C 
BRANCH  14  16
HETATM   16  C10 UNL     1      17.286   3.622  20.649  1.00  0.00     0.240 C 
HETATM   17  O3  UNL     1      17.418   3.453  19.409  1.00  0.00    -0.271 OA
HETATM   18  N2  UNL     1      18.361   3.375  21.515  1.00  0.00    -0.355 N 
ATOM     19  H2  UNL     1      18.226   3.535  22.512  1.00  0.00     0.162 HD
BRANCH  18  20
HETATM   20  C11 UNL     1      19.654   2.904  21.065  1.00  0.00     0.088 C 
HETATM   21  C12 UNL     1      20.756   3.495  21.893  1.00  0.00     0.051 C 
HETATM   22  C13 UNL     1      21.106   2.611  23.041  1.00  0.00     0.169 C 
HETATM   23  O4  UNL     1      21.475   1.355  22.546  1.00  0.00    -0.391 OA
HETATM   24  C14 UNL     1      20.286   0.737  22.149  1.00  0.00     0.169 C 
HETATM   25  C15 UNL     1      19.672   1.409  20.943  1.00  0.00     0.051 C 
ENDBRANCH  18  20
ENDBRANCH  14  16
ENDBRANCH  12  14
ENDBRANCH   1  12
BRANCH   1  26
HETATM   26  C16 UNL     1      13.177   5.825  20.548  1.00  0.00     0.000 C 
HETATM   27  C17 UNL     1      12.497   5.706  21.865  1.00  0.00     0.011 C 
HETATM   28  C18 UNL     1      12.771   4.799  19.538  1.00  0.00     0.011 C 
ENDBRANCH   1  26
TORSDOF 8
ENDMDL
MODEL 3
REMARK VINA RESULT: -8.419329446      3.718      7.052
REMARK  8 active torsions:
REMARK  status: ('A' for Active; 'I' for Inactive)
REMARK    1  A    between atoms: O1_2  and  C2_3 
REMARK    2  A    between atoms: C2_3  and  C3_5 
REMARK    3  A    between atoms: C6_8  and  C7_9 
REMARK    4  A    between atoms: C7_9  and  N1_10 
REMARK    5  A    between atoms: C7_9  and  C16_24 
REMARK    6  A    between atoms: N1_10  and  C8_12 
REMARK    7  A    between atoms: C8_12  and  C10_14 
REMARK       I    between atoms: C10_14  and  N2_16 
REMARK    8  A    between atoms: N2_16  and  C11_18 
ROOT
HETATM    1  C7  UNL     1      15.193   6.035  20.518  1.00  0.00     0.084 C 
ENDROOT
BRANCH   1   2
HETATM    2  C6  UNL     1      16.092   6.964  19.822  1.00  0.00     0.008 C 
HETATM    3  C5  UNL     1      15.900   8.366  20.309  1.00  0.00     0.007 C 
HETATM    4  C4  UNL     1      17.043   9.224  19.885  1.00  0.00     0.015 C 
HETATM    5  C3  UNL     1      17.411   9.021  18.470  1.00  0.00     0.085 C 
HETATM    6  C20 UNL     1      16.471   8.196  17.643  1.00  0.00     0.015 C 
HETATM    7  C19 UNL     1      15.975   6.961  18.323  1.00  0.00     0.007 C 
BRANCH   5   8
HETATM    8  C2  UNL     1      17.538  10.352  17.805  1.00  0.00     0.262 C 
HETATM    9  O2  UNL     1      16.634  10.760  17.023  1.00  0.00    -0.265 OA
BRANCH   8  10
HETATM   10  O1  UNL     1      18.625  11.181  18.009  1.00  0.00    -0.326 OA
HETATM   11  C1  UNL     1      19.193  11.886  16.918  1.00  0.00     0.213 C 
ENDBRANCH   8  10
ENDBRANCH   5   8
ENDBRANCH   1   2
BRANCH   1  12
HETATM   12  N1  UNL     1      15.445   4.673  20.150  1.00  0.00    -0.405 N 
ATOM     13  H1  UNL     1      15.174   4.313  19.235  1.00  0.00     0.154 HD
BRANCH  12  14
HETATM   14  C8  UNL     1      16.086   3.848  21.106  1.00  0.00     0.165 C 
HETATM   15  C9  UNL     1      16.200   4.358  22.508  1.00  0.00     0.042 C 
BRANCH  14  16
HETATM   16  C10 UNL     1      17.421   3.441  20.605  1.00  0.00     0.240 C 
HETATM   17  O3  UNL     1      17.592   3.261  19.371  1.00  0.00    -0.271 OA
HETATM   18  N2  UNL     1      18.485   3.257  21.500  1.00  0.00    -0.355 N 
ATOM     19  H2  UNL     1      18.317   3.426  22.492  1.00  0.00     0.162 HD
BRANCH  18  20
HETATM   20  C11 UNL     1      19.809   2.840  21.089  1.00  0.00     0.088 C 
HETATM   21  C12 UNL     1      20.862   3.516  21.915  1.00  0.00     0.051 C 
HETATM   22  C13 UNL     1      21.237   2.692  23.099  1.00  0.00     0.169 C 
HETATM   23  O4  UNL     1      21.679   1.441  22.655  1.00  0.00    -0.391 OA
HETATM   24  C14 UNL     1      20.532   0.748  22.260  1.00  0.00     0.169 C 
HETATM   25  C15 UNL     1      19.907   1.345  21.022  1.00  0.00     0.051 C 
ENDBRANCH  18  20
ENDBRANCH  14  16
ENDBRANCH  12  14
ENDBRANCH   1  12
BRANCH   1  26
HETATM   26  C16 UNL     1      13.716   6.262  20.412  1.00  0.00     0.000 C 
HETATM   27  C17 UNL     1      13.018   6.435  21.713  1.00  0.00     0.011 C 
HETATM   28  C18 UNL     1      13.033   5.340  19.451  1.00  0.00     0.011 C 
ENDBRANCH   1  26
TORSDOF 8
ENDMDL
MODEL 4
REMARK VINA RESULT: -8.242881807      2.327      3.047
REMARK  8 active torsions:
REMARK  status: ('A' for Active; 'I' for Inactive)
REMARK    1  A    between atoms: O1_2  and  C2_3 
REMARK    2  A    between atoms: C2_3  and  C3_5 
REMARK    3  A    between atoms: C6_8  and  C7_9 
REMARK    4  A    between atoms: C7_9  and  N1_10 
REMARK    5  A    between atoms: C7_9  and  C16_24 
REMARK    6  A    between atoms: N1_10  and  C8_12 
REMARK    7  A    between atoms: C8_12  and  C10_14 
REMARK       I    between atoms: C10_14  and  N2_16 
REMARK    8  A    between atoms: N2_16  and  C11_18 
ROOT
HETATM    1  C7  UNL     1      15.035   6.666  20.699  1.00  0.00     0.084 C 
ENDROOT
BRANCH   1   2
HETATM    2  C6  UNL     1      15.554   7.776  19.891  1.00  0.00     0.008 C 
HETATM    3  C5  UNL     1      16.329   7.270  18.714  1.00  0.00     0.007 C 
HETATM    4  C4  UNL     1      16.529   8.360  17.717  1.00  0.00     0.015 C 
HETATM    5  C3  UNL     1      16.955   9.629  18.340  1.00  0.00     0.085 C 
HETATM    6  C20 UNL     1      17.337   9.571  19.788  1.00  0.00     0.015 C 
HETATM    7  C19 UNL     1      16.412   8.760  20.637  1.00  0.00     0.007 C 
BRANCH   5   8
HETATM    8  C2  UNL     1      18.129  10.168  17.591  1.00  0.00     0.262 C 
HETATM    9  O2  UNL     1      18.943   9.379  17.032  1.00  0.00    -0.265 OA
BRANCH   8  10
HETATM   10  O1  UNL     1      18.376  11.523  17.476  1.00  0.00    -0.326 OA
HETATM   11  C1  UNL     1      19.012  12.032  16.316  1.00  0.00     0.213 C 
ENDBRANCH   8  10
ENDBRANCH   5   8
ENDBRANCH   1   2
BRANCH   1  12
HETATM   12  N1  UNL     1      13.863   7.042  21.432  1.00  0.00    -0.405 N 
ATOM     13  H1  UNL     1      13.930   7.568  22.303  1.00  0.00     0.154 HD
BRANCH  12  14
HETATM   14  C8  UNL     1      12.609   6.656  20.899  1.00  0.00     0.165 C 
HETATM   15  C9  UNL     1      11.481   6.429  21.856  1.00  0.00     0.042 C 
BRANCH  14  16
HETATM   16  C10 UNL     1      12.779   5.469  20.025  1.00  0.00     0.240 C 
HETATM   17  O3  UNL     1      12.872   5.624  18.780  1.00  0.00    -0.271 OA
HETATM   18  N2  UNL     1      12.832   4.184  20.584  1.00  0.00    -0.355 N 
ATOM     19  H2  UNL     1      12.768   4.094  21.597  1.00  0.00     0.162 HD
BRANCH  18  20
HETATM   20  C11 UNL     1      12.973   2.978  19.795  1.00  0.00     0.088 C 
HETATM   21  C12 UNL     1      14.168   2.187  20.237  1.00  0.00     0.051 C 
HETATM   22  C13 UNL     1      13.800   1.177  21.269  1.00  0.00     0.169 C 
HETATM   23  O4  UNL     1      12.813   0.335  20.743  1.00  0.00    -0.391 OA
HETATM   24  C14 UNL     1      11.634   1.085  20.739  1.00  0.00     0.169 C 
HETATM   25  C15 UNL     1      11.683   2.215  19.739  1.00  0.00     0.051 C 
ENDBRANCH  18  20
ENDBRANCH  14  16
ENDBRANCH  12  14
ENDBRANCH   1  12
BRANCH   1  26
HETATM   26  C16 UNL     1      15.966   5.989  21.657  1.00  0.00     0.000 C 
HETATM   27  C17 UNL     1      16.714   4.836  21.090  1.00  0.00     0.011 C 
HETATM   28  C18 UNL     1      15.367   5.744  23.007  1.00  0.00     0.011 C 
ENDBRANCH   1  26
TORSDOF 8
ENDMDL
MODEL 5
REMARK VINA RESULT: -8.227014212      1.242      1.822
REMARK  8 active torsions:
REMARK  status: ('A' for Active; 'I' for Inactive)
REMARK    1  A    between atoms: O1_2  and  C2_3 
REMARK    2  A    between atoms: C2_3  and  C3_5 
REMARK    3  A    between atoms: C6_8  and  C7_9 
REMARK    4  A    between atoms: C7_9  and  N1_10 
REMARK    5  A    between atoms: C7_9  and  C16_24 
REMARK    6  A    between atoms: N1_10  and  C8_12 
REMARK    7  A    between atoms: C8_12  and  C10_14 
REMARK       I    between atoms: C10_14  and  N2_16 
REMARK    8  A    between atoms: N2_16  and  C11_18 
ROOT
HETATM    1  C7  UNL     1      14.913   5.451  20.678  1.00  0.00     0.084 C 
ENDROOT
BRANCH   1   2
HETATM    2  C6  UNL     1      15.817   6.456  20.106  1.00  0.00     0.008 C 
HETATM    3  C5  UNL     1      15.598   7.798  20.731  1.00  0.00     0.007 C 
HETATM    4  C4  UNL     1      16.741   8.705  20.427  1.00  0.00     0.015 C 
HETATM    5  C3  UNL     1      17.145   8.654  19.008  1.00  0.00     0.085 C 
HETATM    6  C20 UNL     1      16.234   7.913  18.077  1.00  0.00     0.015 C 
HETATM    7  C19 UNL     1      15.735   6.609  18.612  1.00  0.00     0.007 C 
BRANCH   5   8
HETATM    8  C2  UNL     1      17.273  10.049  18.490  1.00  0.00     0.262 C 
HETATM    9  O2  UNL     1      17.775  10.953  19.215  1.00  0.00    -0.265 OA
BRANCH   8  10
HETATM   10  O1  UNL     1      16.857  10.408  17.222  1.00  0.00    -0.326 OA
HETATM   11  C1  UNL     1      17.792  10.921  16.288  1.00  0.00     0.213 C 
ENDBRANCH   8  10
ENDBRANCH   5   8
ENDBRANCH   1   2
BRANCH   1  12
HETATM   12  N1  UNL     1      13.624   6.002  20.976  1.00  0.00    -0.405 N 
ATOM     13  H1  UNL     1      13.514   6.985  21.226  1.00  0.00     0.154 HD
BRANCH  12  14
HETATM   14  C8  UNL     1      12.511   5.129  20.911  1.00  0.00     0.165 C 
HETATM   15  C9  UNL     1      12.439   4.169  19.766  1.00  0.00     0.042 C 
BRANCH  14  16
HETATM   16  C10 UNL     1      11.253   5.911  20.996  1.00  0.00     0.240 C 
HETATM   17  O3  UNL     1      11.307   7.167  21.049  1.00  0.00    -0.271 OA
HETATM   18  N2  UNL     1      10.014   5.254  21.020  1.00  0.00    -0.355 N 
ATOM     19  H2  UNL     1      10.005   4.236  20.960  1.00  0.00     0.162 HD
BRANCH  18  20
HETATM   20  C11 UNL     1       8.747   5.946  21.124  1.00  0.00     0.088 C 
HETATM   21  C12 UNL     1       7.701   5.275  20.284  1.00  0.00     0.051 C 
HETATM   22  C13 UNL     1       6.936   4.268  21.072  1.00  0.00     0.169 C 
HETATM   23  O4  UNL     1       6.356   4.904  22.175  1.00  0.00    -0.391 OA
HETATM   24  C14 UNL     1       7.401   5.138  23.073  1.00  0.00     0.169 C 
HETATM   25  C15 UNL     1       8.372   6.173  22.558  1.00  0.00     0.051 C 
ENDBRANCH  18  20
ENDBRANCH  14  16
ENDBRANCH  12  14
ENDBRANCH   1  12
BRANCH   1  26
HETATM   26  C16 UNL     1      15.368   4.693  21.887  1.00  0.00     0.000 C 
HETATM   27  C17 UNL     1      14.949   5.281  23.186  1.00  0.00     0.011 C 
HETATM   28  C18 UNL     1      16.801   4.267  21.825  1.00  0.00     0.011 C 
ENDBRANCH   1  26
TORSDOF 8
ENDMDL
