MODEL 1
REMARK VINA RESULT: -9.785125636      0.000      0.000
REMARK  6 active torsions:
REMARK  status: ('A' for Active; 'I' for Inactive)
REMARK    1  A    between atoms: C2_2  and  O1_3 
REMARK    2  A    between atoms: O1_3  and  C3_4 
REMARK    3  A    between atoms: C3_4  and  C4_5 
REMARK       I    between atoms: C4_5  and  N1_7 
REMARK    4  A    between atoms: N1_7  and  C5_9 
REMARK    5  A    between atoms: C12_17  and  C13_18 
REMARK       I    between atoms: C13_18  and  N2_20 
REMARK    6  A    between atoms: N2_20  and  C14_22 
ROOT
HETATM    1  C5  UNL     1      11.976   4.352  21.391  1.00  0.00     0.129 C 
HETATM    2  C6  UNL     1      12.338   3.202  22.321  1.00  0.00     0.149 C 
HETATM    3  O3  UNL     1      13.740   3.409  22.369  1.00  0.00    -0.377 OA
HETATM    4  C7  UNL     1      13.991   3.227  20.987  1.00  0.00     0.141 C 
HETATM    5  C8  UNL     1      13.521   1.785  20.868  1.00  0.00     0.018 C 
HETATM    6  C9  UNL     1      14.489   0.929  21.620  1.00  0.00     0.013 C 
HETATM    7  C10 UNL     1      12.187   1.903  21.610  1.00  0.00     0.019 C 
HETATM    8  C11 UNL     1      12.005   0.728  22.539  1.00  0.00     0.013 C 
HETATM    9  C12 UNL     1      13.000   4.086  20.279  1.00  0.00     0.132 C 
ENDROOT
BRANCH   9  10
HETATM   10  C13 UNL     1      13.590   5.378  19.794  1.00  0.00     0.231 C 
HETATM   11  O4  UNL     1      12.870   6.016  18.990  1.00  0.00    -0.273 OA
HETATM   12  N2  UNL     1      14.842   5.754  20.255  1.00  0.00    -0.326 N 
ATOM     13  H2  UNL     1      15.299   5.120  20.909  1.00  0.00     0.169 HD
BRANCH  12  14
HETATM   14  C14 UNL     1      15.548   6.928  19.910  1.00  0.00     0.041 A 
HETATM   15  C15 UNL     1      15.917   7.264  18.637  1.00  0.00     0.037 A 
HETATM   16  C16 UNL     1      16.613   8.436  18.358  1.00  0.00    -0.060 A 
HETATM   17  C17 UNL     1      16.994   8.761  16.958  1.00  0.00     0.048 C 
HETATM   18  C18 UNL     1      16.956   9.305  19.362  1.00  0.00     0.007 A 
HETATM   19  C19 UNL     1      16.575   8.947  20.637  1.00  0.00     0.009 A 
HETATM   20  C20 UNL     1      15.892   7.804  20.937  1.00  0.00    -0.035 A 
HETATM   21  C21 UNL     1      15.529   7.518  22.360  1.00  0.00     0.050 C 
ENDBRANCH  12  14
ENDBRANCH   9  10
BRANCH   1  22
HETATM   22  N1  UNL     1      10.639   4.327  20.933  1.00  0.00    -0.351 N 
HETATM   23  C4  UNL     1       9.882   5.522  20.844  1.00  0.00     0.241 C 
HETATM   24  O2  UNL     1      10.428   6.598  21.183  1.00  0.00    -0.271 OA
ATOM     25  H1  UNL     1      10.214   3.440  20.662  1.00  0.00     0.163 HD
BRANCH  23  26
HETATM   26  C3  UNL     1       8.478   5.553  20.372  1.00  0.00     0.270 C 
BRANCH  26  27
HETATM   27  O1  UNL     1       7.788   6.507  21.110  1.00  0.00    -0.382 OA
BRANCH  27  28
HETATM   28  C2  UNL     1       6.511   6.602  20.558  1.00  0.00     0.163 C 
HETATM   29  C1  UNL     1       5.646   5.412  20.900  1.00  0.00     0.033 C 
ENDBRANCH  27  28
ENDBRANCH  26  27
ENDBRANCH  23  26
ENDBRANCH   1  22
TORSDOF 6
ENDMDL
MODEL 2
REMARK VINA RESULT: -8.943819409      1.058      1.103
REMARK  6 active torsions:
REMARK  status: ('A' for Active; 'I' for Inactive)
REMARK    1  A    between atoms: C2_2  and  O1_3 
REMARK    2  A    between atoms: O1_3  and  C3_4 
REMARK    3  A    between atoms: C3_4  and  C4_5 
REMARK       I    between atoms: C4_5  and  N1_7 
REMARK    4  A    between atoms: N1_7  and  C5_9 
REMARK    5  A    between atoms: C12_17  and  C13_18 
REMARK       I    between atoms: C13_18  and  N2_20 
REMARK    6  A    between atoms: N2_20  and  C14_22 
ROOT
HETATM    1  C5  UNL     1      12.919   4.246  21.526  1.00  0.00     0.129 C 
HETATM    2  C6  UNL     1      13.534   3.062  22.261  1.00  0.00     0.149 C 
HETATM    3  O3  UNL     1      14.900   3.420  22.121  1.00  0.00    -0.377 OA
HETATM    4  C7  UNL     1      14.942   3.395  20.705  1.00  0.00     0.141 C 
HETATM    5  C8  UNL     1      14.600   1.927  20.502  1.00  0.00     0.018 C 
HETATM    6  C9  UNL     1      15.753   1.119  21.003  1.00  0.00     0.013 C 
HETATM    7  C10 UNL     1      13.397   1.826  21.444  1.00  0.00     0.019 C 
HETATM    8  C11 UNL     1      13.480   0.557  22.256  1.00  0.00     0.013 C 
HETATM    9  C12 UNL     1      13.773   4.200  20.251  1.00  0.00     0.132 C 
ENDROOT
BRANCH   9  10
HETATM   10  C13 UNL     1      14.151   5.589  19.826  1.00  0.00     0.231 C 
HETATM   11  O4  UNL     1      13.186   6.321  19.503  1.00  0.00    -0.273 OA
HETATM   12  N2  UNL     1      15.491   5.944  19.823  1.00  0.00    -0.326 N 
ATOM     13  H2  UNL     1      16.156   5.228  20.114  1.00  0.00     0.169 HD
BRANCH  12  14
HETATM   14  C14 UNL     1      16.028   7.198  19.457  1.00  0.00     0.041 A 
HETATM   15  C15 UNL     1      16.277   7.588  18.171  1.00  0.00     0.037 A 
HETATM   16  C16 UNL     1      16.809   8.839  17.871  1.00  0.00    -0.060 A 
HETATM   17  C17 UNL     1      17.063   9.221  16.456  1.00  0.00     0.048 C 
HETATM   18  C18 UNL     1      17.103   9.734  18.868  1.00  0.00     0.007 A 
HETATM   19  C19 UNL     1      16.845   9.320  20.157  1.00  0.00     0.009 A 
HETATM   20  C20 UNL     1      16.324   8.100  20.477  1.00  0.00    -0.035 A 
HETATM   21  C21 UNL     1      16.085   7.758  21.913  1.00  0.00     0.050 C 
ENDBRANCH  12  14
ENDBRANCH   9  10
BRANCH   1  22
HETATM   22  N1  UNL     1      11.535   4.114  21.273  1.00  0.00    -0.351 N 
HETATM   23  C4  UNL     1      10.645   5.183  21.544  1.00  0.00     0.241 C 
HETATM   24  O2  UNL     1      11.117   6.245  22.014  1.00  0.00    -0.271 OA
ATOM     25  H1  UNL     1      11.173   3.240  20.890  1.00  0.00     0.163 HD
BRANCH  23  26
HETATM   26  C3  UNL     1       9.187   5.099  21.298  1.00  0.00     0.270 C 
BRANCH  26  27
HETATM   27  O1  UNL     1       8.702   6.385  21.093  1.00  0.00    -0.382 OA
BRANCH  27  28
HETATM   28  C2  UNL     1       7.529   6.501  21.839  1.00  0.00     0.163 C 
HETATM   29  C1  UNL     1       7.341   5.349  22.798  1.00  0.00     0.033 C 
ENDBRANCH  27  28
ENDBRANCH  26  27
ENDBRANCH  23  26
ENDBRANCH   1  22
TORSDOF 6
ENDMDL
MODEL 3
REMARK VINA RESULT: -8.750730714      1.549      2.094
REMARK  6 active torsions:
REMARK  status: ('A' for Active; 'I' for Inactive)
REMARK    1  A    between atoms: C2_2  and  O1_3 
REMARK    2  A    between atoms: O1_3  and  C3_4 
REMARK    3  A    between atoms: C3_4  and  C4_5 
REMARK       I    between atoms: C4_5  and  N1_7 
REMARK    4  A    between atoms: N1_7  and  C5_9 
REMARK    5  A    between atoms: C12_17  and  C13_18 
REMARK       I    between atoms: C13_18  and  N2_20 
REMARK    6  A    between atoms: N2_20  and  C14_22 
ROOT
HETATM    1  C5  UNL     1      14.081   3.538  21.517  1.00  0.00     0.129 C 
HETATM    2  C6  UNL     1      14.225   2.243  22.305  1.00  0.00     0.149 C 
HETATM    3  O3  UNL     1      15.640   2.214  22.399  1.00  0.00    -0.377 OA
HETATM    4  C7  UNL     1      15.905   2.159  21.008  1.00  0.00     0.141 C 
HETATM    5  C8  UNL     1      15.218   0.836  20.707  1.00  0.00     0.018 C 
HETATM    6  C9  UNL     1      16.012  -0.248  21.363  1.00  0.00     0.013 C 
HETATM    7  C10 UNL     1      13.895   1.079  21.439  1.00  0.00     0.019 C 
HETATM    8  C11 UNL     1      13.497  -0.153  22.214  1.00  0.00     0.013 C 
HETATM    9  C12 UNL     1      15.088   3.244  20.397  1.00  0.00     0.132 C 
ENDROOT
BRANCH   9  10
HETATM   10  C13 UNL     1      15.891   4.472  20.082  1.00  0.00     0.231 C 
HETATM   11  O4  UNL     1      17.126   4.284  19.987  1.00  0.00    -0.273 OA
HETATM   12  N2  UNL     1      15.228   5.680  19.925  1.00  0.00    -0.326 N 
ATOM     13  H2  UNL     1      14.214   5.665  20.036  1.00  0.00     0.169 HD
BRANCH  12  14
HETATM   14  C14 UNL     1      15.816   6.929  19.629  1.00  0.00     0.041 A 
HETATM   15  C15 UNL     1      16.103   7.372  18.367  1.00  0.00     0.037 A 
HETATM   16  C16 UNL     1      16.684   8.615  18.138  1.00  0.00    -0.060 A 
HETATM   17  C17 UNL     1      16.977   9.055  16.748  1.00  0.00     0.048 C 
HETATM   18  C18 UNL     1      16.992   9.450  19.181  1.00  0.00     0.007 A 
HETATM   19  C19 UNL     1      16.696   8.984  20.444  1.00  0.00     0.009 A 
HETATM   20  C20 UNL     1      16.126   7.770  20.696  1.00  0.00    -0.035 A 
HETATM   21  C21 UNL     1      15.849   7.369  22.110  1.00  0.00     0.050 C 
ENDBRANCH  12  14
ENDBRANCH   9  10
BRANCH   1  22
HETATM   22  N1  UNL     1      12.774   3.784  21.040  1.00  0.00    -0.351 N 
HETATM   23  C4  UNL     1      12.148   5.037  21.256  1.00  0.00     0.241 C 
HETATM   24  O2  UNL     1      12.783   5.919  21.880  1.00  0.00    -0.271 OA
ATOM     25  H1  UNL     1      12.275   3.051  20.535  1.00  0.00     0.163 HD
BRANCH  23  26
HETATM   26  C3  UNL     1      10.781   5.348  20.778  1.00  0.00     0.270 C 
BRANCH  26  27
HETATM   27  O1  UNL     1      10.478   6.656  21.135  1.00  0.00    -0.382 OA
BRANCH  27  28
HETATM   28  C2  UNL     1       9.607   6.589  22.222  1.00  0.00     0.163 C 
HETATM   29  C1  UNL     1       8.189   6.280  21.805  1.00  0.00     0.033 C 
ENDBRANCH  27  28
ENDBRANCH  26  27
ENDBRANCH  23  26
ENDBRANCH   1  22
TORSDOF 6
ENDMDL
MODEL 4
REMARK VINA RESULT: -8.540763397      1.787      1.864
REMARK  6 active torsions:
REMARK  status: ('A' for Active; 'I' for Inactive)
REMARK    1  A    between atoms: C2_2  and  O1_3 
REMARK    2  A    between atoms: O1_3  and  C3_4 
REMARK    3  A    between atoms: C3_4  and  C4_5 
REMARK       I    between atoms: C4_5  and  N1_7 
REMARK    4  A    between atoms: N1_7  and  C5_9 
REMARK    5  A    between atoms: C12_17  and  C13_18 
REMARK       I    between atoms: C13_18  and  N2_20 
REMARK    6  A    between atoms: N2_20  and  C14_22 
ROOT
HETATM    1  C5  UNL     1      12.530   4.094  21.620  1.00  0.00     0.129 C 
HETATM    2  C6  UNL     1      13.084   2.809  22.220  1.00  0.00     0.149 C 
HETATM    3  O3  UNL     1      14.464   3.059  22.007  1.00  0.00    -0.377 OA
HETATM    4  C7  UNL     1      14.409   3.143  20.594  1.00  0.00     0.141 C 
HETATM    5  C8  UNL     1      13.924   1.729  20.310  1.00  0.00     0.018 C 
HETATM    6  C9  UNL     1      15.030   0.790  20.666  1.00  0.00     0.013 C 
HETATM    7  C10 UNL     1      12.782   1.656  21.328  1.00  0.00     0.019 C 
HETATM    8  C11 UNL     1      12.804   0.325  22.038  1.00  0.00     0.013 C 
HETATM    9  C12 UNL     1      13.289   4.076  20.286  1.00  0.00     0.132 C 
ENDROOT
BRANCH   9  10
HETATM   10  C13 UNL     1      13.760   5.458  19.937  1.00  0.00     0.231 C 
HETATM   11  O4  UNL     1      12.847   6.279  19.688  1.00  0.00    -0.273 OA
HETATM   12  N2  UNL     1      15.123   5.712  19.917  1.00  0.00    -0.326 N 
ATOM     13  H2  UNL     1      15.739   4.931  20.145  1.00  0.00     0.169 HD
BRANCH  12  14
HETATM   14  C14 UNL     1      15.745   6.943  19.613  1.00  0.00     0.041 A 
HETATM   15  C15 UNL     1      16.061   7.361  18.351  1.00  0.00     0.037 A 
HETATM   16  C16 UNL     1      16.674   8.587  18.113  1.00  0.00    -0.060 A 
HETATM   17  C17 UNL     1      16.999   9.001  16.722  1.00  0.00     0.048 C 
HETATM   18  C18 UNL     1      16.986   9.429  19.150  1.00  0.00     0.007 A 
HETATM   19  C19 UNL     1      16.659   8.988  20.415  1.00  0.00     0.009 A 
HETATM   20  C20 UNL     1      16.058   7.791  20.674  1.00  0.00    -0.035 A 
HETATM   21  C21 UNL     1      15.749   7.417  22.088  1.00  0.00     0.050 C 
ENDBRANCH  12  14
ENDBRANCH   9  10
BRANCH   1  22
HETATM   22  N1  UNL     1      11.125   4.100  21.461  1.00  0.00    -0.351 N 
HETATM   23  C4  UNL     1      10.269   4.161  22.588  1.00  0.00     0.241 C 
HETATM   24  O2  UNL     1      10.789   4.209  23.727  1.00  0.00    -0.271 OA
ATOM     25  H1  UNL     1      10.724   4.060  20.523  1.00  0.00     0.163 HD
BRANCH  23  26
HETATM   26  C3  UNL     1       8.792   4.171  22.478  1.00  0.00     0.270 C 
BRANCH  26  27
HETATM   27  O1  UNL     1       8.275   3.318  23.445  1.00  0.00    -0.382 OA
BRANCH  27  28
HETATM   28  C2  UNL     1       7.239   4.003  24.079  1.00  0.00     0.163 C 
HETATM   29  C1  UNL     1       7.076   3.594  25.524  1.00  0.00     0.033 C 
ENDBRANCH  27  28
ENDBRANCH  26  27
ENDBRANCH  23  26
ENDBRANCH   1  22
TORSDOF 6
ENDMDL
MODEL 5
REMARK VINA RESULT: -8.479392324      2.625      5.703
REMARK  6 active torsions:
REMARK  status: ('A' for Active; 'I' for Inactive)
REMARK    1  A    between atoms: C2_2  and  O1_3 
REMARK    2  A    between atoms: O1_3  and  C3_4 
REMARK    3  A    between atoms: C3_4  and  C4_5 
REMARK       I    between atoms: C4_5  and  N1_7 
REMARK    4  A    between atoms: N1_7  and  C5_9 
REMARK    5  A    between atoms: C12_17  and  C13_18 
REMARK       I    between atoms: C13_18  and  N2_20 
REMARK    6  A    between atoms: N2_20  and  C14_22 
ROOT
HETATM    1  C5  UNL     1      14.367   3.190  20.306  1.00  0.00     0.129 C 
HETATM    2  C6  UNL     1      13.221   2.192  20.214  1.00  0.00     0.149 C 
HETATM    3  O3  UNL     1      12.242   3.053  19.653  1.00  0.00    -0.377 OA
HETATM    4  C7  UNL     1      12.203   3.987  20.718  1.00  0.00     0.141 C 
HETATM    5  C8  UNL     1      11.731   3.048  21.816  1.00  0.00     0.018 C 
HETATM    6  C9  UNL     1      10.322   2.656  21.505  1.00  0.00     0.013 C 
HETATM    7  C10 UNL     1      12.699   1.886  21.574  1.00  0.00     0.019 C 
HETATM    8  C11 UNL     1      11.962   0.572  21.652  1.00  0.00     0.013 C 
HETATM    9  C12 UNL     1      13.623   4.339  21.001  1.00  0.00     0.132 C 
ENDROOT
BRANCH   9  10
HETATM   10  C13 UNL     1      14.027   5.656  20.407  1.00  0.00     0.231 C 
HETATM   11  O4  UNL     1      13.078   6.355  19.980  1.00  0.00    -0.273 OA
HETATM   12  N2  UNL     1      15.373   5.988  20.376  1.00  0.00    -0.326 N 
ATOM     13  H2  UNL     1      16.023   5.306  20.765  1.00  0.00     0.169 HD
BRANCH  12  14
HETATM   14  C14 UNL     1      15.934   7.177  19.859  1.00  0.00     0.041 A 
HETATM   15  C15 UNL     1      16.145   7.421  18.530  1.00  0.00     0.037 A 
HETATM   16  C16 UNL     1      16.703   8.614  18.080  1.00  0.00    -0.060 A 
HETATM   17  C17 UNL     1      16.912   8.836  16.625  1.00  0.00     0.048 C 
HETATM   18  C18 UNL     1      17.064   9.598  18.965  1.00  0.00     0.007 A 
HETATM   19  C19 UNL     1      16.844   9.331  20.299  1.00  0.00     0.009 A 
HETATM   20  C20 UNL     1      16.298   8.171  20.766  1.00  0.00    -0.035 A 
HETATM   21  C21 UNL     1      16.105   7.991  22.238  1.00  0.00     0.050 C 
ENDBRANCH  12  14
ENDBRANCH   9  10
BRANCH   1  22
HETATM   22  N1  UNL     1      15.482   2.725  21.041  1.00  0.00    -0.351 N 
HETATM   23  C4  UNL     1      16.802   2.970  20.586  1.00  0.00     0.241 C 
HETATM   24  O2  UNL     1      16.953   3.608  19.517  1.00  0.00    -0.271 OA
ATOM     25  H1  UNL     1      15.335   2.208  21.908  1.00  0.00     0.163 HD
BRANCH  23  26
HETATM   26  C3  UNL     1      18.004   2.506  21.315  1.00  0.00     0.270 C 
BRANCH  26  27
HETATM   27  O1  UNL     1      18.944   3.530  21.307  1.00  0.00    -0.382 OA
BRANCH  27  28
HETATM   28  C2  UNL     1      20.200   2.927  21.252  1.00  0.00     0.163 C 
HETATM   29  C1  UNL     1      21.230   3.665  22.075  1.00  0.00     0.033 C 
ENDBRANCH  27  28
ENDBRANCH  26  27
ENDBRANCH  23  26
ENDBRANCH   1  22
TORSDOF 6
ENDMDL
