MODEL 1
REMARK VINA RESULT: -7.325980514      0.000      0.000
REMARK  6 active torsions:
REMARK  status: ('A' for Active; 'I' for Inactive)
REMARK    1  A    between atoms: C2_2  and  S1_5 
REMARK    2  A    between atoms: S1_5  and  C5_6 
REMARK    3  A    between atoms: C5_6  and  C6_7 
REMARK    4  A    between atoms: C6_7  and  C7_8 
REMARK    5  A    between atoms: C7_8  and  N1_9 
REMARK    6  A    between atoms: C13_20  and  C14_21 
ROOT
HETATM    1  N1  UNL     1      14.281   3.907  20.873  1.00  0.00    -0.322 N 
HETATM    2  C8  UNL     1      14.454   2.750  21.721  1.00  0.00     0.291 C 
HETATM    3  O1  UNL     1      13.649   2.720  22.679  1.00  0.00    -0.264 OA
HETATM    4  C9  UNL     1      15.354   1.600  21.725  1.00  0.00     0.217 C 
HETATM    5  O2  UNL     1      15.555   1.167  22.890  1.00  0.00    -0.287 OA
HETATM    6  C10 UNL     1      16.094   0.801  20.743  1.00  0.00     0.098 C 
HETATM    7  C11 UNL     1      16.170   1.433  19.380  1.00  0.00     0.111 C 
HETATM    8  C12 UNL     1      16.852   2.746  19.546  1.00  0.00     0.219 C 
HETATM    9  O3  UNL     1      18.089   2.683  19.294  1.00  0.00    -0.274 OA
HETATM   10  N2  UNL     1      16.405   4.039  19.923  1.00  0.00    -0.338 N 
ATOM     11  H2  UNL     1      17.170   4.653  20.204  1.00  0.00     0.164 HD
HETATM   12  C13 UNL     1      15.110   4.685  20.000  1.00  0.00     0.212 C 
ENDROOT
BRANCH   1  13
HETATM   13  C7  UNL     1      12.887   4.339  20.976  1.00  0.00     0.129 C 
BRANCH  13  14
HETATM   14  C6  UNL     1      12.039   3.675  19.914  1.00  0.00     0.030 C 
BRANCH  14  15
HETATM   15  C5  UNL     1      10.691   3.293  20.434  1.00  0.00     0.076 C 
BRANCH  15  16
HETATM   16  S1  UNL     1      10.372   3.930  22.104  1.00  0.00    -0.160 SA
BRANCH  16  17
HETATM   17  C2  UNL     1       9.262   5.350  21.922  1.00  0.00    -0.003 C 
HETATM   18  C1  UNL     1      10.041   6.608  22.124  1.00  0.00     0.026 C 
HETATM   19  C3  UNL     1       8.739   5.378  20.481  1.00  0.00     0.026 C 
HETATM   20  C4  UNL     1       8.051   5.267  22.810  1.00  0.00     0.026 C 
ENDBRANCH  16  17
ENDBRANCH  15  16
ENDBRANCH  14  15
ENDBRANCH  13  14
ENDBRANCH   1  13
BRANCH  12  21
HETATM   21  C14 UNL     1      15.343   6.101  20.398  1.00  0.00     0.119 C 
HETATM   22  C15 UNL     1      16.549   6.256  21.260  1.00  0.00     0.028 C 
HETATM   23  C16 UNL     1      16.302   7.421  22.200  1.00  0.00     0.002 C 
HETATM   24  C17 UNL     1      15.841   8.608  21.356  1.00  0.00     0.002 C 
HETATM   25  C18 UNL     1      16.687   8.769  20.137  1.00  0.00     0.019 C 
HETATM   26  C19 UNL     1      16.411   7.804  19.039  1.00  0.00     0.114 C 
HETATM   27  N3  UNL     1      15.329   6.912  19.230  1.00  0.00    -0.413 N 
ATOM     28  H3  UNL     1      14.567   6.853  18.554  1.00  0.00     0.153 HD
ENDBRANCH  12  21
TORSDOF 6
ENDMDL
MODEL 2
REMARK VINA RESULT: -7.312751863      0.891      1.330
REMARK  6 active torsions:
REMARK  status: ('A' for Active; 'I' for Inactive)
REMARK    1  A    between atoms: C2_2  and  S1_5 
REMARK    2  A    between atoms: S1_5  and  C5_6 
REMARK    3  A    between atoms: C5_6  and  C6_7 
REMARK    4  A    between atoms: C6_7  and  C7_8 
REMARK    5  A    between atoms: C7_8  and  N1_9 
REMARK    6  A    between atoms: C13_20  and  C14_21 
ROOT
HETATM    1  N1  UNL     1      14.333   4.294  20.551  1.00  0.00    -0.322 N 
HETATM    2  C8  UNL     1      14.346   3.170  21.460  1.00  0.00     0.291 C 
HETATM    3  O1  UNL     1      13.400   3.191  22.279  1.00  0.00    -0.264 OA
HETATM    4  C9  UNL     1      15.210   2.009  21.649  1.00  0.00     0.217 C 
HETATM    5  O2  UNL     1      15.217   1.621  22.847  1.00  0.00    -0.287 OA
HETATM    6  C10 UNL     1      16.078   1.160  20.827  1.00  0.00     0.098 C 
HETATM    7  C11 UNL     1      16.381   1.734  19.470  1.00  0.00     0.111 C 
HETATM    8  C12 UNL     1      17.055   3.043  19.691  1.00  0.00     0.219 C 
HETATM    9  O3  UNL     1      18.314   2.952  19.640  1.00  0.00    -0.274 OA
HETATM   10  N2  UNL     1      16.581   4.356  19.944  1.00  0.00    -0.338 N 
ATOM     11  H2  UNL     1      17.305   4.971  20.318  1.00  0.00     0.164 HD
HETATM   12  C13 UNL     1      15.304   5.023  19.791  1.00  0.00     0.212 C 
ENDROOT
BRANCH   1  13
HETATM   13  C7  UNL     1      12.948   4.750  20.416  1.00  0.00     0.129 C 
BRANCH  13  14
HETATM   14  C6  UNL     1      12.746   6.070  21.126  1.00  0.00     0.030 C 
BRANCH  14  15
HETATM   15  C5  UNL     1      11.354   6.215  21.649  1.00  0.00     0.076 C 
BRANCH  15  16
HETATM   16  S1  UNL     1      10.234   4.921  21.043  1.00  0.00    -0.160 SA
BRANCH  16  17
HETATM   17  C2  UNL     1       8.557   5.410  21.524  1.00  0.00    -0.003 C 
HETATM   18  C1  UNL     1       8.004   4.393  22.469  1.00  0.00     0.026 C 
HETATM   19  C3  UNL     1       8.636   6.733  22.293  1.00  0.00     0.026 C 
HETATM   20  C4  UNL     1       7.656   5.658  20.345  1.00  0.00     0.026 C 
ENDBRANCH  16  17
ENDBRANCH  15  16
ENDBRANCH  14  15
ENDBRANCH  13  14
ENDBRANCH   1  13
BRANCH  12  21
HETATM   21  C14 UNL     1      15.500   6.451  20.166  1.00  0.00     0.119 C 
HETATM   22  C15 UNL     1      16.662   6.641  21.080  1.00  0.00     0.028 C 
HETATM   23  C16 UNL     1      16.357   7.824  21.980  1.00  0.00     0.002 C 
HETATM   24  C17 UNL     1      15.922   8.985  21.088  1.00  0.00     0.002 C 
HETATM   25  C18 UNL     1      16.823   9.130  19.907  1.00  0.00     0.019 C 
HETATM   26  C19 UNL     1      16.611   8.137  18.820  1.00  0.00     0.114 C 
HETATM   27  N3  UNL     1      15.532   7.235  18.980  1.00  0.00    -0.413 N 
ATOM     28  H3  UNL     1      14.804   7.151  18.271  1.00  0.00     0.153 HD
ENDBRANCH  12  21
TORSDOF 6
ENDMDL
MODEL 3
REMARK VINA RESULT: -7.190670433      2.560      5.391
REMARK  6 active torsions:
REMARK  status: ('A' for Active; 'I' for Inactive)
REMARK    1  A    between atoms: C2_2  and  S1_5 
REMARK    2  A    between atoms: S1_5  and  C5_6 
REMARK    3  A    between atoms: C5_6  and  C6_7 
REMARK    4  A    between atoms: C6_7  and  C7_8 
REMARK    5  A    between atoms: C7_8  and  N1_9 
REMARK    6  A    between atoms: C13_20  and  C14_21 
ROOT
HETATM    1  N1  UNL     1      12.772   5.269  20.978  1.00  0.00    -0.322 N 
HETATM    2  C8  UNL     1      13.635   5.907  20.011  1.00  0.00     0.291 C 
HETATM    3  O1  UNL     1      13.051   6.177  18.936  1.00  0.00    -0.264 OA
HETATM    4  C9  UNL     1      15.037   6.313  19.990  1.00  0.00     0.217 C 
HETATM    5  O2  UNL     1      15.514   6.290  18.825  1.00  0.00    -0.287 OA
HETATM    6  C10 UNL     1      16.053   6.744  20.955  1.00  0.00     0.098 C 
HETATM    7  C11 UNL     1      15.674   6.495  22.389  1.00  0.00     0.111 C 
HETATM    8  C12 UNL     1      15.461   5.030  22.536  1.00  0.00     0.219 C 
HETATM    9  O3  UNL     1      16.484   4.435  22.980  1.00  0.00    -0.274 OA
HETATM   10  N2  UNL     1      14.360   4.171  22.282  1.00  0.00    -0.338 N 
ATOM     11  H2  UNL     1      14.631   3.189  22.228  1.00  0.00     0.164 HD
HETATM   12  C13 UNL     1      12.939   4.372  22.083  1.00  0.00     0.212 C 
ENDROOT
BRANCH   1  13
HETATM   13  C7  UNL     1      11.397   5.691  20.706  1.00  0.00     0.129 C 
BRANCH  13  14
HETATM   14  C6  UNL     1      10.919   6.672  21.752  1.00  0.00     0.030 C 
BRANCH  14  15
HETATM   15  C5  UNL     1       9.510   6.399  22.171  1.00  0.00     0.076 C 
BRANCH  15  16
HETATM   16  S1  UNL     1       8.616   5.346  20.994  1.00  0.00    -0.160 SA
BRANCH  16  17
HETATM   17  C2  UNL     1       6.850   5.545  21.347  1.00  0.00    -0.003 C 
HETATM   18  C1  UNL     1       6.106   4.374  20.795  1.00  0.00     0.026 C 
HETATM   19  C3  UNL     1       6.651   5.522  22.866  1.00  0.00     0.026 C 
HETATM   20  C4  UNL     1       6.300   6.861  20.868  1.00  0.00     0.026 C 
ENDBRANCH  16  17
ENDBRANCH  15  16
ENDBRANCH  14  15
ENDBRANCH  13  14
ENDBRANCH   1  13
BRANCH  12  21
HETATM   21  C14 UNL     1      12.315   3.028  21.943  1.00  0.00     0.119 C 
HETATM   22  C15 UNL     1      13.283   1.924  22.204  1.00  0.00     0.028 C 
HETATM   23  C16 UNL     1      12.879   0.739  21.348  1.00  0.00     0.002 C 
HETATM   24  C17 UNL     1      11.391   0.485  21.579  1.00  0.00     0.002 C 
HETATM   25  C18 UNL     1      11.051   0.536  23.031  1.00  0.00     0.019 C 
HETATM   26  C19 UNL     1      10.970   1.900  23.619  1.00  0.00     0.114 C 
HETATM   27  N3  UNL     1      11.131   2.988  22.729  1.00  0.00    -0.413 N 
ATOM     28  H3  UNL     1      10.422   3.719  22.654  1.00  0.00     0.153 HD
ENDBRANCH  12  21
TORSDOF 6
ENDMDL
MODEL 4
REMARK VINA RESULT: -7.165830364      2.333      5.084
REMARK  6 active torsions:
REMARK  status: ('A' for Active; 'I' for Inactive)
REMARK    1  A    between atoms: C2_2  and  S1_5 
REMARK    2  A    between atoms: S1_5  and  C5_6 
REMARK    3  A    between atoms: C5_6  and  C6_7 
REMARK    4  A    between atoms: C6_7  and  C7_8 
REMARK    5  A    between atoms: C7_8  and  N1_9 
REMARK    6  A    between atoms: C13_20  and  C14_21 
ROOT
HETATM    1  N1  UNL     1      13.325   4.659  20.544  1.00  0.00    -0.322 N 
HETATM    2  C8  UNL     1      13.801   5.731  19.699  1.00  0.00     0.291 C 
HETATM    3  O1  UNL     1      12.966   6.079  18.833  1.00  0.00    -0.264 OA
HETATM    4  C9  UNL     1      15.033   6.509  19.617  1.00  0.00     0.217 C 
HETATM    5  O2  UNL     1      15.259   6.907  18.444  1.00  0.00    -0.287 OA
HETATM    6  C10 UNL     1      16.091   6.960  20.527  1.00  0.00     0.098 C 
HETATM    7  C11 UNL     1      16.076   6.272  21.864  1.00  0.00     0.111 C 
HETATM    8  C12 UNL     1      16.251   4.816  21.607  1.00  0.00     0.219 C 
HETATM    9  O3  UNL     1      17.453   4.445  21.726  1.00  0.00    -0.274 OA
HETATM   10  N2  UNL     1      15.356   3.771  21.260  1.00  0.00    -0.338 N 
ATOM     11  H2  UNL     1      15.835   2.949  20.890  1.00  0.00     0.164 HD
HETATM   12  C13 UNL     1      13.918   3.604  21.311  1.00  0.00     0.212 C 
ENDROOT
BRANCH   1  13
HETATM   13  C7  UNL     1      11.864   4.729  20.583  1.00  0.00     0.129 C 
BRANCH  13  14
HETATM   14  C6  UNL     1      11.386   5.246  21.922  1.00  0.00     0.030 C 
BRANCH  14  15
HETATM   15  C5  UNL     1      10.161   6.091  21.789  1.00  0.00     0.076 C 
BRANCH  15  16
HETATM   16  S1  UNL     1       8.915   5.361  20.690  1.00  0.00    -0.160 SA
BRANCH  16  17
HETATM   17  C2  UNL     1       7.308   5.588  21.494  1.00  0.00    -0.003 C 
HETATM   18  C1  UNL     1       6.604   6.744  20.862  1.00  0.00     0.026 C 
HETATM   19  C3  UNL     1       6.449   4.347  21.226  1.00  0.00     0.026 C 
HETATM   20  C4  UNL     1       7.411   5.717  22.989  1.00  0.00     0.026 C 
ENDBRANCH  16  17
ENDBRANCH  15  16
ENDBRANCH  14  15
ENDBRANCH  13  14
ENDBRANCH   1  13
BRANCH  12  21
HETATM   21  C14 UNL     1      13.615   2.215  20.869  1.00  0.00     0.119 C 
HETATM   22  C15 UNL     1      14.598   1.713  19.867  1.00  0.00     0.028 C 
HETATM   23  C16 UNL     1      13.872   0.748  18.948  1.00  0.00     0.002 C 
HETATM   24  C17 UNL     1      13.132  -0.260  19.825  1.00  0.00     0.002 C 
HETATM   25  C18 UNL     1      14.000  -0.758  20.931  1.00  0.00     0.019 C 
HETATM   26  C19 UNL     1      14.187   0.183  22.068  1.00  0.00     0.114 C 
HETATM   27  N3  UNL     1      13.455   1.394  22.019  1.00  0.00    -0.413 N 
ATOM     28  H3  UNL     1      12.835   1.668  22.782  1.00  0.00     0.153 HD
ENDBRANCH  12  21
TORSDOF 6
ENDMDL
MODEL 5
REMARK VINA RESULT: -7.116420432      2.398      5.011
REMARK  6 active torsions:
REMARK  status: ('A' for Active; 'I' for Inactive)
REMARK    1  A    between atoms: C2_2  and  S1_5 
REMARK    2  A    between atoms: S1_5  and  C5_6 
REMARK    3  A    between atoms: C5_6  and  C6_7 
REMARK    4  A    between atoms: C6_7  and  C7_8 
REMARK    5  A    between atoms: C7_8  and  N1_9 
REMARK    6  A    between atoms: C13_20  and  C14_21 
ROOT
HETATM    1  N1  UNL     1      13.396   4.738  20.588  1.00  0.00    -0.322 N 
HETATM    2  C8  UNL     1      13.858   5.774  19.693  1.00  0.00     0.291 C 
HETATM    3  O1  UNL     1      13.001   6.104  18.842  1.00  0.00    -0.264 OA
HETATM    4  C9  UNL     1      15.098   6.531  19.546  1.00  0.00     0.217 C 
HETATM    5  O2  UNL     1      15.291   6.886  18.353  1.00  0.00    -0.287 OA
HETATM    6  C10 UNL     1      16.190   6.998  20.406  1.00  0.00     0.098 C 
HETATM    7  C11 UNL     1      16.209   6.356  21.766  1.00  0.00     0.111 C 
HETATM    8  C12 UNL     1      16.356   4.890  21.553  1.00  0.00     0.219 C 
HETATM    9  O3  UNL     1      17.557   4.506  21.647  1.00  0.00    -0.274 OA
HETATM   10  N2  UNL     1      15.438   3.846  21.270  1.00  0.00    -0.338 N 
ATOM     11  H2  UNL     1      15.894   3.006  20.913  1.00  0.00     0.164 HD
HETATM   12  C13 UNL     1      14.000   3.701  21.372  1.00  0.00     0.212 C 
ENDROOT
BRANCH   1  13
HETATM   13  C7  UNL     1      11.938   4.829  20.671  1.00  0.00     0.129 C 
BRANCH  13  14
HETATM   14  C6  UNL     1      11.516   5.562  21.925  1.00  0.00     0.030 C 
BRANCH  14  15
HETATM   15  C5  UNL     1      10.156   5.147  22.384  1.00  0.00     0.076 C 
BRANCH  15  16
HETATM   16  S1  UNL     1       8.921   6.466  22.215  1.00  0.00    -0.160 SA
BRANCH  16  17
HETATM   17  C2  UNL     1       7.493   5.744  21.366  1.00  0.00    -0.003 C 
HETATM   18  C1  UNL     1       7.975   4.796  20.318  1.00  0.00     0.026 C 
HETATM   19  C3  UNL     1       6.692   4.916  22.378  1.00  0.00     0.026 C 
HETATM   20  C4  UNL     1       6.546   6.779  20.823  1.00  0.00     0.026 C 
ENDBRANCH  16  17
ENDBRANCH  15  16
ENDBRANCH  14  15
ENDBRANCH  13  14
ENDBRANCH   1  13
BRANCH  12  21
HETATM   21  C14 UNL     1      13.666   2.302  20.988  1.00  0.00     0.119 C 
HETATM   22  C15 UNL     1      12.423   1.815  21.652  1.00  0.00     0.028 C 
HETATM   23  C16 UNL     1      12.564   0.318  21.861  1.00  0.00     0.002 C 
HETATM   24  C17 UNL     1      12.979  -0.299  20.527  1.00  0.00     0.002 C 
HETATM   25  C18 UNL     1      12.167   0.247  19.400  1.00  0.00     0.019 C 
HETATM   26  C19 UNL     1      12.540   1.615  18.951  1.00  0.00     0.114 C 
HETATM   27  N3  UNL     1      13.668   2.204  19.569  1.00  0.00    -0.413 N 
ATOM     28  H3  UNL     1      14.456   2.545  19.018  1.00  0.00     0.153 HD
ENDBRANCH  12  21
TORSDOF 6
ENDMDL
