MODEL 1
REMARK VINA RESULT: -4.725271215      0.000      0.000
REMARK  1 active torsions:
REMARK  status: ('A' for Active; 'I' for Inactive)
REMARK    1  A    between atoms: O1_1  and  N1_3 
ROOT
HETATM    1  N1  UNL     1      -4.949   1.410  16.652  1.00  0.00    -0.151 N 
HETATM    2  C1  UNL     1      -6.038   0.973  17.339  1.00  0.00     0.309 A 
HETATM    3  F1  UNL     1      -6.090  -0.198  18.004  1.00  0.00    -0.161 F 
HETATM    4  N2  UNL     1      -7.029   1.876  17.252  1.00  0.00    -0.257 N 
ATOM      5  H2  UNL     1      -7.953   1.794  17.676  1.00  0.00     0.191 HD
HETATM    6  N3  UNL     1      -6.594   2.891  16.516  1.00  0.00    -0.270 N 
ATOM      7  H3  UNL     1      -7.118   3.732  16.271  1.00  0.00     0.189 HD
HETATM    8  C2  UNL     1      -5.333   2.600  16.157  1.00  0.00     0.224 A 
HETATM    9 CL1  UNL     1      -4.332   3.638  15.175  1.00  0.00    -0.041 Cl
ENDROOT
BRANCH   1  10
HETATM   10  O1  UNL     1      -3.733   0.780  16.496  1.00  0.00    -0.277 OA
ATOM     11  H1  UNL     1      -2.886   1.049  16.833  1.00  0.00     0.245 HD
ENDBRANCH   1  10
TORSDOF 1
ENDMDL
MODEL 2
REMARK VINA RESULT: -4.616090811      2.699      3.017
REMARK  1 active torsions:
REMARK  status: ('A' for Active; 'I' for Inactive)
REMARK    1  A    between atoms: O1_1  and  N1_3 
ROOT
HETATM    1  N1  UNL     1      -4.627   0.859  15.117  1.00  0.00    -0.151 N 
HETATM    2  C1  UNL     1      -4.484   1.961  15.901  1.00  0.00     0.309 A 
HETATM    3  F1  UNL     1      -4.639   1.959  17.240  1.00  0.00    -0.161 F 
HETATM    4  N2  UNL     1      -4.172   3.026  15.144  1.00  0.00    -0.257 N 
ATOM      5  H2  UNL     1      -4.011   3.976  15.482  1.00  0.00     0.191 HD
HETATM    6  N3  UNL     1      -4.110   2.627  13.880  1.00  0.00    -0.270 N 
ATOM      7  H3  UNL     1      -3.893   3.207  13.068  1.00  0.00     0.189 HD
HETATM    8  C2  UNL     1      -4.387   1.312  13.874  1.00  0.00     0.224 A 
HETATM    9 CL1  UNL     1      -4.429   0.330  12.433  1.00  0.00    -0.041 Cl
ENDROOT
BRANCH   1  10
HETATM   10  O1  UNL     1      -4.944  -0.424  15.505  1.00  0.00    -0.277 OA
ATOM     11  H1  UNL     1      -5.101  -0.749  16.384  1.00  0.00     0.245 HD
ENDBRANCH   1  10
TORSDOF 1
ENDMDL
MODEL 3
REMARK VINA RESULT: -4.489381915      2.337      2.637
REMARK  1 active torsions:
REMARK  status: ('A' for Active; 'I' for Inactive)
REMARK    1  A    between atoms: O1_1  and  N1_3 
ROOT
HETATM    1  N1  UNL     1      -5.917   1.169  16.161  1.00  0.00    -0.151 N 
HETATM    2  C1  UNL     1      -4.799   0.806  15.477  1.00  0.00     0.309 A 
HETATM    3  F1  UNL     1      -4.497  -0.465  15.145  1.00  0.00    -0.161 F 
HETATM    4  N2  UNL     1      -4.061   1.892  15.194  1.00  0.00    -0.257 N 
ATOM      5  H2  UNL     1      -3.174   1.899  14.689  1.00  0.00     0.191 HD
HETATM    6  N3  UNL     1      -4.688   2.953  15.685  1.00  0.00    -0.270 N 
ATOM      7  H3  UNL     1      -4.377   3.924  15.629  1.00  0.00     0.189 HD
HETATM    8  C2  UNL     1      -5.812   2.505  16.269  1.00  0.00     0.224 A 
HETATM    9 CL1  UNL     1      -6.977   3.532  17.063  1.00  0.00    -0.041 Cl
ENDROOT
BRANCH   1  10
HETATM   10  O1  UNL     1      -6.924   0.357  16.634  1.00  0.00    -0.277 OA
ATOM     11  H1  UNL     1      -6.843  -0.476  17.085  1.00  0.00     0.245 HD
ENDBRANCH   1  10
TORSDOF 1
ENDMDL
MODEL 4
REMARK VINA RESULT: -4.488850747      2.682      3.006
REMARK  1 active torsions:
REMARK  status: ('A' for Active; 'I' for Inactive)
REMARK    1  A    between atoms: O1_1  and  N1_3 
ROOT
HETATM    1  N1  UNL     1      -4.546   2.124  16.280  1.00  0.00    -0.151 N 
HETATM    2  C1  UNL     1      -4.596   3.257  15.530  1.00  0.00     0.309 A 
HETATM    3  F1  UNL     1      -3.529   3.795  14.905  1.00  0.00    -0.161 F 
HETATM    4  N2  UNL     1      -5.848   3.743  15.512  1.00  0.00    -0.257 N 
ATOM      5  H2  UNL     1      -6.159   4.583  15.024  1.00  0.00     0.191 HD
HETATM    6  N3  UNL     1      -6.610   2.938  16.242  1.00  0.00    -0.270 N 
ATOM      7  H3  UNL     1      -7.610   3.041  16.419  1.00  0.00     0.189 HD
HETATM    8  C2  UNL     1      -5.812   1.960  16.704  1.00  0.00     0.224 A 
HETATM    9 CL1  UNL     1      -6.358   0.652  17.720  1.00  0.00    -0.041 Cl
ENDROOT
BRANCH   1  10
HETATM   10  O1  UNL     1      -3.453   1.329  16.547  1.00  0.00    -0.277 OA
ATOM     11  H1  UNL     1      -2.706   1.526  17.100  1.00  0.00     0.245 HD
ENDBRANCH   1  10
TORSDOF 1
ENDMDL
MODEL 5
REMARK VINA RESULT: -4.447882322      1.756      2.171
REMARK  1 active torsions:
REMARK  status: ('A' for Active; 'I' for Inactive)
REMARK    1  A    between atoms: O1_1  and  N1_3 
ROOT
HETATM    1  N1  UNL     1      -6.126   2.268  16.758  1.00  0.00    -0.151 N 
HETATM    2  C1  UNL     1      -6.474   1.045  17.239  1.00  0.00     0.309 A 
HETATM    3  F1  UNL     1      -7.657   0.775  17.827  1.00  0.00    -0.161 F 
HETATM    4  N2  UNL     1      -5.475   0.170  17.038  1.00  0.00    -0.257 N 
ATOM      5  H2  UNL     1      -5.478  -0.815  17.305  1.00  0.00     0.191 HD
HETATM    6  N3  UNL     1      -4.484   0.812  16.433  1.00  0.00    -0.270 N 
ATOM      7  H3  UNL     1      -3.587   0.416  16.147  1.00  0.00     0.189 HD
HETATM    8  C2  UNL     1      -4.887   2.083  16.267  1.00  0.00     0.224 A 
HETATM    9 CL1  UNL     1      -3.921   3.323  15.512  1.00  0.00    -0.041 Cl
ENDROOT
BRANCH   1  10
HETATM   10  O1  UNL     1      -6.867   3.429  16.770  1.00  0.00    -0.277 OA
ATOM     11  H1  UNL     1      -6.668   4.247  17.210  1.00  0.00     0.245 HD
ENDBRANCH   1  10
TORSDOF 1
ENDMDL
