MODEL 1
REMARK VINA RESULT: -4.843396899      0.000      0.000
REMARK  1 active torsions:
REMARK  status: ('A' for Active; 'I' for Inactive)
REMARK    1  A    between atoms: O1_1  and  N1_3 
ROOT
HETATM    1  N1  UNL     1      -5.044   0.939  15.513  1.00  0.00    -0.132 N 
HETATM    2  N2  UNL     1      -4.305   1.808  14.846  1.00  0.00    -0.213 N 
ATOM      3  H2  UNL     1      -3.496   1.558  14.278  1.00  0.00     0.211 HD
HETATM    4  N3  UNL     1      -4.747   3.038  15.008  1.00  0.00    -0.257 N 
ATOM      5  H3  UNL     1      -4.341   3.876  14.593  1.00  0.00     0.191 HD
HETATM    6  C1  UNL     1      -5.828   3.001  15.815  1.00  0.00     0.247 A 
HETATM    7  F1  UNL     1      -6.554   4.068  16.210  1.00  0.00    -0.181 F 
HETATM    8  C2  UNL     1      -5.995   1.670  16.120  1.00  0.00     0.209 A 
HETATM    9 CL1  UNL     1      -7.239   1.024  17.131  1.00  0.00    -0.055 Cl
ENDROOT
BRANCH   1  10
HETATM   10  O1  UNL     1      -4.893  -0.443  15.587  1.00  0.00    -0.266 OA
ATOM     11  H1  UNL     1      -5.229  -1.104  14.993  1.00  0.00     0.247 HD
ENDBRANCH   1  10
TORSDOF 1
ENDMDL
MODEL 2
REMARK VINA RESULT: -4.829006613      2.153      2.534
REMARK  1 active torsions:
REMARK  status: ('A' for Active; 'I' for Inactive)
REMARK    1  A    between atoms: O1_1  and  N1_3 
ROOT
HETATM    1  N1  UNL     1      -4.964   0.932  16.739  1.00  0.00    -0.132 N 
HETATM    2  N2  UNL     1      -5.862   0.391  17.542  1.00  0.00    -0.213 N 
ATOM      3  H2  UNL     1      -5.807  -0.558  17.909  1.00  0.00     0.211 HD
HETATM    4  N3  UNL     1      -6.838   1.235  17.808  1.00  0.00    -0.257 N 
ATOM      5  H3  UNL     1      -7.644   1.046  18.403  1.00  0.00     0.191 HD
HETATM    6  C1  UNL     1      -6.591   2.393  17.160  1.00  0.00     0.247 A 
HETATM    7  F1  UNL     1      -7.368   3.495  17.190  1.00  0.00    -0.181 F 
HETATM    8  C2  UNL     1      -5.406   2.177  16.494  1.00  0.00     0.209 A 
HETATM    9 CL1  UNL     1      -4.599   3.330  15.491  1.00  0.00    -0.055 Cl
ENDROOT
BRANCH   1  10
HETATM   10  O1  UNL     1      -3.799   0.357  16.238  1.00  0.00    -0.266 OA
ATOM     11  H1  UNL     1      -3.571  -0.564  16.190  1.00  0.00     0.247 HD
ENDBRANCH   1  10
TORSDOF 1
ENDMDL
MODEL 3
REMARK VINA RESULT: -4.732381743      1.574      1.714
REMARK  1 active torsions:
REMARK  status: ('A' for Active; 'I' for Inactive)
REMARK    1  A    between atoms: O1_1  and  N1_3 
ROOT
HETATM    1  N1  UNL     1      -5.423   0.660  16.824  1.00  0.00    -0.132 N 
HETATM    2  N2  UNL     1      -4.356   0.439  16.079  1.00  0.00    -0.213 N 
ATOM      3  H2  UNL     1      -3.910  -0.472  15.969  1.00  0.00     0.211 HD
HETATM    4  N3  UNL     1      -3.940   1.544  15.495  1.00  0.00    -0.257 N 
ATOM      5  H3  UNL     1      -3.136   1.623  14.872  1.00  0.00     0.191 HD
HETATM    6  C1  UNL     1      -4.759   2.553  15.859  1.00  0.00     0.247 A 
HETATM    7  F1  UNL     1      -4.651   3.839  15.461  1.00  0.00    -0.181 F 
HETATM    8  C2  UNL     1      -5.683   1.973  16.696  1.00  0.00     0.209 A 
HETATM    9 CL1  UNL     1      -6.989   2.799  17.470  1.00  0.00    -0.055 Cl
ENDROOT
BRANCH   1  10
HETATM   10  O1  UNL     1      -6.144  -0.253  17.590  1.00  0.00    -0.266 OA
ATOM     11  H1  UNL     1      -5.880  -0.683  18.395  1.00  0.00     0.247 HD
ENDBRANCH   1  10
TORSDOF 1
ENDMDL
MODEL 4
REMARK VINA RESULT: -4.710836909      1.033      1.033
REMARK  1 active torsions:
REMARK  status: ('A' for Active; 'I' for Inactive)
REMARK    1  A    between atoms: O1_1  and  N1_3 
ROOT
HETATM    1  N1  UNL     1      -4.455   1.750  16.156  1.00  0.00    -0.132 N 
HETATM    2  N2  UNL     1      -3.699   2.681  15.602  1.00  0.00    -0.213 N 
ATOM      3  H2  UNL     1      -2.689   2.605  15.483  1.00  0.00     0.211 HD
HETATM    4  N3  UNL     1      -4.416   3.718  15.222  1.00  0.00    -0.257 N 
ATOM      5  H3  UNL     1      -4.056   4.559  14.771  1.00  0.00     0.191 HD
HETATM    6  C1  UNL     1      -5.708   3.481  15.531  1.00  0.00     0.247 A 
HETATM    7  F1  UNL     1      -6.742   4.316  15.295  1.00  0.00    -0.181 F 
HETATM    8  C2  UNL     1      -5.707   2.236  16.118  1.00  0.00     0.209 A 
HETATM    9 CL1  UNL     1      -7.103   1.413  16.718  1.00  0.00    -0.055 Cl
ENDROOT
BRANCH   1  10
HETATM   10  O1  UNL     1      -4.064   0.519  16.676  1.00  0.00    -0.266 OA
ATOM     11  H1  UNL     1      -4.599  -0.128  17.121  1.00  0.00     0.247 HD
ENDBRANCH   1  10
TORSDOF 1
ENDMDL
MODEL 5
REMARK VINA RESULT: -4.667672187      2.291      2.718
REMARK  1 active torsions:
REMARK  status: ('A' for Active; 'I' for Inactive)
REMARK    1  A    between atoms: O1_1  and  N1_3 
ROOT
HETATM    1  N1  UNL     1      -4.624   1.912  16.199  1.00  0.00    -0.132 N 
HETATM    2  N2  UNL     1      -4.417   0.639  16.487  1.00  0.00    -0.213 N 
ATOM      3  H2  UNL     1      -3.548   0.141  16.300  1.00  0.00     0.211 HD
HETATM    4  N3  UNL     1      -5.478   0.096  17.048  1.00  0.00    -0.257 N 
ATOM      5  H3  UNL     1      -5.559  -0.872  17.358  1.00  0.00     0.191 HD
HETATM    6  C1  UNL     1      -6.441   1.037  17.143  1.00  0.00     0.247 A 
HETATM    7  F1  UNL     1      -7.672   0.856  17.664  1.00  0.00    -0.181 F 
HETATM    8  C2  UNL     1      -5.879   2.171  16.602  1.00  0.00     0.209 A 
HETATM    9 CL1  UNL     1      -6.663   3.704  16.458  1.00  0.00    -0.055 Cl
ENDROOT
BRANCH   1  10
HETATM   10  O1  UNL     1      -3.745   2.813  15.604  1.00  0.00    -0.266 OA
ATOM     11  H1  UNL     1      -2.874   3.061  15.890  1.00  0.00     0.247 HD
ENDBRANCH   1  10
TORSDOF 1
ENDMDL
