MODEL 1
REMARK VINA RESULT: -4.567397138      0.000      0.000
REMARK  1 active torsions:
REMARK  status: ('A' for Active; 'I' for Inactive)
REMARK    1  A    between atoms: N1_3  and  O2_4 
ROOT
HETATM    1  O1  UNL     1      -3.188   1.909  16.678  1.00  0.00    -0.265 OA
HETATM    2  C1  UNL     1      -4.277   1.543  16.178  1.00  0.00     0.309 A 
HETATM    3  N1  UNL     1      -5.040   0.650  15.277  1.00  0.00    -0.174 N 
HETATM    4  C2  UNL     1      -5.710   1.671  16.050  1.00  0.00     0.297 A 
HETATM    5 CL1  UNL     1      -6.770   1.160  17.372  1.00  0.00    -0.065 Cl
HETATM    6 CL2  UNL     1      -6.281   3.136  15.202  1.00  0.00    -0.065 Cl
ENDROOT
BRANCH   3   7
HETATM    7  O2  UNL     1      -4.876  -0.363  14.427  1.00  0.00    -0.281 OA
ATOM      8  H2  UNL     1      -5.213  -0.711  13.610  1.00  0.00     0.245 HD
ENDBRANCH   3   7
TORSDOF 1
ENDMDL
MODEL 2
REMARK VINA RESULT: -4.405927784      0.843      2.629
REMARK  1 active torsions:
REMARK  status: ('A' for Active; 'I' for Inactive)
REMARK    1  A    between atoms: N1_3  and  O2_4 
ROOT
HETATM    1  O1  UNL     1      -4.983  -0.331  14.889  1.00  0.00    -0.265 OA
HETATM    2  C1  UNL     1      -5.004   0.742  15.535  1.00  0.00     0.309 A 
HETATM    3  N1  UNL     1      -4.294   1.797  16.294  1.00  0.00    -0.174 N 
HETATM    4  C2  UNL     1      -5.724   1.864  16.090  1.00  0.00     0.297 A 
HETATM    5 CL1  UNL     1      -6.359   3.128  15.026  1.00  0.00    -0.065 Cl
HETATM    6 CL2  UNL     1      -6.794   1.489  17.470  1.00  0.00    -0.065 Cl
ENDROOT
BRANCH   3   7
HETATM    7  O2  UNL     1      -3.078   2.143  16.712  1.00  0.00    -0.281 OA
ATOM      8  H2  UNL     1      -2.566   2.902  16.966  1.00  0.00     0.245 HD
ENDBRANCH   3   7
TORSDOF 1
ENDMDL
MODEL 3
REMARK VINA RESULT: -4.321646768      1.908      2.060
REMARK  1 active torsions:
REMARK  status: ('A' for Active; 'I' for Inactive)
REMARK    1  A    between atoms: N1_3  and  O2_4 
ROOT
HETATM    1  O1  UNL     1      -3.345   1.596  16.611  1.00  0.00    -0.265 OA
HETATM    2  C1  UNL     1      -4.476   1.756  16.095  1.00  0.00     0.309 A 
HETATM    3  N1  UNL     1      -5.896   1.357  15.966  1.00  0.00    -0.174 N 
HETATM    4  C2  UNL     1      -5.362   2.457  15.196  1.00  0.00     0.297 A 
HETATM    5 CL1  UNL     1      -5.911   4.095  15.586  1.00  0.00    -0.065 Cl
HETATM    6 CL2  UNL     1      -5.056   2.203  13.455  1.00  0.00    -0.065 Cl
ENDROOT
BRANCH   3   7
HETATM    7  O2  UNL     1      -6.778   0.473  16.431  1.00  0.00    -0.281 OA
ATOM      8  H2  UNL     1      -7.526   0.404  17.013  1.00  0.00     0.245 HD
ENDBRANCH   3   7
TORSDOF 1
ENDMDL
MODEL 4
REMARK VINA RESULT: -4.238465962      1.873      2.825
REMARK  1 active torsions:
REMARK  status: ('A' for Active; 'I' for Inactive)
REMARK    1  A    between atoms: N1_3  and  O2_4 
ROOT
HETATM    1  O1  UNL     1      -5.899  -0.640  17.134  1.00  0.00    -0.265 OA
HETATM    2  C1  UNL     1      -5.617   0.581  17.170  1.00  0.00     0.309 A 
HETATM    3  N1  UNL     1      -4.655   1.683  16.943  1.00  0.00    -0.174 N 
HETATM    4  C2  UNL     1      -5.979   1.948  17.461  1.00  0.00     0.297 A 
HETATM    5 CL1  UNL     1      -7.128   2.804  16.422  1.00  0.00    -0.065 Cl
HETATM    6 CL2  UNL     1      -6.144   2.353  19.193  1.00  0.00    -0.065 Cl
ENDROOT
BRANCH   3   7
HETATM    7  O2  UNL     1      -3.416   1.914  16.513  1.00  0.00    -0.281 OA
ATOM      8  H2  UNL     1      -2.608   1.465  16.293  1.00  0.00     0.245 HD
ENDBRANCH   3   7
TORSDOF 1
ENDMDL
MODEL 5
REMARK VINA RESULT: -4.166183147      1.958      2.418
REMARK  1 active torsions:
REMARK  status: ('A' for Active; 'I' for Inactive)
REMARK    1  A    between atoms: N1_3  and  O2_4 
ROOT
HETATM    1  O1  UNL     1      -5.772   3.787  15.678  1.00  0.00    -0.265 OA
HETATM    2  C1  UNL     1      -5.682   2.750  16.376  1.00  0.00     0.309 A 
HETATM    3  N1  UNL     1      -4.950   1.522  16.761  1.00  0.00    -0.174 N 
HETATM    4  C2  UNL     1      -6.204   1.867  17.392  1.00  0.00     0.297 A 
HETATM    5 CL1  UNL     1      -6.179   2.355  19.093  1.00  0.00    -0.065 Cl
HETATM    6 CL2  UNL     1      -7.662   0.942  16.936  1.00  0.00    -0.065 Cl
ENDROOT
BRANCH   3   7
HETATM    7  O2  UNL     1      -3.842   0.837  16.483  1.00  0.00    -0.281 OA
ATOM      8  H2  UNL     1      -3.523   0.128  15.938  1.00  0.00     0.245 HD
ENDBRANCH   3   7
TORSDOF 1
ENDMDL
