MODEL 1
REMARK VINA RESULT: -4.706409933      0.000      0.000
REMARK  1 active torsions:
REMARK  status: ('A' for Active; 'I' for Inactive)
REMARK    1  A    between atoms: O1_1  and  N1_3 
ROOT
HETATM    1  N1  UNL     1      -5.704   0.819  16.840  1.00  0.00    -0.115 N 
HETATM    2  N2  UNL     1      -4.619   1.428  16.371  1.00  0.00    -0.245 N 
ATOM      3  H2  UNL     1      -3.675   1.040  16.369  1.00  0.00     0.192 HD
HETATM    4  C1  UNL     1      -4.962   2.628  15.906  1.00  0.00     0.199 A 
HETATM    5 CL1  UNL     1      -3.927   3.815  15.192  1.00  0.00    -0.043 Cl
HETATM    6  N3  UNL     1      -6.274   2.756  16.092  1.00  0.00    -0.290 N 
ATOM      7  H3  UNL     1      -6.833   3.569  15.836  1.00  0.00     0.172 HD
HETATM    8  C2  UNL     1      -6.740   1.646  16.666  1.00  0.00     0.309 A 
HETATM    9  F1  UNL     1      -8.007   1.388  17.015  1.00  0.00    -0.161 F 
ENDROOT
BRANCH   1  10
HETATM   10  O1  UNL     1      -5.782  -0.418  17.399  1.00  0.00    -0.264 OA
ATOM     11  H1  UNL     1      -6.357  -0.700  18.101  1.00  0.00     0.247 HD
ENDBRANCH   1  10
TORSDOF 1
ENDMDL
MODEL 2
REMARK VINA RESULT: -4.598341816      1.029      1.055
REMARK  1 active torsions:
REMARK  status: ('A' for Active; 'I' for Inactive)
REMARK    1  A    between atoms: O1_1  and  N1_3 
ROOT
HETATM    1  N1  UNL     1      -4.959   0.747  15.836  1.00  0.00    -0.115 N 
HETATM    2  N2  UNL     1      -4.068   1.627  15.387  1.00  0.00    -0.245 N 
ATOM      3  H2  UNL     1      -3.161   1.397  14.981  1.00  0.00     0.192 HD
HETATM    4  C1  UNL     1      -4.553   2.856  15.553  1.00  0.00     0.199 A 
HETATM    5 CL1  UNL     1      -3.793   4.352  15.135  1.00  0.00    -0.043 Cl
HETATM    6  N3  UNL     1      -5.755   2.728  16.111  1.00  0.00    -0.290 N 
ATOM      7  H3  UNL     1      -6.378   3.496  16.361  1.00  0.00     0.172 HD
HETATM    8  C2  UNL     1      -6.013   1.432  16.288  1.00  0.00     0.309 A 
HETATM    9  F1  UNL     1      -7.119   0.894  16.822  1.00  0.00    -0.161 F 
ENDROOT
BRANCH   1  10
HETATM   10  O1  UNL     1      -4.849  -0.609  15.847  1.00  0.00    -0.264 OA
ATOM     11  H1  UNL     1      -4.958  -1.204  15.115  1.00  0.00     0.247 HD
ENDBRANCH   1  10
TORSDOF 1
ENDMDL
MODEL 3
REMARK VINA RESULT: -4.553480271      1.593      1.705
REMARK  1 active torsions:
REMARK  status: ('A' for Active; 'I' for Inactive)
REMARK    1  A    between atoms: O1_1  and  N1_3 
ROOT
HETATM    1  N1  UNL     1      -4.492   1.879  16.059  1.00  0.00    -0.115 N 
HETATM    2  N2  UNL     1      -4.036   3.022  15.553  1.00  0.00    -0.245 N 
ATOM      3  H2  UNL     1      -3.053   3.275  15.452  1.00  0.00     0.192 HD
HETATM    4  C1  UNL     1      -5.072   3.782  15.199  1.00  0.00     0.199 A 
HETATM    5 CL1  UNL     1      -5.025   5.359  14.493  1.00  0.00    -0.043 Cl
HETATM    6  N3  UNL     1      -6.175   3.097  15.493  1.00  0.00    -0.290 N 
ATOM      7  H3  UNL     1      -7.130   3.417  15.338  1.00  0.00     0.172 HD
HETATM    8  C2  UNL     1      -5.827   1.923  16.023  1.00  0.00     0.309 A 
HETATM    9  F1  UNL     1      -6.648   0.954  16.449  1.00  0.00    -0.161 F 
ENDROOT
BRANCH   1  10
HETATM   10  O1  UNL     1      -3.760   0.836  16.536  1.00  0.00    -0.264 OA
ATOM     11  H1  UNL     1      -3.984   0.253  17.251  1.00  0.00     0.247 HD
ENDBRANCH   1  10
TORSDOF 1
ENDMDL
MODEL 4
REMARK VINA RESULT: -4.455551839      2.601      2.782
REMARK  1 active torsions:
REMARK  status: ('A' for Active; 'I' for Inactive)
REMARK    1  A    between atoms: O1_1  and  N1_3 
ROOT
HETATM    1  N1  UNL     1      -5.128   0.433  15.980  1.00  0.00    -0.115 N 
HETATM    2  N2  UNL     1      -5.553   0.415  17.240  1.00  0.00    -0.245 N 
ATOM      3  H2  UNL     1      -5.672  -0.420  17.813  1.00  0.00     0.192 HD
HETATM    4  C1  UNL     1      -5.799   1.664  17.632  1.00  0.00     0.199 A 
HETATM    5 CL1  UNL     1      -6.369   2.188  19.178  1.00  0.00    -0.043 Cl
HETATM    6  N3  UNL     1      -5.521   2.457  16.599  1.00  0.00    -0.290 N 
ATOM      7  H3  UNL     1      -5.610   3.473  16.591  1.00  0.00     0.172 HD
HETATM    8  C2  UNL     1      -5.107   1.707  15.577  1.00  0.00     0.309 A 
HETATM    9  F1  UNL     1      -4.736   2.133  14.362  1.00  0.00    -0.161 F 
ENDROOT
BRANCH   1  10
HETATM   10  O1  UNL     1      -4.772  -0.632  15.212  1.00  0.00    -0.264 OA
ATOM     11  H1  UNL     1      -4.692  -1.538  15.483  1.00  0.00     0.247 HD
ENDBRANCH   1  10
TORSDOF 1
ENDMDL
MODEL 5
REMARK VINA RESULT: -4.410889113      4.359      4.643
REMARK  1 active torsions:
REMARK  status: ('A' for Active; 'I' for Inactive)
REMARK    1  A    between atoms: O1_1  and  N1_3 
ROOT
HETATM    1  N1  UNL     1      -4.715   1.725  11.859  1.00  0.00    -0.115 N 
HETATM    2  N2  UNL     1      -4.740   2.838  12.586  1.00  0.00    -0.245 N 
ATOM      3  H2  UNL     1      -4.930   3.775  12.229  1.00  0.00     0.192 HD
HETATM    4  C1  UNL     1      -4.478   2.532  13.856  1.00  0.00     0.199 A 
HETATM    5 CL1  UNL     1      -4.392   3.614  15.201  1.00  0.00    -0.043 Cl
HETATM    6  N3  UNL     1      -4.289   1.216  13.907  1.00  0.00    -0.290 N 
ATOM      7  H3  UNL     1      -4.070   0.680  14.747  1.00  0.00     0.172 HD
HETATM    8  C2  UNL     1      -4.433   0.710  12.681  1.00  0.00     0.309 A 
HETATM    9  F1  UNL     1      -4.319  -0.575  12.320  1.00  0.00    -0.161 F 
ENDROOT
BRANCH   1  10
HETATM   10  O1  UNL     1      -4.931   1.605  10.521  1.00  0.00    -0.264 OA
ATOM     11  H1  UNL     1      -4.323   1.803   9.818  1.00  0.00     0.247 HD
ENDBRANCH   1  10
TORSDOF 1
ENDMDL
