MODEL 1
REMARK VINA RESULT: -5.486852829      0.000      0.000
REMARK  2 active torsions:
REMARK  status: ('A' for Active; 'I' for Inactive)
REMARK    1  A    between atoms: C2_6  and  C3_7 
REMARK    2  A    between atoms: N3_8  and  C4_10 
ROOT
HETATM    1  C4  UNL     1      47.818  -4.416  21.339  1.00  0.00     0.189 A 
HETATM    2  N4  UNL     1      49.136  -4.435  21.075  1.00  0.00    -0.277 N 
ATOM      3  H4  UNL     1      49.530  -3.680  20.515  1.00  0.00     0.189 HD
HETATM    4  N5  UNL     1      49.941  -5.382  21.506  1.00  0.00    -0.250 N 
ATOM      5  H5  UNL     1      50.938  -5.371  21.290  1.00  0.00     0.192 HD
HETATM    6  C5  UNL     1      49.395  -6.367  22.245  1.00  0.00     0.341 A 
HETATM    7  O2  UNL     1      50.131  -7.295  22.678  1.00  0.00    -0.245 OA
HETATM    8  N6  UNL     1      48.074  -6.395  22.539  1.00  0.00    -0.271 N 
ATOM      9  H6  UNL     1      47.696  -7.158  23.101  1.00  0.00     0.174 HD
HETATM   10  C6  UNL     1      47.250  -5.419  22.093  1.00  0.00     0.294 A 
HETATM   11  O3  UNL     1      46.009  -5.421  22.354  1.00  0.00    -0.264 OA
ENDROOT
BRANCH   1  12
HETATM   12  N3  UNL     1      47.004  -3.366  20.844  1.00  0.00    -0.347 N 
HETATM   13  C3  UNL     1      47.321  -2.758  19.771  1.00  0.00     0.106 C 
ATOM     14  H3  UNL     1      46.160  -3.097  21.349  1.00  0.00     0.166 HD
BRANCH  13  15
HETATM   15  C2  UNL     1      46.469  -1.668  19.263  1.00  0.00     0.239 C 
HETATM   16  N2  UNL     1      45.304  -2.156  18.552  1.00  0.00    -0.106 NA
HETATM   17  N1  UNL     1      44.426  -1.054  18.622  1.00  0.00    -0.253 N 
HETATM   18  C1  UNL     1      44.616  -0.510  19.924  1.00  0.00     0.333 C 
ATOM     19  H1  UNL     1      43.791  -0.720  17.897  1.00  0.00     0.187 HD
HETATM   20  O1  UNL     1      43.784   0.238  20.532  1.00  0.00    -0.246 OA
HETATM   21  N7  UNL     1      45.899  -0.952  20.415  1.00  0.00    -0.318 N 
ATOM     22  H7  UNL     1      46.310  -0.804  21.336  1.00  0.00     0.166 HD
ENDBRANCH  13  15
ENDBRANCH   1  12
TORSDOF 2
ENDMDL
MODEL 2
REMARK VINA RESULT: -5.047993043      1.997      6.447
REMARK  2 active torsions:
REMARK  status: ('A' for Active; 'I' for Inactive)
REMARK    1  A    between atoms: C2_6  and  C3_7 
REMARK    2  A    between atoms: N3_8  and  C4_10 
ROOT
HETATM    1  C4  UNL     1      46.006  -1.273  20.317  1.00  0.00     0.189 A 
HETATM    2  N4  UNL     1      46.285  -0.076  20.859  1.00  0.00    -0.277 N 
ATOM      3  H4  UNL     1      46.706  -0.048  21.788  1.00  0.00     0.189 HD
HETATM    4  N5  UNL     1      46.041   1.064  20.248  1.00  0.00    -0.250 N 
ATOM      5  H5  UNL     1      46.264   1.959  20.685  1.00  0.00     0.192 HD
HETATM    6  C5  UNL     1      45.486   1.000  19.023  1.00  0.00     0.341 A 
HETATM    7  O2  UNL     1      45.236   2.069  18.402  1.00  0.00    -0.245 OA
HETATM    8  N6  UNL     1      45.185  -0.180  18.432  1.00  0.00    -0.271 N 
ATOM      9  H6  UNL     1      44.765  -0.189  17.503  1.00  0.00     0.174 HD
HETATM   10  C6  UNL     1      45.437  -1.349  19.065  1.00  0.00     0.294 A 
HETATM   11  O3  UNL     1      45.166  -2.468  18.535  1.00  0.00    -0.264 OA
ENDROOT
BRANCH   1  12
HETATM   12  N3  UNL     1      46.292  -2.466  21.029  1.00  0.00    -0.347 N 
HETATM   13  C3  UNL     1      46.517  -2.428  22.282  1.00  0.00     0.106 C 
ATOM     14  H3  UNL     1      46.319  -3.357  20.535  1.00  0.00     0.166 HD
BRANCH  13  15
HETATM   15  C2  UNL     1      46.814  -3.673  23.014  1.00  0.00     0.239 C 
HETATM   16  N2  UNL     1      45.905  -4.749  22.674  1.00  0.00    -0.106 NA
HETATM   17  N1  UNL     1      46.644  -5.893  23.045  1.00  0.00    -0.253 N 
HETATM   18  C1  UNL     1      47.989  -5.601  22.681  1.00  0.00     0.333 C 
ATOM     19  H1  UNL     1      46.290  -6.746  23.479  1.00  0.00     0.187 HD
HETATM   20  O1  UNL     1      48.900  -6.471  22.494  1.00  0.00    -0.246 OA
HETATM   21  N7  UNL     1      48.125  -4.169  22.568  1.00  0.00    -0.318 N 
ATOM     22  H7  UNL     1      48.934  -3.632  22.255  1.00  0.00     0.166 HD
ENDBRANCH  13  15
ENDBRANCH   1  12
TORSDOF 2
ENDMDL
MODEL 3
REMARK VINA RESULT: -4.988090836      3.219      7.076
REMARK  2 active torsions:
REMARK  status: ('A' for Active; 'I' for Inactive)
REMARK    1  A    between atoms: C2_6  and  C3_7 
REMARK    2  A    between atoms: N3_8  and  C4_10 
ROOT
HETATM    1  C4  UNL     1      48.215  -4.977  22.648  1.00  0.00     0.189 A 
HETATM    2  N4  UNL     1      49.058  -3.964  22.911  1.00  0.00    -0.277 N 
ATOM      3  H4  UNL     1      50.061  -4.150  22.897  1.00  0.00     0.189 HD
HETATM    4  N5  UNL     1      48.651  -2.743  23.184  1.00  0.00    -0.250 N 
ATOM      5  H5  UNL     1      49.315  -1.993  23.381  1.00  0.00     0.192 HD
HETATM    6  C5  UNL     1      47.322  -2.523  23.194  1.00  0.00     0.341 A 
HETATM    7  O2  UNL     1      46.889  -1.368  23.452  1.00  0.00    -0.245 OA
HETATM    8  N6  UNL     1      46.431  -3.508  22.937  1.00  0.00    -0.271 N 
ATOM      9  H6  UNL     1      45.432  -3.304  22.953  1.00  0.00     0.174 HD
HETATM   10  C6  UNL     1      46.855  -4.763  22.656  1.00  0.00     0.294 A 
HETATM   11  O3  UNL     1      46.041  -5.703  22.411  1.00  0.00    -0.264 OA
ENDROOT
BRANCH   1  12
HETATM   12  N3  UNL     1      48.718  -6.271  22.361  1.00  0.00    -0.347 N 
HETATM   13  C3  UNL     1      49.969  -6.457  22.216  1.00  0.00     0.106 C 
ATOM     14  H3  UNL     1      48.074  -7.057  22.271  1.00  0.00     0.166 HD
BRANCH  13  15
HETATM   15  C2  UNL     1      50.483  -7.806  21.918  1.00  0.00     0.239 C 
HETATM   16  N2  UNL     1      51.517  -8.226  22.844  1.00  0.00    -0.106 NA
HETATM   17  N1  UNL     1      51.480  -9.631  22.717  1.00  0.00    -0.253 N 
HETATM   18  C1  UNL     1      50.101  -9.956  22.582  1.00  0.00     0.333 C 
ATOM     19  H1  UNL     1      52.272 -10.274  22.721  1.00  0.00     0.187 HD
HETATM   20  O1  UNL     1      49.594 -11.101  22.812  1.00  0.00    -0.246 OA
HETATM   21  N7  UNL     1      49.399  -8.774  22.143  1.00  0.00    -0.318 N 
ATOM     22  H7  UNL     1      48.395  -8.642  22.020  1.00  0.00     0.166 HD
ENDBRANCH  13  15
ENDBRANCH   1  12
TORSDOF 2
ENDMDL
MODEL 4
REMARK VINA RESULT: -4.981923420      3.244      7.362
REMARK  2 active torsions:
REMARK  status: ('A' for Active; 'I' for Inactive)
REMARK    1  A    between atoms: C2_6  and  C3_7 
REMARK    2  A    between atoms: N3_8  and  C4_10 
ROOT
HETATM    1  C4  UNL     1      48.174  -5.627  22.570  1.00  0.00     0.189 A 
HETATM    2  N4  UNL     1      46.839  -5.708  22.441  1.00  0.00    -0.277 N 
ATOM      3  H4  UNL     1      46.420  -6.627  22.301  1.00  0.00     0.189 HD
HETATM    4  N5  UNL     1      46.048  -4.658  22.487  1.00  0.00    -0.250 N 
ATOM      5  H5  UNL     1      45.037  -4.750  22.386  1.00  0.00     0.192 HD
HETATM    6  C5  UNL     1      46.627  -3.456  22.675  1.00  0.00     0.341 A 
HETATM    7  O2  UNL     1      45.906  -2.424  22.725  1.00  0.00    -0.245 OA
HETATM    8  N6  UNL     1      47.967  -3.320  22.810  1.00  0.00    -0.271 N 
ATOM      9  H6  UNL     1      48.370  -2.393  22.951  1.00  0.00     0.174 HD
HETATM   10  C6  UNL     1      48.777  -4.403  22.761  1.00  0.00     0.294 A 
HETATM   11  O3  UNL     1      50.034  -4.303  22.886  1.00  0.00    -0.264 OA
ENDROOT
BRANCH   1  12
HETATM   12  N3  UNL     1      48.973  -6.797  22.510  1.00  0.00    -0.347 N 
HETATM   13  C3  UNL     1      49.472  -7.178  21.402  1.00  0.00     0.106 C 
ATOM     14  H3  UNL     1      49.148  -7.336  23.357  1.00  0.00     0.166 HD
BRANCH  13  15
HETATM   15  C2  UNL     1      50.300  -8.396  21.348  1.00  0.00     0.239 C 
HETATM   16  N2  UNL     1      51.003  -8.647  22.590  1.00  0.00    -0.106 NA
HETATM   17  N1  UNL     1      51.277 -10.029  22.506  1.00  0.00    -0.253 N 
HETATM   18  C1  UNL     1      50.119 -10.601  21.908  1.00  0.00     0.333 C 
ATOM     19  H1  UNL     1      52.122 -10.513  22.809  1.00  0.00     0.187 HD
HETATM   20  O1  UNL     1      49.787 -11.828  21.984  1.00  0.00    -0.246 OA
HETATM   21  N7  UNL     1      49.407  -9.557  21.212  1.00  0.00    -0.318 N 
ATOM     22  H7  UNL     1      48.504  -9.611  20.740  1.00  0.00     0.166 HD
ENDBRANCH  13  15
ENDBRANCH   1  12
TORSDOF 2
ENDMDL
MODEL 5
REMARK VINA RESULT: -4.943580382      2.158      2.421
REMARK  2 active torsions:
REMARK  status: ('A' for Active; 'I' for Inactive)
REMARK    1  A    between atoms: C2_6  and  C3_7 
REMARK    2  A    between atoms: N3_8  and  C4_10 
ROOT
HETATM    1  C4  UNL     1      47.878  -4.006  22.577  1.00  0.00     0.189 A 
HETATM    2  N4  UNL     1      49.221  -4.070  22.577  1.00  0.00    -0.277 N 
ATOM      3  H4  UNL     1      49.749  -3.198  22.578  1.00  0.00     0.189 HD
HETATM    4  N5  UNL     1      49.886  -5.205  22.577  1.00  0.00    -0.250 N 
ATOM      5  H5  UNL     1      50.905  -5.223  22.576  1.00  0.00     0.192 HD
HETATM    6  C5  UNL     1      49.164  -6.343  22.577  1.00  0.00     0.341 A 
HETATM    7  O2  UNL     1      49.761  -7.453  22.577  1.00  0.00    -0.245 OA
HETATM    8  N6  UNL     1      47.811  -6.333  22.577  1.00  0.00    -0.271 N 
ATOM      9  H6  UNL     1      47.298  -7.215  22.577  1.00  0.00     0.174 HD
HETATM   10  C6  UNL     1      47.132  -5.163  22.576  1.00  0.00     0.294 A 
HETATM   11  O3  UNL     1      45.864  -5.126  22.577  1.00  0.00    -0.264 OA
ENDROOT
BRANCH   1  12
HETATM   12  N3  UNL     1      47.221  -2.749  22.576  1.00  0.00    -0.347 N 
HETATM   13  C3  UNL     1      47.655  -1.798  21.849  1.00  0.00     0.106 C 
ATOM     14  H3  UNL     1      46.397  -2.607  23.159  1.00  0.00     0.166 HD
BRANCH  13  15
HETATM   15  C2  UNL     1      46.966  -0.495  21.855  1.00  0.00     0.239 C 
HETATM   16  N2  UNL     1      45.546  -0.614  21.593  1.00  0.00    -0.106 NA
HETATM   17  N1  UNL     1      45.038   0.584  22.138  1.00  0.00    -0.253 N 
HETATM   18  C1  UNL     1      45.797   0.804  23.322  1.00  0.00     0.333 C 
ATOM     19  H1  UNL     1      44.289   1.167  21.764  1.00  0.00     0.187 HD
HETATM   20  O1  UNL     1      45.435   1.542  24.295  1.00  0.00    -0.246 OA
HETATM   21  N7  UNL     1      47.025   0.054  23.219  1.00  0.00    -0.318 N 
ATOM     22  H7  UNL     1      47.756  -0.067  23.920  1.00  0.00     0.166 HD
ENDBRANCH  13  15
ENDBRANCH   1  12
TORSDOF 2
ENDMDL
