MODEL 1
REMARK VINA RESULT: -4.455376266      0.000      0.000
REMARK  6 active torsions:
REMARK  status: ('A' for Active; 'I' for Inactive)
REMARK    1  A    between atoms: N1_2  and  C2_4 
REMARK    2  A    between atoms: C3_7  and  N3_8 
REMARK    3  A    between atoms: C5_13  and  N5_14 
REMARK    4  A    between atoms: N5_14  and  N6_16 
REMARK    5  A    between atoms: C6_18  and  C7_19 
REMARK    6  A    between atoms: C7_19  and  N7_20 
ROOT
HETATM    1  C2  UNL     1      46.875  -2.146  23.361  1.00  0.00     0.706 A 
HETATM    2  N2  UNL     1      46.664  -1.628  22.129  1.00  0.00    -0.022 N 
ATOM      3  H2  UNL     1      46.705  -0.623  21.961  1.00  0.00     0.203 HD
HETATM    4  C3  UNL     1      46.398  -2.491  21.139  1.00  0.00     0.706 A 
HETATM    5  N4  UNL     1      46.344  -3.836  21.370  1.00  0.00    -0.020 N 
ATOM      6  H4  UNL     1      46.140  -4.472  20.599  1.00  0.00     0.203 HD
HETATM    7  C5  UNL     1      46.557  -4.332  22.602  1.00  0.00     0.725 A 
HETATM    8  N8  UNL     1      46.824  -3.467  23.599  1.00  0.00    -0.020 N 
ATOM      9  H8  UNL     1      46.990  -3.818  24.543  1.00  0.00     0.203 HD
ENDROOT
BRANCH   7  10
HETATM   10  N5  UNL     1      46.517  -5.595  22.866  1.00  0.00    -0.132 N 
ATOM     11  H5  UNL     1      45.700  -6.019  23.307  1.00  0.00     0.205 HD
BRANCH  10  12
HETATM   12  N6  UNL     1      47.635  -6.358  22.523  1.00  0.00    -0.300 N 
HETATM   13  C6  UNL     1      48.794  -5.857  22.602  1.00  0.00     0.107 C 
ATOM     14  H6  UNL     1      47.517  -7.321  22.208  1.00  0.00     0.186 HD
BRANCH  13  15
HETATM   15  C7  UNL     1      50.011  -6.657  22.240  1.00  0.00     0.275 C 
BRANCH  15  16
HETATM   16  N7  UNL     1      49.590  -8.030  22.115  1.00  0.00    -0.075 N 
ATOM     17  H73 UNL     1      49.005  -8.196  21.297  1.00  0.00     0.274 HD
ATOM     18  H72 UNL     1      50.350  -8.662  21.862  1.00  0.00     0.274 HD
ATOM     19  H71 UNL     1      49.134  -8.281  22.992  1.00  0.00     0.274 HD
ENDBRANCH  15  16
ENDBRANCH  13  15
ENDBRANCH  10  12
ENDBRANCH   7  10
BRANCH   4  20
HETATM   20  N3  UNL     1      46.194  -2.022  19.958  1.00  0.00    -0.229 N 
HETATM   21  C4  UNL     1      45.678  -2.876  18.937  1.00  0.00     0.165 C 
ATOM     22  H3  UNL     1      46.398  -1.045  19.753  1.00  0.00     0.177 HD
ENDBRANCH   4  20
BRANCH   1  23
HETATM   23  N1  UNL     1      47.130  -1.317  24.310  1.00  0.00    -0.229 N 
HETATM   24  C1  UNL     1      47.065   0.099  24.015  1.00  0.00     0.165 C 
ATOM     25  H1  UNL     1      47.371  -1.648  25.245  1.00  0.00     0.177 HD
ENDBRANCH   1  23
TORSDOF 6
ENDMDL
MODEL 2
REMARK VINA RESULT: -4.433279938      0.045      3.008
REMARK  6 active torsions:
REMARK  status: ('A' for Active; 'I' for Inactive)
REMARK    1  A    between atoms: N1_2  and  C2_4 
REMARK    2  A    between atoms: C3_7  and  N3_8 
REMARK    3  A    between atoms: C5_13  and  N5_14 
REMARK    4  A    between atoms: N5_14  and  N6_16 
REMARK    5  A    between atoms: C6_18  and  C7_19 
REMARK    6  A    between atoms: C7_19  and  N7_20 
ROOT
HETATM    1  C2  UNL     1      46.425  -2.488  21.145  1.00  0.00     0.706 A 
HETATM    2  N2  UNL     1      46.687  -1.604  22.135  1.00  0.00    -0.022 N 
ATOM      3  H2  UNL     1      46.735  -0.601  21.953  1.00  0.00     0.203 HD
HETATM    4  C3  UNL     1      46.882  -2.100  23.365  1.00  0.00     0.706 A 
HETATM    5  N4  UNL     1      46.817  -3.444  23.602  1.00  0.00    -0.020 N 
ATOM      6  H4  UNL     1      46.969  -3.797  24.547  1.00  0.00     0.203 HD
HETATM    7  C5  UNL     1      46.556  -4.307  22.605  1.00  0.00     0.725 A 
HETATM    8  N8  UNL     1      46.359  -3.811  21.368  1.00  0.00    -0.020 N 
ATOM      9  H8  UNL     1      46.159  -4.446  20.594  1.00  0.00     0.203 HD
ENDROOT
BRANCH   7  10
HETATM   10  N5  UNL     1      46.484  -5.584  22.783  1.00  0.00    -0.132 N 
ATOM     11  H5  UNL     1      45.637  -6.022  23.147  1.00  0.00     0.205 HD
BRANCH  10  12
HETATM   12  N6  UNL     1      47.611  -6.341  22.459  1.00  0.00    -0.300 N 
HETATM   13  C6  UNL     1      48.769  -5.849  22.598  1.00  0.00     0.107 C 
ATOM     14  H6  UNL     1      47.502  -7.293  22.110  1.00  0.00     0.186 HD
BRANCH  13  15
HETATM   15  C7  UNL     1      49.995  -6.643  22.256  1.00  0.00     0.275 C 
BRANCH  15  16
HETATM   16  N7  UNL     1      49.583  -8.018  22.125  1.00  0.00    -0.075 N 
ATOM     17  H73 UNL     1      49.152  -8.389  22.972  1.00  0.00     0.274 HD
ATOM     18  H72 UNL     1      48.779  -8.139  21.507  1.00  0.00     0.274 HD
ATOM     19  H71 UNL     1      50.402  -8.547  21.826  1.00  0.00     0.274 HD
ENDBRANCH  15  16
ENDBRANCH  13  15
ENDBRANCH  10  12
ENDBRANCH   7  10
BRANCH   4  20
HETATM   20  N3  UNL     1      47.132  -1.279  24.323  1.00  0.00    -0.229 N 
HETATM   21  C4  UNL     1      47.089   0.127  24.080  1.00  0.00     0.165 C 
ATOM     22  H3  UNL     1      47.361  -1.631  25.252  1.00  0.00     0.177 HD
ENDBRANCH   4  20
BRANCH   1  23
HETATM   23  N1  UNL     1      46.239  -2.011  19.966  1.00  0.00    -0.229 N 
HETATM   24  C1  UNL     1      45.672  -2.885  18.959  1.00  0.00     0.165 C 
ATOM     25  H1  UNL     1      46.483  -1.045  19.745  1.00  0.00     0.177 HD
ENDBRANCH   1  23
TORSDOF 6
ENDMDL
MODEL 3
REMARK VINA RESULT: -4.393792569      2.693      4.576
REMARK  6 active torsions:
REMARK  status: ('A' for Active; 'I' for Inactive)
REMARK    1  A    between atoms: N1_2  and  C2_4 
REMARK    2  A    between atoms: C3_7  and  N3_8 
REMARK    3  A    between atoms: C5_13  and  N5_14 
REMARK    4  A    between atoms: N5_14  and  N6_16 
REMARK    5  A    between atoms: C6_18  and  C7_19 
REMARK    6  A    between atoms: C7_19  and  N7_20 
ROOT
HETATM    1  C2  UNL     1      48.005  -5.700  22.596  1.00  0.00     0.706 A 
HETATM    2  N2  UNL     1      48.736  -4.570  22.726  1.00  0.00    -0.022 N 
ATOM      3  H2  UNL     1      48.293  -3.665  22.888  1.00  0.00     0.203 HD
HETATM    4  C3  UNL     1      50.068  -4.687  22.633  1.00  0.00     0.706 A 
HETATM    5  N4  UNL     1      50.656  -5.901  22.416  1.00  0.00    -0.020 N 
ATOM      6  H4  UNL     1      51.672  -5.964  22.349  1.00  0.00     0.203 HD
HETATM    7  C5  UNL     1      49.912  -7.014  22.289  1.00  0.00     0.725 A 
HETATM    8  N8  UNL     1      48.573  -6.899  22.383  1.00  0.00    -0.020 N 
ATOM      9  H8  UNL     1      47.986  -7.728  22.290  1.00  0.00     0.203 HD
ENDROOT
BRANCH   7  10
HETATM   10  N5  UNL     1      50.425  -8.181  22.085  1.00  0.00    -0.132 N 
ATOM     11  H5  UNL     1      51.418  -8.296  21.882  1.00  0.00     0.205 HD
BRANCH  10  12
HETATM   12  N6  UNL     1      49.566  -9.280  22.152  1.00  0.00    -0.300 N 
HETATM   13  C6  UNL     1      49.878 -10.288  22.850  1.00  0.00     0.107 C 
ATOM     14  H6  UNL     1      48.686  -9.270  21.637  1.00  0.00     0.186 HD
BRANCH  13  15
HETATM   15  C7  UNL     1      48.972 -11.481  22.938  1.00  0.00     0.275 C 
BRANCH  15  16
HETATM   16  N7  UNL     1      47.989 -11.188  23.950  1.00  0.00    -0.075 N 
ATOM     17  H73 UNL     1      48.292 -11.445  24.889  1.00  0.00     0.274 HD
ATOM     18  H72 UNL     1      47.873 -10.188  24.120  1.00  0.00     0.274 HD
ATOM     19  H71 UNL     1      47.124 -11.649  23.667  1.00  0.00     0.274 HD
ENDBRANCH  15  16
ENDBRANCH  13  15
ENDBRANCH  10  12
ENDBRANCH   7  10
BRANCH   4  20
HETATM   20  N3  UNL     1      50.785  -3.626  22.753  1.00  0.00    -0.229 N 
HETATM   21  C4  UNL     1      50.154  -2.368  22.993  1.00  0.00     0.165 C 
ATOM     22  H3  UNL     1      51.801  -3.684  22.678  1.00  0.00     0.177 HD
ENDBRANCH   4  20
BRANCH   1  23
HETATM   23  N1  UNL     1      46.727  -5.587  22.685  1.00  0.00    -0.229 N 
HETATM   24  C1  UNL     1      46.174  -4.266  22.903  1.00  0.00     0.165 C 
ATOM     25  H1  UNL     1      46.121  -6.404  22.605  1.00  0.00     0.177 HD
ENDBRANCH   1  23
TORSDOF 6
ENDMDL
MODEL 4
REMARK VINA RESULT: -4.371369443      2.679      4.523
REMARK  6 active torsions:
REMARK  status: ('A' for Active; 'I' for Inactive)
REMARK    1  A    between atoms: N1_2  and  C2_4 
REMARK    2  A    between atoms: C3_7  and  N3_8 
REMARK    3  A    between atoms: C5_13  and  N5_14 
REMARK    4  A    between atoms: N5_14  and  N6_16 
REMARK    5  A    between atoms: C6_18  and  C7_19 
REMARK    6  A    between atoms: C7_19  and  N7_20 
ROOT
HETATM    1  C2  UNL     1      47.982  -5.666  22.621  1.00  0.00     0.706 A 
HETATM    2  N2  UNL     1      48.700  -4.527  22.757  1.00  0.00    -0.022 N 
ATOM      3  H2  UNL     1      48.246  -3.631  22.937  1.00  0.00     0.203 HD
HETATM    4  C3  UNL     1      50.032  -4.624  22.644  1.00  0.00     0.706 A 
HETATM    5  N4  UNL     1      50.634  -5.826  22.402  1.00  0.00    -0.020 N 
ATOM      6  H4  UNL     1      51.650  -5.874  22.321  1.00  0.00     0.203 HD
HETATM    7  C5  UNL     1      49.904  -6.948  22.271  1.00  0.00     0.725 A 
HETATM    8  N8  UNL     1      48.565  -6.853  22.383  1.00  0.00    -0.020 N 
ATOM      9  H8  UNL     1      47.988  -7.690  22.288  1.00  0.00     0.203 HD
ENDROOT
BRANCH   7  10
HETATM   10  N5  UNL     1      50.430  -8.105  22.043  1.00  0.00    -0.132 N 
ATOM     11  H5  UNL     1      51.426  -8.273  22.191  1.00  0.00     0.205 HD
BRANCH  10  12
HETATM   12  N6  UNL     1      49.583  -9.117  21.588  1.00  0.00    -0.300 N 
HETATM   13  C6  UNL     1      49.861  -9.749  20.527  1.00  0.00     0.107 C 
ATOM     14  H6  UNL     1      48.738  -9.347  22.111  1.00  0.00     0.186 HD
BRANCH  13  15
HETATM   15  C7  UNL     1      48.966 -10.840  20.018  1.00  0.00     0.275 C 
BRANCH  15  16
HETATM   16  N7  UNL     1      47.722 -10.220  19.638  1.00  0.00    -0.075 N 
ATOM     17  H73 UNL     1      47.658  -9.243  19.924  1.00  0.00     0.274 HD
ATOM     18  H72 UNL     1      47.641 -10.066  18.632  1.00  0.00     0.274 HD
ATOM     19  H71 UNL     1      46.973 -10.799  20.017  1.00  0.00     0.274 HD
ENDBRANCH  15  16
ENDBRANCH  13  15
ENDBRANCH  10  12
ENDBRANCH   7  10
BRANCH   4  20
HETATM   20  N3  UNL     1      50.735  -3.555  22.769  1.00  0.00    -0.229 N 
HETATM   21  C4  UNL     1      50.089  -2.307  23.020  1.00  0.00     0.165 C 
ATOM     22  H3  UNL     1      51.751  -3.598  22.690  1.00  0.00     0.177 HD
ENDBRANCH   4  20
BRANCH   1  23
HETATM   23  N1  UNL     1      46.705  -5.572  22.729  1.00  0.00    -0.229 N 
HETATM   24  C1  UNL     1      46.135  -4.261  22.960  1.00  0.00     0.165 C 
ATOM     25  H1  UNL     1      46.110  -6.398  22.654  1.00  0.00     0.177 HD
ENDBRANCH   1  23
TORSDOF 6
ENDMDL
MODEL 5
REMARK VINA RESULT: -4.304140490      2.687      4.257
REMARK  6 active torsions:
REMARK  status: ('A' for Active; 'I' for Inactive)
REMARK    1  A    between atoms: N1_2  and  C2_4 
REMARK    2  A    between atoms: C3_7  and  N3_8 
REMARK    3  A    between atoms: C5_13  and  N5_14 
REMARK    4  A    between atoms: N5_14  and  N6_16 
REMARK    5  A    between atoms: C6_18  and  C7_19 
REMARK    6  A    between atoms: C7_19  and  N7_20 
ROOT
HETATM    1  C2  UNL     1      50.088  -4.690  22.630  1.00  0.00     0.706 A 
HETATM    2  N2  UNL     1      48.749  -4.543  22.759  1.00  0.00    -0.022 N 
ATOM      3  H2  UNL     1      48.329  -3.632  22.944  1.00  0.00     0.203 HD
HETATM    4  C3  UNL     1      47.997  -5.645  22.635  1.00  0.00     0.706 A 
HETATM    5  N4  UNL     1      48.564  -6.863  22.389  1.00  0.00    -0.020 N 
ATOM      6  H4  UNL     1      47.969  -7.687  22.299  1.00  0.00     0.203 HD
HETATM    7  C5  UNL     1      49.897  -6.989  22.264  1.00  0.00     0.725 A 
HETATM    8  N8  UNL     1      50.655  -5.883  22.388  1.00  0.00    -0.020 N 
ATOM      9  H8  UNL     1      51.669  -5.952  22.297  1.00  0.00     0.203 HD
ENDROOT
BRANCH   7  10
HETATM   10  N5  UNL     1      50.476  -8.120  22.030  1.00  0.00    -0.132 N 
ATOM     11  H5  UNL     1      51.481  -8.236  22.157  1.00  0.00     0.205 HD
BRANCH  10  12
HETATM   12  N6  UNL     1      49.671  -9.175  21.598  1.00  0.00    -0.300 N 
HETATM   13  C6  UNL     1      49.902  -9.737  20.488  1.00  0.00     0.107 C 
ATOM     14  H6  UNL     1      48.895  -9.494  22.178  1.00  0.00     0.186 HD
BRANCH  13  15
HETATM   15  C7  UNL     1      49.050 -10.873  20.002  1.00  0.00     0.275 C 
BRANCH  15  16
HETATM   16  N7  UNL     1      47.756 -10.323  19.687  1.00  0.00    -0.075 N 
ATOM     17  H73 UNL     1      47.003 -11.008  19.751  1.00  0.00     0.274 HD
ATOM     18  H72 UNL     1      47.408  -9.681  20.401  1.00  0.00     0.274 HD
ATOM     19  H71 UNL     1      47.832  -9.895  18.765  1.00  0.00     0.274 HD
ENDBRANCH  15  16
ENDBRANCH  13  15
ENDBRANCH  10  12
ENDBRANCH   7  10
BRANCH   4  20
HETATM   20  N3  UNL     1      46.721  -5.531  22.754  1.00  0.00    -0.229 N 
HETATM   21  C4  UNL     1      46.140  -4.242  22.948  1.00  0.00     0.165 C 
ATOM     22  H3  UNL     1      46.127  -6.359  22.709  1.00  0.00     0.177 HD
ENDBRANCH   4  20
BRANCH   1  23
HETATM   23  N1  UNL     1      50.809  -3.632  22.749  1.00  0.00    -0.229 N 
HETATM   24  C1  UNL     1      50.141  -2.381  23.043  1.00  0.00     0.165 C 
ATOM     25  H1  UNL     1      51.822  -3.673  22.641  1.00  0.00     0.177 HD
ENDBRANCH   1  23
TORSDOF 6
ENDMDL
