MODEL 1
REMARK VINA RESULT: -4.477326534      0.000      0.000
REMARK  3 active torsions:
REMARK  status: ('A' for Active; 'I' for Inactive)
REMARK    1  A    between atoms: C3_8  and  S1_9 
REMARK    2  A    between atoms: S1_9  and  C4_12 
REMARK    3  A    between atoms: N4_17  and  N5_18 
ROOT
HETATM    1  N1  UNL     1      49.558  -7.582  22.234  1.00  0.00    -0.233 N 
ATOM      2  H11 UNL     1      48.939  -8.393  22.212  1.00  0.00     0.174 HD
ATOM      3  H12 UNL     1      50.563  -7.686  22.092  1.00  0.00     0.174 HD
HETATM    4  C1  UNL     1      49.080  -6.402  22.443  1.00  0.00     0.692 A 
HETATM    5  N2  UNL     1      49.942  -5.271  22.474  1.00  0.00    -0.198 N 
ATOM      6  H2  UNL     1      50.949  -5.363  22.334  1.00  0.00     0.183 HD
HETATM    7  C2  UNL     1      49.336  -4.009  22.710  1.00  0.00     0.151 A 
HETATM    8  C3  UNL     1      48.020  -3.882  22.893  1.00  0.00     0.187 A 
HETATM    9  N4  UNL     1      47.129  -4.989  22.869  1.00  0.00    -0.176 N 
HETATM   10  N6  UNL     1      47.664  -6.254  22.642  1.00  0.00    -0.111 N 
ATOM     11  H6  UNL     1      47.055  -7.072  22.618  1.00  0.00     0.208 HD
ENDROOT
BRANCH   8  12
HETATM   12  S1  UNL     1      47.366  -2.293  23.176  1.00  0.00     0.226 S 
HETATM   13  O1  UNL     1      46.279  -1.954  22.191  1.00  0.00    -0.219 OA
HETATM   14  O2  UNL     1      46.820  -2.267  24.575  1.00  0.00    -0.219 OA
BRANCH  12  15
HETATM   15  C4  UNL     1      48.612  -1.031  23.021  1.00  0.00     0.339 A 
HETATM   16  C5  UNL     1      49.359  -0.520  24.131  1.00  0.00     0.283 A 
HETATM   17  N3  UNL     1      48.276   0.306  23.502  1.00  0.00    -0.052 N 
ATOM     18  H32 UNL     1      48.203   1.239  23.095  1.00  0.00     0.278 HD
ATOM     19  H31 UNL     1      47.434   0.784  23.822  1.00  0.00     0.278 HD
ENDBRANCH  12  15
ENDBRANCH   8  12
BRANCH   9  20
HETATM   20  N5  UNL     1      45.762  -4.768  23.072  1.00  0.00    -0.323 N 
ATOM     21  H52 UNL     1      45.358  -3.835  23.153  1.00  0.00     0.179 HD
ATOM     22  H51 UNL     1      45.135  -5.569  23.144  1.00  0.00     0.179 HD
ENDBRANCH   9  20
TORSDOF 3
ENDMDL
MODEL 2
REMARK VINA RESULT: -4.374244744      1.247      1.290
REMARK  3 active torsions:
REMARK  status: ('A' for Active; 'I' for Inactive)
REMARK    1  A    between atoms: C3_8  and  S1_9 
REMARK    2  A    between atoms: S1_9  and  C4_12 
REMARK    3  A    between atoms: N4_17  and  N5_18 
ROOT
HETATM    1  N1  UNL     1      51.034  -7.048  22.478  1.00  0.00    -0.233 N 
ATOM      2  H11 UNL     1      50.782  -8.036  22.456  1.00  0.00     0.174 HD
ATOM      3  H12 UNL     1      52.011  -6.757  22.504  1.00  0.00     0.174 HD
HETATM    4  C1  UNL     1      50.116  -6.140  22.474  1.00  0.00     0.692 A 
HETATM    5  N2  UNL     1      50.467  -4.763  22.505  1.00  0.00    -0.198 N 
ATOM      6  H2  UNL     1      51.441  -4.460  22.531  1.00  0.00     0.183 HD
HETATM    7  C2  UNL     1      49.397  -3.829  22.498  1.00  0.00     0.151 A 
HETATM    8  C3  UNL     1      48.121  -4.218  22.464  1.00  0.00     0.187 A 
HETATM    9  N4  UNL     1      47.734  -5.586  22.433  1.00  0.00    -0.176 N 
HETATM   10  N6  UNL     1      48.739  -6.550  22.438  1.00  0.00    -0.111 N 
ATOM     11  H6  UNL     1      48.499  -7.541  22.416  1.00  0.00     0.208 HD
ENDROOT
BRANCH   8  12
HETATM   12  S1  UNL     1      46.876  -3.000  22.458  1.00  0.00     0.226 S 
HETATM   13  O1  UNL     1      46.211  -2.890  21.112  1.00  0.00    -0.219 OA
HETATM   14  O2  UNL     1      45.865  -3.377  23.503  1.00  0.00    -0.219 OA
BRANCH  12  15
HETATM   15  C4  UNL     1      47.530  -1.390  22.843  1.00  0.00     0.339 A 
HETATM   16  C5  UNL     1      47.646  -0.884  24.178  1.00  0.00     0.283 A 
HETATM   17  N3  UNL     1      46.579  -0.363  23.261  1.00  0.00    -0.052 N 
ATOM     18  H32 UNL     1      46.284   0.552  22.919  1.00  0.00     0.278 HD
ATOM     19  H31 UNL     1      45.564  -0.267  23.291  1.00  0.00     0.278 HD
ENDBRANCH  12  15
ENDBRANCH   8  12
BRANCH   9  20
HETATM   20  N5  UNL     1      46.373  -5.908  22.398  1.00  0.00    -0.323 N 
ATOM     21  H52 UNL     1      45.671  -5.407  22.943  1.00  0.00     0.179 HD
ATOM     22  H51 UNL     1      46.059  -6.677  21.806  1.00  0.00     0.179 HD
ENDBRANCH   9  20
TORSDOF 3
ENDMDL
MODEL 3
REMARK VINA RESULT: -4.321433072      2.720      3.331
REMARK  3 active torsions:
REMARK  status: ('A' for Active; 'I' for Inactive)
REMARK    1  A    between atoms: C3_8  and  S1_9 
REMARK    2  A    between atoms: S1_9  and  C4_12 
REMARK    3  A    between atoms: N4_17  and  N5_18 
ROOT
HETATM    1  N1  UNL     1      46.666  -5.905  22.829  1.00  0.00    -0.233 N 
ATOM      2  H11 UNL     1      46.617  -6.549  22.039  1.00  0.00     0.174 HD
ATOM      3  H12 UNL     1      46.803  -6.252  23.779  1.00  0.00     0.174 HD
HETATM    4  C1  UNL     1      46.558  -4.632  22.642  1.00  0.00     0.692 A 
HETATM    5  N2  UNL     1      46.627  -3.736  23.743  1.00  0.00    -0.198 N 
ATOM      6  H2  UNL     1      46.762  -4.071  24.698  1.00  0.00     0.183 HD
HETATM    7  C2  UNL     1      46.498  -2.352  23.452  1.00  0.00     0.151 A 
HETATM    8  C3  UNL     1      46.320  -1.907  22.206  1.00  0.00     0.187 A 
HETATM    9  N4  UNL     1      46.246  -2.775  21.082  1.00  0.00    -0.176 N 
HETATM   10  N6  UNL     1      46.366  -4.144  21.304  1.00  0.00    -0.111 N 
ATOM     11  H6  UNL     1      46.318  -4.797  20.521  1.00  0.00     0.208 HD
ENDROOT
BRANCH   8  12
HETATM   12  S1  UNL     1      46.172  -0.192  21.945  1.00  0.00     0.226 S 
HETATM   13  O1  UNL     1      47.137   0.298  20.899  1.00  0.00    -0.219 OA
HETATM   14  O2  UNL     1      44.760   0.083  21.511  1.00  0.00    -0.219 OA
BRANCH  12  15
HETATM   15  C4  UNL     1      46.509   0.731  23.429  1.00  0.00     0.339 A 
HETATM   16  C5  UNL     1      45.551   1.589  24.059  1.00  0.00     0.283 A 
HETATM   17  N3  UNL     1      46.701   2.173  23.293  1.00  0.00    -0.052 N 
ATOM     18  H32 UNL     1      47.452   2.838  23.483  1.00  0.00     0.278 HD
ATOM     19  H31 UNL     1      46.815   2.831  22.523  1.00  0.00     0.278 HD
ENDBRANCH  12  15
ENDBRANCH   8  12
BRANCH   9  20
HETATM   20  N5  UNL     1      46.058  -2.225  19.809  1.00  0.00    -0.323 N 
ATOM     21  H52 UNL     1      45.440  -2.641  19.112  1.00  0.00     0.179 HD
ATOM     22  H51 UNL     1      46.557  -1.372  19.558  1.00  0.00     0.179 HD
ENDBRANCH   9  20
TORSDOF 3
ENDMDL
MODEL 4
REMARK VINA RESULT: -4.143428295      1.552      1.898
REMARK  3 active torsions:
REMARK  status: ('A' for Active; 'I' for Inactive)
REMARK    1  A    between atoms: C3_8  and  S1_9 
REMARK    2  A    between atoms: S1_9  and  C4_12 
REMARK    3  A    between atoms: N4_17  and  N5_18 
ROOT
HETATM    1  N1  UNL     1      49.563  -7.752  22.108  1.00  0.00    -0.233 N 
ATOM      2  H11 UNL     1      48.896  -8.524  22.135  1.00  0.00     0.174 HD
ATOM      3  H12 UNL     1      50.545  -7.917  21.885  1.00  0.00     0.174 HD
HETATM    4  C1  UNL     1      49.176  -6.546  22.354  1.00  0.00     0.692 A 
HETATM    5  N2  UNL     1      50.106  -5.471  22.317  1.00  0.00    -0.198 N 
ATOM      6  H2  UNL     1      51.090  -5.623  22.096  1.00  0.00     0.183 HD
HETATM    7  C2  UNL     1      49.599  -4.175  22.600  1.00  0.00     0.151 A 
HETATM    8  C3  UNL     1      48.312  -3.969  22.890  1.00  0.00     0.187 A 
HETATM    9  N4  UNL     1      47.355  -5.020  22.937  1.00  0.00    -0.176 N 
HETATM   10  N6  UNL     1      47.792  -6.314  22.667  1.00  0.00    -0.111 N 
ATOM     11  H6  UNL     1      47.135  -7.093  22.692  1.00  0.00     0.208 HD
ENDROOT
BRANCH   8  12
HETATM   12  S1  UNL     1      47.782  -2.344  23.224  1.00  0.00     0.226 S 
HETATM   13  O1  UNL     1      46.836  -2.297  24.394  1.00  0.00    -0.219 OA
HETATM   14  O2  UNL     1      49.001  -1.517  23.515  1.00  0.00    -0.219 OA
BRANCH  12  15
HETATM   15  C4  UNL     1      46.921  -1.634  21.837  1.00  0.00     0.339 A 
HETATM   16  C5  UNL     1      46.706  -2.329  20.603  1.00  0.00     0.283 A 
HETATM   17  N3  UNL     1      47.723  -1.229  20.686  1.00  0.00    -0.052 N 
ATOM     18  H32 UNL     1      47.910  -0.359  20.187  1.00  0.00     0.278 HD
ATOM     19  H31 UNL     1      48.717  -1.128  20.480  1.00  0.00     0.278 HD
ENDBRANCH  12  15
ENDBRANCH   8  12
BRANCH   9  20
HETATM   20  N5  UNL     1      46.026  -4.716  23.249  1.00  0.00    -0.323 N 
ATOM     21  H52 UNL     1      45.715  -4.495  24.194  1.00  0.00     0.179 HD
ATOM     22  H51 UNL     1      45.329  -4.716  22.504  1.00  0.00     0.179 HD
ENDBRANCH   9  20
TORSDOF 3
ENDMDL
MODEL 5
REMARK VINA RESULT: -4.113225136      3.164      3.914
REMARK  3 active torsions:
REMARK  status: ('A' for Active; 'I' for Inactive)
REMARK    1  A    between atoms: C3_8  and  S1_9 
REMARK    2  A    between atoms: S1_9  and  C4_12 
REMARK    3  A    between atoms: N4_17  and  N5_18 
ROOT
HETATM    1  N1  UNL     1      46.249  -5.718  23.292  1.00  0.00    -0.233 N 
ATOM      2  H11 UNL     1      46.125  -6.500  22.649  1.00  0.00     0.174 HD
ATOM      3  H12 UNL     1      46.288  -5.871  24.300  1.00  0.00     0.174 HD
HETATM    4  C1  UNL     1      46.361  -4.514  22.841  1.00  0.00     0.692 A 
HETATM    5  N2  UNL     1      46.534  -3.424  23.738  1.00  0.00    -0.198 N 
ATOM      6  H2  UNL     1      46.574  -3.564  24.748  1.00  0.00     0.183 HD
HETATM    7  C2  UNL     1      46.648  -2.131  23.161  1.00  0.00     0.151 A 
HETATM    8  C3  UNL     1      46.597  -1.941  21.841  1.00  0.00     0.187 A 
HETATM    9  N4  UNL     1      46.424  -3.007  20.916  1.00  0.00    -0.176 N 
HETATM   10  N6  UNL     1      46.306  -4.298  21.421  1.00  0.00    -0.111 N 
ATOM     11  H6  UNL     1      46.181  -5.088  20.787  1.00  0.00     0.208 HD
ENDROOT
BRANCH   8  12
HETATM   12  S1  UNL     1      46.746  -0.319  21.225  1.00  0.00     0.226 S 
HETATM   13  O1  UNL     1      47.173   0.647  22.297  1.00  0.00    -0.219 OA
HETATM   14  O2  UNL     1      47.763  -0.343  20.120  1.00  0.00    -0.219 OA
BRANCH  12  15
HETATM   15  C4  UNL     1      45.202   0.283  20.575  1.00  0.00     0.339 A 
HETATM   16  C5  UNL     1      45.101   1.416  19.705  1.00  0.00     0.283 A 
HETATM   17  N3  UNL     1      44.675   1.523  21.139  1.00  0.00    -0.052 N 
ATOM     18  H32 UNL     1      43.831   1.805  21.638  1.00  0.00     0.278 HD
ATOM     19  H31 UNL     1      44.899   2.125  21.931  1.00  0.00     0.278 HD
ENDBRANCH  12  15
ENDBRANCH   8  12
BRANCH   9  20
HETATM   20  N5  UNL     1      46.380  -2.719  19.547  1.00  0.00    -0.323 N 
ATOM     21  H52 UNL     1      45.534  -2.402  19.075  1.00  0.00     0.179 HD
ATOM     22  H51 UNL     1      47.227  -2.830  18.989  1.00  0.00     0.179 HD
ENDBRANCH   9  20
TORSDOF 3
ENDMDL
