MODEL 1
REMARK VINA RESULT: -5.812824695      0.000      0.000
REMARK  0 active torsions:
REMARK  status: ('A' for Active; 'I' for Inactive)
ROOT
HETATM    1  N1  UNL     1       9.212  18.233  48.990  1.00  0.00    -0.406 N 
ATOM      2  H11 UNL     1       8.800  17.305  48.883  1.00  0.00     0.155 HD
ATOM      3  H12 UNL     1       9.260  18.877  48.201  1.00  0.00     0.155 HD
HETATM    4  C1  UNL     1       9.673  18.597  50.121  1.00  0.00    -0.020 C 
HETATM    5  C2  UNL     1      10.267  19.935  50.274  1.00  0.00     0.052 C 
HETATM    6  C3  UNL     1       9.484  21.033  49.588  1.00  0.00     0.011 C 
HETATM    7  C4  UNL     1       8.958  21.942  50.694  1.00  0.00     0.044 C 
HETATM    8  C5  UNL     1       7.844  22.800  50.262  1.00  0.00     0.055 C 
HETATM    9  N2  UNL     1       6.631  22.433  50.363  1.00  0.00    -0.401 N 
ATOM     10  H2  UNL     1       5.929  23.098  50.038  1.00  0.00     0.158 HD
HETATM   11  C6  UNL     1       6.147  21.205  50.875  1.00  0.00     0.146 C 
HETATM   12  C7  UNL     1       5.945  21.213  52.387  1.00  0.00     0.251 C 
HETATM   13  N3  UNL     1       5.667  19.869  52.827  1.00  0.00    -0.074 N 
ATOM     14  H31 UNL     1       5.561  19.248  52.025  1.00  0.00     0.277 HD
ATOM     15  H32 UNL     1       4.726  19.811  53.219  1.00  0.00     0.277 HD
HETATM   16  C8  UNL     1       6.627  19.331  53.753  1.00  0.00     0.232 C 
HETATM   17  C9  UNL     1       6.688  17.840  53.553  1.00  0.00     0.027 C 
HETATM   18  C10 UNL     1       8.093  17.332  53.282  1.00  0.00     0.002 C 
HETATM   19  C11 UNL     1       8.866  18.285  52.436  1.00  0.00     0.006 C 
HETATM   20  C12 UNL     1       9.602  17.649  51.281  1.00  0.00     0.052 C 
ENDROOT
TORSDOF 0
ENDMDL
MODEL 2
REMARK VINA RESULT: -5.378355263      2.530      4.383
REMARK  0 active torsions:
REMARK  status: ('A' for Active; 'I' for Inactive)
ROOT
HETATM    1  N1  UNL     1       3.774  21.684  50.010  1.00  0.00    -0.406 N 
ATOM      2  H11 UNL     1       3.273  22.477  50.413  1.00  0.00     0.155 HD
ATOM      3  H12 UNL     1       4.074  21.696  49.036  1.00  0.00     0.155 HD
HETATM    4  C1  UNL     1       4.031  20.664  50.729  1.00  0.00    -0.020 C 
HETATM    5  C2  UNL     1       4.753  19.520  50.148  1.00  0.00     0.052 C 
HETATM    6  C3  UNL     1       5.918  19.917  49.269  1.00  0.00     0.011 C 
HETATM    7  C4  UNL     1       7.176  19.415  49.971  1.00  0.00     0.044 C 
HETATM    8  C5  UNL     1       8.407  20.065  49.495  1.00  0.00     0.055 C 
HETATM    9  N2  UNL     1       8.861  21.124  50.031  1.00  0.00    -0.401 N 
ATOM     10  H2  UNL     1       9.721  21.500  49.633  1.00  0.00     0.158 HD
HETATM   11  C6  UNL     1       8.304  21.840  51.119  1.00  0.00     0.146 C 
HETATM   12  C7  UNL     1       8.760  21.328  52.482  1.00  0.00     0.251 C 
HETATM   13  N3  UNL     1       7.976  21.971  53.507  1.00  0.00    -0.074 N 
ATOM     14  H31 UNL     1       7.381  22.692  53.099  1.00  0.00     0.277 HD
ATOM     15  H32 UNL     1       8.573  22.550  54.099  1.00  0.00     0.277 HD
HETATM   16  C8  UNL     1       7.193  21.074  54.313  1.00  0.00     0.232 C 
HETATM   17  C9  UNL     1       5.955  21.804  54.762  1.00  0.00     0.027 C 
HETATM   18  C10 UNL     1       4.671  21.077  54.404  1.00  0.00     0.002 C 
HETATM   19  C11 UNL     1       4.770  20.412  53.074  1.00  0.00     0.006 C 
HETATM   20  C12 UNL     1       3.589  20.647  52.162  1.00  0.00     0.052 C 
ENDROOT
TORSDOF 0
ENDMDL
MODEL 3
REMARK VINA RESULT: -5.349062480      1.577      4.121
REMARK  0 active torsions:
REMARK  status: ('A' for Active; 'I' for Inactive)
ROOT
HETATM    1  N1  UNL     1       9.290  22.594  51.363  1.00  0.00    -0.406 N 
ATOM      2  H11 UNL     1       8.787  23.284  51.922  1.00  0.00     0.155 HD
ATOM      3  H12 UNL     1      10.268  22.378  51.555  1.00  0.00     0.155 HD
HETATM    4  C1  UNL     1       8.693  21.990  50.412  1.00  0.00    -0.020 C 
HETATM    5  C2  UNL     1       9.419  20.994  49.606  1.00  0.00     0.052 C 
HETATM    6  C3  UNL     1      10.293  20.067  50.423  1.00  0.00     0.011 C 
HETATM    7  C4  UNL     1       9.695  18.672  50.274  1.00  0.00     0.044 C 
HETATM    8  C5  UNL     1      10.142  17.734  51.315  1.00  0.00     0.055 C 
HETATM    9  N2  UNL     1       9.513  17.589  52.410  1.00  0.00    -0.401 N 
ATOM     10  H2  UNL     1       9.899  16.913  53.068  1.00  0.00     0.158 HD
HETATM   11  C6  UNL     1       8.335  18.263  52.816  1.00  0.00     0.146 C 
HETATM   12  C7  UNL     1       7.052  17.582  52.349  1.00  0.00     0.251 C 
HETATM   13  N3  UNL     1       5.936  18.453  52.622  1.00  0.00    -0.074 N 
ATOM     14  H31 UNL     1       6.243  19.266  53.156  1.00  0.00     0.277 HD
ATOM     15  H32 UNL     1       5.308  18.023  53.301  1.00  0.00     0.277 HD
HETATM   16  C8  UNL     1       5.203  18.870  51.457  1.00  0.00     0.232 C 
HETATM   17  C9  UNL     1       4.634  20.238  51.723  1.00  0.00     0.027 C 
HETATM   18  C10 UNL     1       5.021  21.260  50.669  1.00  0.00     0.002 C 
HETATM   19  C11 UNL     1       6.417  21.053  50.191  1.00  0.00     0.006 C 
HETATM   20  C12 UNL     1       7.255  22.308  50.130  1.00  0.00     0.052 C 
ENDROOT
TORSDOF 0
ENDMDL
MODEL 4
REMARK VINA RESULT: -5.339441950      2.230      3.966
REMARK  0 active torsions:
REMARK  status: ('A' for Active; 'I' for Inactive)
ROOT
HETATM    1  N1  UNL     1       6.451  16.877  48.619  1.00  0.00    -0.406 N 
ATOM      2  H11 UNL     1       5.717  17.029  47.926  1.00  0.00     0.155 HD
ATOM      3  H12 UNL     1       7.374  16.546  48.339  1.00  0.00     0.155 HD
HETATM    4  C1  UNL     1       6.216  17.100  49.851  1.00  0.00    -0.020 C 
HETATM    5  C2  UNL     1       7.274  16.880  50.851  1.00  0.00     0.052 C 
HETATM    6  C3  UNL     1       8.635  17.382  50.421  1.00  0.00     0.011 C 
HETATM    7  C4  UNL     1       8.992  18.522  51.369  1.00  0.00     0.044 C 
HETATM    8  C5  UNL     1      10.058  19.395  50.854  1.00  0.00     0.055 C 
HETATM    9  N2  UNL     1       9.808  20.423  50.150  1.00  0.00    -0.401 N 
ATOM     10  H2  UNL     1      10.613  20.967  49.840  1.00  0.00     0.158 HD
HETATM   11  C6  UNL     1       8.535  20.897  49.748  1.00  0.00     0.146 C 
HETATM   12  C7  UNL     1       7.878  21.820  50.769  1.00  0.00     0.251 C 
HETATM   13  N3  UNL     1       6.515  22.064  50.368  1.00  0.00    -0.074 N 
ATOM     14  H31 UNL     1       6.338  21.659  49.449  1.00  0.00     0.277 HD
ATOM     15  H32 UNL     1       6.380  23.052  50.153  1.00  0.00     0.277 HD
HETATM   16  C8  UNL     1       5.524  21.618  51.310  1.00  0.00     0.232 C 
HETATM   17  C9  UNL     1       4.287  21.231  50.544  1.00  0.00     0.027 C 
HETATM   18  C10 UNL     1       3.821  19.817  50.838  1.00  0.00     0.002 C 
HETATM   19  C11 UNL     1       4.972  18.887  51.020  1.00  0.00     0.006 C 
HETATM   20  C12 UNL     1       4.858  17.586  50.263  1.00  0.00     0.052 C 
ENDROOT
TORSDOF 0
ENDMDL
MODEL 5
REMARK VINA RESULT: -5.322518869      1.606      5.295
REMARK  0 active torsions:
REMARK  status: ('A' for Active; 'I' for Inactive)
ROOT
HETATM    1  N1  UNL     1       4.874  21.541  50.049  1.00  0.00    -0.406 N 
ATOM      2  H11 UNL     1       4.931  22.062  49.173  1.00  0.00     0.155 HD
ATOM      3  H12 UNL     1       4.059  20.967  50.263  1.00  0.00     0.155 HD
HETATM    4  C1  UNL     1       5.831  21.603  50.888  1.00  0.00    -0.020 C 
HETATM    5  C2  UNL     1       5.749  20.850  52.151  1.00  0.00     0.052 C 
HETATM    6  C3  UNL     1       5.209  19.445  51.990  1.00  0.00     0.011 C 
HETATM    7  C4  UNL     1       6.351  18.502  52.354  1.00  0.00     0.044 C 
HETATM    8  C5  UNL     1       6.155  17.132  51.857  1.00  0.00     0.055 C 
HETATM    9  N2  UNL     1       6.574  16.760  50.716  1.00  0.00    -0.401 N 
ATOM     10  H2  UNL     1       6.392  15.790  50.460  1.00  0.00     0.158 HD
HETATM   11  C6  UNL     1       7.267  17.544  49.761  1.00  0.00     0.146 C 
HETATM   12  C7  UNL     1       8.778  17.560  49.966  1.00  0.00     0.251 C 
HETATM   13  N3  UNL     1       9.357  18.548  49.091  1.00  0.00    -0.074 N 
ATOM     14  H31 UNL     1       8.646  18.927  48.465  1.00  0.00     0.277 HD
ATOM     15  H32 UNL     1       9.971  18.102  48.409  1.00  0.00     0.277 HD
HETATM   16  C8  UNL     1      10.049  19.613  49.765  1.00  0.00     0.232 C 
HETATM   17  C9  UNL     1       9.935  20.856  48.922  1.00  0.00     0.027 C 
HETATM   18  C10 UNL     1       9.357  22.038  49.679  1.00  0.00     0.002 C 
HETATM   19  C11 UNL     1       8.288  21.614  50.627  1.00  0.00     0.006 C 
HETATM   20  C12 UNL     1       7.030  22.446  50.573  1.00  0.00     0.052 C 
ENDROOT
TORSDOF 0
ENDMDL
