MODEL 1
REMARK VINA RESULT: -5.520815072      0.000      0.000
REMARK  4 active torsions:
REMARK  status: ('A' for Active; 'I' for Inactive)
REMARK    1  A    between atoms: C2_2  and  O1_5 
REMARK    2  A    between atoms: O1_5  and  C5_6 
REMARK    3  A    between atoms: C5_6  and  N2_11 
REMARK    4  A    between atoms: N1_7  and  O2_9 
ROOT
HETATM    1  C5  UNL     1       7.150  20.995  50.619  1.00  0.00     0.245 C 
HETATM    2  N1  UNL     1       6.047  20.626  50.061  1.00  0.00    -0.232 N 
ATOM      3  H1  UNL     1       5.147  20.760  50.521  1.00  0.00     0.198 HD
ENDROOT
BRANCH   1   4
HETATM    4  O1  UNL     1       7.020  21.576  51.870  1.00  0.00    -0.310 OA
BRANCH   4   5
HETATM    5  C2  UNL     1       6.837  20.807  53.039  1.00  0.00     0.060 C 
HETATM    6  C1  UNL     1       5.366  20.816  53.457  1.00  0.00     0.046 C 
HETATM    7  C3  UNL     1       7.322  19.403  52.933  1.00  0.00     0.046 C 
HETATM    8  C4  UNL     1       7.576  21.551  54.153  1.00  0.00     0.046 C 
ENDBRANCH   4   5
ENDBRANCH   1   4
BRANCH   1   9
HETATM    9  N2  UNL     1       8.432  20.865  50.088  1.00  0.00    -0.319 N 
HETATM   10  C6  UNL     1       9.148  21.746  49.540  1.00  0.00     0.049 C 
HETATM   11  C7  UNL     1       8.968  23.150  49.248  1.00  0.00     0.065 C 
HETATM   12  S1  UNL     1      10.803  21.334  48.918  1.00  0.00    -0.117 SA
HETATM   13  C8  UNL     1       9.943  23.694  48.333  1.00  0.00     0.017 C 
HETATM   14  C9  UNL     1      10.815  22.699  47.688  1.00  0.00     0.081 C 
ATOM     15  H2  UNL     1       8.846  19.935  50.153  1.00  0.00     0.169 HD
ENDBRANCH   1   9
BRANCH   2  16
HETATM   16  O2  UNL     1       6.141  20.046  48.818  1.00  0.00    -0.287 OA
ATOM     17  H2  UNL     1       6.016  20.613  48.067  1.00  0.00     0.244 HD
ENDBRANCH   2  16
TORSDOF 4
ENDMDL
MODEL 2
REMARK VINA RESULT: -5.484942816      2.091      3.056
REMARK  4 active torsions:
REMARK  status: ('A' for Active; 'I' for Inactive)
REMARK    1  A    between atoms: C2_2  and  O1_5 
REMARK    2  A    between atoms: O1_5  and  C5_6 
REMARK    3  A    between atoms: C5_6  and  N2_11 
REMARK    4  A    between atoms: N1_7  and  O2_9 
ROOT
HETATM    1  C5  UNL     1       8.663  21.874  51.647  1.00  0.00     0.245 C 
HETATM    2  N1  UNL     1       8.855  22.131  52.896  1.00  0.00    -0.232 N 
ATOM      3  H1  UNL     1       8.662  21.438  53.619  1.00  0.00     0.198 HD
ENDROOT
BRANCH   1   4
HETATM    4  O1  UNL     1       8.181  20.605  51.368  1.00  0.00    -0.310 OA
BRANCH   4   5
HETATM    5  C2  UNL     1       6.813  20.360  51.120  1.00  0.00     0.060 C 
HETATM    6  C1  UNL     1       6.282  19.293  52.079  1.00  0.00     0.046 C 
HETATM    7  C3  UNL     1       5.950  21.572  51.187  1.00  0.00     0.046 C 
HETATM    8  C4  UNL     1       6.743  19.723  49.732  1.00  0.00     0.046 C 
ENDBRANCH   4   5
ENDBRANCH   1   4
BRANCH   1   9
HETATM    9  N2  UNL     1       8.891  22.737  50.577  1.00  0.00    -0.319 N 
HETATM   10  C6  UNL     1       9.488  22.502  49.492  1.00  0.00     0.049 C 
HETATM   11  C7  UNL     1      10.138  21.338  48.933  1.00  0.00     0.065 C 
HETATM   12  S1  UNL     1       9.664  23.800  48.236  1.00  0.00    -0.117 SA
HETATM   13  C8  UNL     1      10.953  21.615  47.774  1.00  0.00     0.017 C 
HETATM   14  C9  UNL     1      11.161  23.043  47.485  1.00  0.00     0.081 C 
ATOM     15  H2  UNL     1       8.527  23.684  50.687  1.00  0.00     0.169 HD
ENDBRANCH   1   9
BRANCH   2  16
HETATM   16  O2  UNL     1       9.334  23.381  53.209  1.00  0.00    -0.287 OA
ATOM     17  H2  UNL     1       8.797  24.123  52.957  1.00  0.00     0.244 HD
ENDBRANCH   2  16
TORSDOF 4
ENDMDL
MODEL 3
REMARK VINA RESULT: -5.381576671      2.522      4.769
REMARK  4 active torsions:
REMARK  status: ('A' for Active; 'I' for Inactive)
REMARK    1  A    between atoms: C2_2  and  O1_5 
REMARK    2  A    between atoms: O1_5  and  C5_6 
REMARK    3  A    between atoms: C5_6  and  N2_11 
REMARK    4  A    between atoms: N1_7  and  O2_9 
ROOT
HETATM    1  C5  UNL     1       7.667  21.709  50.330  1.00  0.00     0.245 C 
HETATM    2  N1  UNL     1       6.599  22.422  50.448  1.00  0.00    -0.232 N 
ATOM      3  H1  UNL     1       6.353  23.132  49.758  1.00  0.00     0.198 HD
ENDROOT
BRANCH   1   4
HETATM    4  O1  UNL     1       8.442  21.978  49.213  1.00  0.00    -0.310 OA
BRANCH   4   5
HETATM    5  C2  UNL     1       9.622  22.749  49.287  1.00  0.00     0.060 C 
HETATM    6  C1  UNL     1       9.686  23.737  48.121  1.00  0.00     0.046 C 
HETATM    7  C3  UNL     1       9.801  23.476  50.574  1.00  0.00     0.046 C 
HETATM    8  C4  UNL     1      10.778  21.775  49.051  1.00  0.00     0.046 C 
ENDBRANCH   4   5
ENDBRANCH   1   4
BRANCH   1   9
HETATM    9  N2  UNL     1       8.102  20.715  51.204  1.00  0.00    -0.319 N 
HETATM   10  C6  UNL     1       8.472  19.540  50.935  1.00  0.00     0.049 C 
HETATM   11  C7  UNL     1       8.595  18.779  49.713  1.00  0.00     0.065 C 
HETATM   12  S1  UNL     1       9.000  18.414  52.257  1.00  0.00    -0.117 SA
HETATM   13  C8  UNL     1       8.777  17.361  49.913  1.00  0.00     0.017 C 
HETATM   14  C9  UNL     1       8.593  16.900  51.299  1.00  0.00     0.081 C 
ATOM     15  H2  UNL     1       8.125  20.972  52.191  1.00  0.00     0.169 HD
ENDBRANCH   1   9
BRANCH   2  16
HETATM   16  O2  UNL     1       5.806  22.180  51.545  1.00  0.00    -0.287 OA
ATOM     17  H2  UNL     1       5.446  21.306  51.632  1.00  0.00     0.244 HD
ENDBRANCH   2  16
TORSDOF 4
ENDMDL
MODEL 4
REMARK VINA RESULT: -5.340323863      1.825      2.327
REMARK  4 active torsions:
REMARK  status: ('A' for Active; 'I' for Inactive)
REMARK    1  A    between atoms: C2_2  and  O1_5 
REMARK    2  A    between atoms: O1_5  and  C5_6 
REMARK    3  A    between atoms: C5_6  and  N2_11 
REMARK    4  A    between atoms: N1_7  and  O2_9 
ROOT
HETATM    1  C5  UNL     1       5.837  21.212  51.432  1.00  0.00     0.245 C 
HETATM    2  N1  UNL     1       4.588  21.128  51.121  1.00  0.00    -0.232 N 
ATOM      3  H1  UNL     1       3.981  20.423  51.539  1.00  0.00     0.198 HD
ENDROOT
BRANCH   1   4
HETATM    4  O1  UNL     1       6.283  20.286  52.361  1.00  0.00    -0.310 OA
BRANCH   4   5
HETATM    5  C2  UNL     1       6.300  20.562  53.746  1.00  0.00     0.060 C 
HETATM    6  C1  UNL     1       7.543  21.376  54.111  1.00  0.00     0.046 C 
HETATM    7  C3  UNL     1       5.080  21.251  54.250  1.00  0.00     0.046 C 
HETATM    8  C4  UNL     1       6.485  19.213  54.442  1.00  0.00     0.046 C 
ENDBRANCH   4   5
ENDBRANCH   1   4
BRANCH   1   9
HETATM    9  N2  UNL     1       6.757  22.130  50.929  1.00  0.00    -0.319 N 
HETATM   10  C6  UNL     1       7.773  21.912  50.214  1.00  0.00     0.049 C 
HETATM   11  C7  UNL     1       8.371  20.722  49.653  1.00  0.00     0.065 C 
HETATM   12  S1  UNL     1       8.834  23.282  49.677  1.00  0.00    -0.117 SA
HETATM   13  C8  UNL     1       9.708  20.916  49.143  1.00  0.00     0.017 C 
HETATM   14  C9  UNL     1      10.316  22.216  49.468  1.00  0.00     0.081 C 
ATOM     15  H2  UNL     1       6.587  23.106  51.172  1.00  0.00     0.169 HD
ENDBRANCH   1   9
BRANCH   2  16
HETATM   16  O2  UNL     1       4.112  22.033  50.202  1.00  0.00    -0.287 OA
ATOM     17  H2  UNL     1       3.192  22.262  50.259  1.00  0.00     0.244 HD
ENDBRANCH   2  16
TORSDOF 4
ENDMDL
MODEL 5
REMARK VINA RESULT: -5.291381259      3.040      4.869
REMARK  4 active torsions:
REMARK  status: ('A' for Active; 'I' for Inactive)
REMARK    1  A    between atoms: C2_2  and  O1_5 
REMARK    2  A    between atoms: O1_5  and  C5_6 
REMARK    3  A    between atoms: C5_6  and  N2_11 
REMARK    4  A    between atoms: N1_7  and  O2_9 
ROOT
HETATM    1  C5  UNL     1       9.911  20.624  48.894  1.00  0.00     0.245 C 
HETATM    2  N1  UNL     1      10.683  21.387  48.198  1.00  0.00    -0.232 N 
ATOM      3  H1  UNL     1      10.351  22.271  47.812  1.00  0.00     0.198 HD
ENDROOT
BRANCH   1   4
HETATM    4  O1  UNL     1       8.619  21.089  49.074  1.00  0.00    -0.310 OA
BRANCH   4   5
HETATM    5  C2  UNL     1       8.298  22.056  50.051  1.00  0.00     0.060 C 
HETATM    6  C1  UNL     1       9.047  21.766  51.352  1.00  0.00     0.046 C 
HETATM    7  C3  UNL     1       8.547  23.462  49.629  1.00  0.00     0.046 C 
HETATM    8  C4  UNL     1       6.820  21.846  50.383  1.00  0.00     0.046 C 
ENDBRANCH   4   5
ENDBRANCH   1   4
BRANCH   1   9
HETATM    9  N2  UNL     1      10.253  19.402  49.470  1.00  0.00    -0.319 N 
HETATM   10  C6  UNL     1       9.490  18.473  49.852  1.00  0.00     0.049 C 
HETATM   11  C7  UNL     1       8.057  18.287  49.857  1.00  0.00     0.065 C 
HETATM   12  S1  UNL     1      10.174  16.959  50.581  1.00  0.00    -0.117 SA
HETATM   13  C8  UNL     1       7.607  17.182  50.670  1.00  0.00     0.017 C 
HETATM   14  C9  UNL     1       8.642  16.571  51.519  1.00  0.00     0.081 C 
ATOM     15  H2  UNL     1      11.251  19.237  49.599  1.00  0.00     0.169 HD
ENDBRANCH   1   9
BRANCH   2  16
HETATM   16  O2  UNL     1      11.974  20.956  48.001  1.00  0.00    -0.287 OA
ATOM     17  H2  UNL     1      12.119  20.018  48.000  1.00  0.00     0.244 HD
ENDBRANCH   2  16
TORSDOF 4
ENDMDL
