MODEL 1
REMARK VINA RESULT: -6.228786357      0.000      0.000
REMARK  0 active torsions:
REMARK  status: ('A' for Active; 'I' for Inactive)
ROOT
HETATM    1  C1  UNL     1       7.658  18.406  51.125  1.00  0.00     0.017 C 
HETATM    2  C2  UNL     1       7.558  19.689  51.363  1.00  0.00    -0.053 C 
HETATM    3  C3  UNL     1       8.838  20.495  51.292  1.00  0.00     0.196 C 
HETATM    4  C4  UNL     1       9.178  20.794  49.906  1.00  0.00     0.076 C 
HETATM    5  N1  UNL     1       9.448  21.046  48.804  1.00  0.00    -0.196 NA
HETATM    6  C5  UNL     1       8.586  21.711  52.092  1.00  0.00     0.134 C 
HETATM    7  N2  UNL     1       9.244  22.778  51.823  1.00  0.00    -0.382 N 
ATOM      8  H21 UNL     1       9.070  23.618  52.375  1.00  0.00     0.158 HD
ATOM      9  H22 UNL     1       9.936  22.815  51.075  1.00  0.00     0.158 HD
HETATM   10  O1  UNL     1       7.653  21.662  53.102  1.00  0.00    -0.332 OA
HETATM   11  C6  UNL     1       6.428  20.965  53.080  1.00  0.00     0.139 C 
HETATM   12  C7  UNL     1       6.386  19.912  54.167  1.00  0.00     0.041 C 
HETATM   13  C8  UNL     1       6.278  20.327  51.691  1.00  0.00     0.010 C 
HETATM   14  C9  UNL     1       5.083  19.428  51.646  1.00  0.00     0.017 C 
HETATM   15  C10 UNL     1       3.895  20.377  51.396  1.00  0.00     0.001 C 
HETATM   16  C11 UNL     1       4.495  21.311  50.385  1.00  0.00     0.001 C 
HETATM   17  C12 UNL     1       5.927  21.486  50.758  1.00  0.00     0.017 C 
ENDROOT
TORSDOF 0
ENDMDL
MODEL 2
REMARK VINA RESULT: -6.120946403      1.611      1.744
REMARK  0 active torsions:
REMARK  status: ('A' for Active; 'I' for Inactive)
ROOT
HETATM    1  C1  UNL     1       7.780  18.696  51.797  1.00  0.00     0.017 C 
HETATM    2  C2  UNL     1       7.224  19.720  51.200  1.00  0.00    -0.053 C 
HETATM    3  C3  UNL     1       8.113  20.918  50.939  1.00  0.00     0.196 C 
HETATM    4  C4  UNL     1       8.939  20.697  49.758  1.00  0.00     0.076 C 
HETATM    5  N1  UNL     1       9.590  20.531  48.810  1.00  0.00    -0.196 NA
HETATM    6  C5  UNL     1       7.196  22.066  50.787  1.00  0.00     0.134 C 
HETATM    7  N2  UNL     1       7.573  23.072  50.086  1.00  0.00    -0.382 N 
ATOM      8  H21 UNL     1       6.939  23.864  49.980  1.00  0.00     0.158 HD
ATOM      9  H22 UNL     1       8.484  23.105  49.630  1.00  0.00     0.158 HD
HETATM   10  O1  UNL     1       5.966  22.022  51.402  1.00  0.00    -0.332 OA
HETATM   11  C6  UNL     1       5.135  20.891  51.537  1.00  0.00     0.139 C 
HETATM   12  C7  UNL     1       4.911  20.557  52.996  1.00  0.00     0.041 C 
HETATM   13  C8  UNL     1       5.812  19.724  50.804  1.00  0.00     0.010 C 
HETATM   14  C9  UNL     1       5.074  18.445  51.047  1.00  0.00     0.017 C 
HETATM   15  C10 UNL     1       3.910  18.473  50.037  1.00  0.00     0.001 C 
HETATM   16  C11 UNL     1       4.608  19.022  48.827  1.00  0.00     0.001 C 
HETATM   17  C12 UNL     1       5.605  20.015  49.317  1.00  0.00     0.017 C 
ENDROOT
TORSDOF 0
ENDMDL
MODEL 3
REMARK VINA RESULT: -6.059572725      1.213      1.400
REMARK  0 active torsions:
REMARK  status: ('A' for Active; 'I' for Inactive)
ROOT
HETATM    1  C1  UNL     1       9.354  18.485  50.496  1.00  0.00     0.017 C 
HETATM    2  C2  UNL     1       8.806  19.658  50.685  1.00  0.00    -0.053 C 
HETATM    3  C3  UNL     1       9.734  20.854  50.660  1.00  0.00     0.196 C 
HETATM    4  C4  UNL     1      10.042  21.235  49.286  1.00  0.00     0.076 C 
HETATM    5  N1  UNL     1      10.280  21.551  48.194  1.00  0.00    -0.196 NA
HETATM    6  C5  UNL     1       9.029  21.918  51.402  1.00  0.00     0.134 C 
HETATM    7  N2  UNL     1       9.299  23.143  51.136  1.00  0.00    -0.382 N 
ATOM      8  H21 UNL     1       8.812  23.879  51.648  1.00  0.00     0.158 HD
ATOM      9  H22 UNL     1       9.984  23.407  50.427  1.00  0.00     0.158 HD
HETATM   10  O1  UNL     1       8.106  21.563  52.359  1.00  0.00    -0.332 OA
HETATM   11  C6  UNL     1       7.197  20.487  52.290  1.00  0.00     0.139 C 
HETATM   12  C7  UNL     1       7.448  19.497  53.407  1.00  0.00     0.041 C 
HETATM   13  C8  UNL     1       7.367  19.821  50.917  1.00  0.00     0.010 C 
HETATM   14  C9  UNL     1       6.557  18.565  50.833  1.00  0.00     0.017 C 
HETATM   15  C10 UNL     1       5.135  19.044  50.484  1.00  0.00     0.001 C 
HETATM   16  C11 UNL     1       5.444  20.115  49.478  1.00  0.00     0.001 C 
HETATM   17  C12 UNL     1       6.702  20.777  49.926  1.00  0.00     0.017 C 
ENDROOT
TORSDOF 0
ENDMDL
MODEL 4
REMARK VINA RESULT: -5.881522110      2.003      3.268
REMARK  0 active torsions:
REMARK  status: ('A' for Active; 'I' for Inactive)
ROOT
HETATM    1  C1  UNL     1       5.397  18.377  51.263  1.00  0.00     0.017 C 
HETATM    2  C2  UNL     1       5.953  19.520  51.574  1.00  0.00    -0.053 C 
HETATM    3  C3  UNL     1       6.013  20.566  50.480  1.00  0.00     0.196 C 
HETATM    4  C4  UNL     1       4.728  21.244  50.349  1.00  0.00     0.076 C 
HETATM    5  N1  UNL     1       3.711  21.795  50.249  1.00  0.00    -0.196 NA
HETATM    6  C5  UNL     1       7.104  21.483  50.867  1.00  0.00     0.134 C 
HETATM    7  N2  UNL     1       7.073  22.695  50.450  1.00  0.00    -0.382 N 
ATOM      8  H21 UNL     1       7.827  23.328  50.718  1.00  0.00     0.158 HD
ATOM      9  H22 UNL     1       6.320  23.047  49.860  1.00  0.00     0.158 HD
HETATM   10  O1  UNL     1       8.121  21.008  51.663  1.00  0.00    -0.332 OA
HETATM   11  C6  UNL     1       7.996  20.099  52.733  1.00  0.00     0.139 C 
HETATM   12  C7  UNL     1       8.786  18.836  52.464  1.00  0.00     0.041 C 
HETATM   13  C8  UNL     1       6.503  19.787  52.907  1.00  0.00     0.010 C 
HETATM   14  C9  UNL     1       6.302  18.697  53.913  1.00  0.00     0.017 C 
HETATM   15  C10 UNL     1       6.365  19.413  55.277  1.00  0.00     0.001 C 
HETATM   16  C11 UNL     1       5.587  20.659  54.970  1.00  0.00     0.001 C 
HETATM   17  C12 UNL     1       5.909  21.034  53.564  1.00  0.00     0.017 C 
ENDROOT
TORSDOF 0
ENDMDL
MODEL 5
REMARK VINA RESULT: -5.863257812      2.095      2.765
REMARK  0 active torsions:
REMARK  status: ('A' for Active; 'I' for Inactive)
ROOT
HETATM    1  C1  UNL     1       5.948  18.193  51.773  1.00  0.00     0.017 C 
HETATM    2  C2  UNL     1       5.736  19.287  51.086  1.00  0.00    -0.053 C 
HETATM    3  C3  UNL     1       6.789  20.370  51.192  1.00  0.00     0.196 C 
HETATM    4  C4  UNL     1       7.925  20.066  50.330  1.00  0.00     0.076 C 
HETATM    5  N1  UNL     1       8.828  19.836  49.636  1.00  0.00    -0.196 NA
HETATM    6  C5  UNL     1       6.107  21.625  50.815  1.00  0.00     0.134 C 
HETATM    7  N2  UNL     1       6.801  22.587  50.330  1.00  0.00    -0.382 N 
ATOM      8  H21 UNL     1       6.330  23.453  50.069  1.00  0.00     0.158 HD
ATOM      9  H22 UNL     1       7.810  22.514  50.195  1.00  0.00     0.158 HD
HETATM   10  O1  UNL     1       4.746  21.723  50.998  1.00  0.00    -0.332 OA
HETATM   11  C6  UNL     1       3.796  20.702  50.795  1.00  0.00     0.139 C 
HETATM   12  C7  UNL     1       3.071  20.375  52.083  1.00  0.00     0.041 C 
HETATM   13  C8  UNL     1       4.541  19.471  50.256  1.00  0.00     0.010 C 
HETATM   14  C9  UNL     1       3.626  18.290  50.177  1.00  0.00     0.017 C 
HETATM   15  C10 UNL     1       2.867  18.476  48.849  1.00  0.00     0.001 C 
HETATM   16  C11 UNL     1       3.979  18.954  47.960  1.00  0.00     0.001 C 
HETATM   17  C12 UNL     1       4.864  19.808  48.800  1.00  0.00     0.017 C 
ENDROOT
TORSDOF 0
ENDMDL
