MODEL 1
REMARK VINA RESULT: -5.932181817      0.000      0.000
REMARK  2 active torsions:
REMARK  status: ('A' for Active; 'I' for Inactive)
REMARK    1  A    between atoms: C2_2  and  N1_3 
REMARK    2  A    between atoms: N1_3  and  C3_5 
ROOT
HETATM    1  C1  UNL     1       9.327  18.779  49.614  1.00  0.00     0.044 C 
HETATM    2  C2  UNL     1       8.686  19.880  50.463  1.00  0.00     0.056 C 
HETATM    3  C6  UNL     1       8.326  19.285  51.759  1.00  0.00     0.004 C 
HETATM    4  C7  UNL     1       7.968  19.978  52.980  1.00  0.00    -0.006 C 
HETATM    5  C8  UNL     1       6.960  21.011  53.154  1.00  0.00    -0.026 C 
HETATM    6  C9  UNL     1       5.572  20.967  52.682  1.00  0.00     0.038 C 
HETATM    7  C10 UNL     1       5.366  21.296  51.163  1.00  0.00     0.083 C 
HETATM    8  C11 UNL     1       6.526  20.791  50.550  1.00  0.00    -0.180 C 
HETATM    9  C12 UNL     1       7.482  20.399  49.601  1.00  0.00     0.114 C 
ENDROOT
BRANCH   2  10
HETATM   10  N1  UNL     1       9.627  20.949  50.651  1.00  0.00    -0.349 N 
ATOM     11  H1  UNL     1      10.023  21.098  51.580  1.00  0.00     0.163 HD
BRANCH  10  12
HETATM   12  C3  UNL     1      10.036  21.823  49.569  1.00  0.00     0.172 C 
HETATM   13  N2  UNL     1       9.501  22.915  49.212  1.00  0.00    -0.361 N 
HETATM   14  C4  UNL     1      10.164  23.517  48.103  1.00  0.00     0.142 C 
ATOM     15  H2  UNL     1       8.684  23.319  49.669  1.00  0.00     0.162 HD
HETATM   16  C5  UNL     1      10.975  22.368  47.531  1.00  0.00     0.142 C 
HETATM   17  N3  UNL     1      11.141  21.558  48.727  1.00  0.00    -0.361 N 
ATOM     18  H3  UNL     1      11.911  20.919  48.922  1.00  0.00     0.162 HD
ENDBRANCH  10  12
ENDBRANCH   2  10
TORSDOF 2
ENDMDL
MODEL 2
REMARK VINA RESULT: -5.913133771      1.312      2.879
REMARK  2 active torsions:
REMARK  status: ('A' for Active; 'I' for Inactive)
REMARK    1  A    between atoms: C2_2  and  N1_3 
REMARK    2  A    between atoms: N1_3  and  C3_5 
ROOT
HETATM    1  C1  UNL     1       7.539  22.109  50.000  1.00  0.00     0.044 C 
HETATM    2  C2  UNL     1       8.497  21.032  50.519  1.00  0.00     0.056 C 
HETATM    3  C6  UNL     1       8.301  19.832  49.692  1.00  0.00     0.004 C 
HETATM    4  C7  UNL     1       9.163  18.671  49.603  1.00  0.00    -0.006 C 
HETATM    5  C8  UNL     1       9.675  17.858  50.695  1.00  0.00    -0.026 C 
HETATM    6  C9  UNL     1       8.898  17.291  51.802  1.00  0.00     0.038 C 
HETATM    7  C10 UNL     1       8.557  18.288  52.964  1.00  0.00     0.083 C 
HETATM    8  C11 UNL     1       8.398  19.522  52.312  1.00  0.00    -0.180 C 
HETATM    9  C12 UNL     1       8.132  20.872  52.036  1.00  0.00     0.114 C 
ENDROOT
BRANCH   2  10
HETATM   10  N1  UNL     1       9.850  21.500  50.405  1.00  0.00    -0.349 N 
ATOM     11  H1  UNL     1      10.452  21.467  51.228  1.00  0.00     0.163 HD
BRANCH  10  12
HETATM   12  C3  UNL     1      10.391  22.017  49.164  1.00  0.00     0.172 C 
HETATM   13  N2  UNL     1      10.184  23.153  48.643  1.00  0.00    -0.361 N 
HETATM   14  C4  UNL     1      10.879  23.331  47.411  1.00  0.00     0.142 C 
ATOM     15  H2  UNL     1       9.584  23.865  49.060  1.00  0.00     0.162 HD
HETATM   16  C5  UNL     1      11.231  21.908  47.016  1.00  0.00     0.142 C 
HETATM   17  N3  UNL     1      11.266  21.284  48.328  1.00  0.00    -0.361 N 
ATOM     18  H3  UNL     1      11.818  20.469  48.596  1.00  0.00     0.162 HD
ENDBRANCH  10  12
ENDBRANCH   2  10
TORSDOF 2
ENDMDL
MODEL 3
REMARK VINA RESULT: -5.874041445      1.263      1.447
REMARK  2 active torsions:
REMARK  status: ('A' for Active; 'I' for Inactive)
REMARK    1  A    between atoms: C2_2  and  N1_3 
REMARK    2  A    between atoms: N1_3  and  C3_5 
ROOT
HETATM    1  C1  UNL     1       9.485  19.575  51.355  1.00  0.00     0.044 C 
HETATM    2  C2  UNL     1       8.318  20.477  51.767  1.00  0.00     0.056 C 
HETATM    3  C6  UNL     1       7.882  20.052  53.105  1.00  0.00     0.004 C 
HETATM    4  C7  UNL     1       7.022  20.770  54.024  1.00  0.00    -0.006 C 
HETATM    5  C8  UNL     1       5.710  21.336  53.757  1.00  0.00    -0.026 C 
HETATM    6  C9  UNL     1       4.581  20.658  53.110  1.00  0.00     0.038 C 
HETATM    7  C10 UNL     1       4.649  20.579  51.546  1.00  0.00     0.083 C 
HETATM    8  C11 UNL     1       6.024  20.462  51.275  1.00  0.00    -0.180 C 
HETATM    9  C12 UNL     1       7.256  20.302  50.625  1.00  0.00     0.114 C 
ENDROOT
BRANCH   2  10
HETATM   10  N1  UNL     1       8.757  21.844  51.798  1.00  0.00    -0.349 N 
ATOM     11  H1  UNL     1       8.808  22.324  52.697  1.00  0.00     0.163 HD
BRANCH  10  12
HETATM   12  C3  UNL     1       9.132  22.567  50.599  1.00  0.00     0.172 C 
HETATM   13  N2  UNL     1       8.431  23.395  49.943  1.00  0.00    -0.361 N 
HETATM   14  C4  UNL     1       9.116  23.920  48.808  1.00  0.00     0.142 C 
ATOM     15  H2  UNL     1       7.480  23.657  50.200  1.00  0.00     0.162 HD
HETATM   16  C5  UNL     1      10.248  22.928  48.610  1.00  0.00     0.142 C 
HETATM   17  N3  UNL     1      10.392  22.436  49.970  1.00  0.00    -0.361 N 
ATOM     18  H3  UNL     1      11.243  22.065  50.393  1.00  0.00     0.162 HD
ENDBRANCH  10  12
ENDBRANCH   2  10
TORSDOF 2
ENDMDL
MODEL 4
REMARK VINA RESULT: -5.869702148      2.995      4.548
REMARK  2 active torsions:
REMARK  status: ('A' for Active; 'I' for Inactive)
REMARK    1  A    between atoms: C2_2  and  N1_3 
REMARK    2  A    between atoms: N1_3  and  C3_5 
ROOT
HETATM    1  C1  UNL     1       5.455  20.728  53.058  1.00  0.00     0.044 C 
HETATM    2  C2  UNL     1       4.707  20.379  51.767  1.00  0.00     0.056 C 
HETATM    3  C6  UNL     1       3.268  20.455  52.056  1.00  0.00     0.004 C 
HETATM    4  C7  UNL     1       2.177  20.497  51.104  1.00  0.00    -0.006 C 
HETATM    5  C8  UNL     1       1.925  19.586  49.999  1.00  0.00    -0.026 C 
HETATM    6  C9  UNL     1       1.918  18.121  50.058  1.00  0.00     0.038 C 
HETATM    7  C10 UNL     1       3.330  17.439  50.041  1.00  0.00     0.083 C 
HETATM    8  C11 UNL     1       4.150  18.349  50.731  1.00  0.00    -0.180 C 
HETATM    9  C12 UNL     1       5.241  18.958  51.369  1.00  0.00     0.114 C 
ENDROOT
BRANCH   2  10
HETATM   10  N1  UNL     1       5.059  21.320  50.741  1.00  0.00    -0.349 N 
ATOM     11  H1  UNL     1       4.318  21.864  50.297  1.00  0.00     0.163 HD
BRANCH  10  12
HETATM   12  C3  UNL     1       6.428  21.525  50.312  1.00  0.00     0.172 C 
HETATM   13  N2  UNL     1       7.211  20.678  49.786  1.00  0.00    -0.361 N 
HETATM   14  C4  UNL     1       8.494  21.222  49.487  1.00  0.00     0.142 C 
ATOM     15  H2  UNL     1       6.949  19.710  49.597  1.00  0.00     0.162 HD
HETATM   16  C5  UNL     1       8.530  22.481  50.333  1.00  0.00     0.142 C 
HETATM   17  N3  UNL     1       7.107  22.760  50.430  1.00  0.00    -0.361 N 
ATOM     18  H3  UNL     1       6.678  23.677  50.559  1.00  0.00     0.162 HD
ENDBRANCH  10  12
ENDBRANCH   2  10
TORSDOF 2
ENDMDL
MODEL 5
REMARK VINA RESULT: -5.847939130      1.266      1.960
REMARK  2 active torsions:
REMARK  status: ('A' for Active; 'I' for Inactive)
REMARK    1  A    between atoms: C2_2  and  N1_3 
REMARK    2  A    between atoms: N1_3  and  C3_5 
ROOT
HETATM    1  C1  UNL     1       6.820  20.337  49.489  1.00  0.00     0.044 C 
HETATM    2  C2  UNL     1       6.811  20.858  50.929  1.00  0.00     0.056 C 
HETATM    3  C6  UNL     1       7.385  19.808  51.783  1.00  0.00     0.004 C 
HETATM    4  C7  UNL     1       7.850  19.936  53.149  1.00  0.00    -0.006 C 
HETATM    5  C8  UNL     1       7.133  20.492  54.285  1.00  0.00    -0.026 C 
HETATM    6  C9  UNL     1       5.765  20.164  54.701  1.00  0.00     0.038 C 
HETATM    7  C10 UNL     1       4.626  20.869  53.886  1.00  0.00     0.083 C 
HETATM    8  C11 UNL     1       5.155  20.971  52.588  1.00  0.00    -0.180 C 
HETATM    9  C12 UNL     1       5.310  21.214  51.215  1.00  0.00     0.114 C 
ENDROOT
BRANCH   2  10
HETATM   10  N1  UNL     1       7.604  22.053  51.010  1.00  0.00    -0.349 N 
ATOM     11  H1  UNL     1       7.364  22.756  51.710  1.00  0.00     0.163 HD
BRANCH  10  12
HETATM   12  C3  UNL     1       8.731  22.298  50.133  1.00  0.00     0.172 C 
HETATM   13  N2  UNL     1       8.842  23.195  49.245  1.00  0.00    -0.361 N 
HETATM   14  C4  UNL     1      10.094  23.147  48.565  1.00  0.00     0.142 C 
ATOM     15  H2  UNL     1       8.114  23.879  49.040  1.00  0.00     0.162 HD
HETATM   16  C5  UNL     1      10.600  21.753  48.890  1.00  0.00     0.142 C 
HETATM   17  N3  UNL     1       9.918  21.527  50.153  1.00  0.00    -0.361 N 
ATOM     18  H3  UNL     1      10.234  20.924  50.913  1.00  0.00     0.162 HD
ENDBRANCH  10  12
ENDBRANCH   2  10
TORSDOF 2
ENDMDL
