MODEL 1
REMARK VINA RESULT: -8.240660141      0.000      0.000
REMARK  15 active torsions:
REMARK  status: ('A' for Active; 'I' for Inactive)
REMARK    1  A    between atoms: C2_2  and  C3_3 
REMARK    2  A    between atoms: C3_3  and  C4_4 
REMARK    3  A    between atoms: C12_12  and  C13_13 
REMARK    4  A    between atoms: C16_16  and  O1_17 
REMARK    5  A    between atoms: C19_21  and  C20_22 
REMARK    6  A    between atoms: C20_22  and  C21_24 
REMARK    7  A    between atoms: C21_24  and  C22_25 
REMARK    8  A    between atoms: C22_25  and  C23_26 
REMARK    9  A    between atoms: C23_26  and  C24_27 
REMARK   10  A    between atoms: C24_27  and  C25_28 
REMARK   11  A    between atoms: C25_28  and  C26_29 
REMARK   12  A    between atoms: C26_29  and  C27_30 
REMARK   13  A    between atoms: C27_30  and  O3_31 
REMARK   14  A    between atoms: C27_30  and  O4_33 
REMARK   15  A    between atoms: O4_33  and  S1_34 
ROOT
HETATM    1  C13 UNL     1      -7.268  17.120  27.084  1.00  0.00     0.006 C 
HETATM    2  C14 UNL     1      -7.950  18.365  27.531  1.00  0.00     0.009 C 
HETATM    3  C15 UNL     1      -6.955  19.472  27.281  1.00  0.00     0.039 C 
HETATM    4  C16 UNL     1      -5.702  18.870  26.745  1.00  0.00     0.066 C 
HETATM    5  C17 UNL     1      -5.337  19.588  25.486  1.00  0.00     0.039 C 
HETATM    6  C18 UNL     1      -5.141  18.486  24.485  1.00  0.00     0.016 C 
HETATM    7  C19 UNL     1      -6.047  17.359  24.895  1.00  0.00     0.067 C 
HETATM    8  C28 UNL     1      -6.020  17.426  26.389  1.00  0.00     0.002 C 
HETATM    9  C29 UNL     1      -4.800  16.617  26.809  1.00  0.00     0.019 C 
ENDROOT
BRANCH   7  10
HETATM   10  C20 UNL     1      -7.317  17.263  24.196  1.00  0.00     0.132 C 
HETATM   11  O2  UNL     1      -7.574  18.177  23.389  1.00  0.00    -0.298 OA
BRANCH  10  12
HETATM   12  C21 UNL     1      -8.356  16.241  24.293  1.00  0.00     0.079 C 
BRANCH  12  13
HETATM   13  C22 UNL     1      -9.770  16.624  24.495  1.00  0.00     0.007 C 
BRANCH  13  14
HETATM   14  C23 UNL     1     -10.758  16.322  23.451  1.00  0.00     0.000 C 
BRANCH  14  15
HETATM   15  C24 UNL     1     -10.374  15.542  22.244  1.00  0.00     0.000 C 
BRANCH  15  16
HETATM   16  C25 UNL     1      -9.839  16.393  21.137  1.00  0.00     0.005 C 
BRANCH  16  17
HETATM   17  C26 UNL     1      -8.680  15.887  20.377  1.00  0.00     0.062 C 
BRANCH  17  18
HETATM   18  C27 UNL     1      -7.610  16.882  20.130  1.00  0.00     0.278 C 
BRANCH  18  19
HETATM   19  O3  UNL     1      -7.970  18.175  20.492  1.00  0.00    -0.370 OA
ATOM     20  H3  UNL     1      -7.240  18.782  20.486  1.00  0.00     0.212 HD
ENDBRANCH  18  19
BRANCH  18  21
HETATM   21  O4  UNL     1      -6.444  16.594  20.869  1.00  0.00    -0.224 OA
BRANCH  21  22
HETATM   22  S1  UNL     1      -5.209  17.575  20.322  1.00  0.00     0.254 S 
HETATM   23  O5  UNL     1      -5.514  18.098  18.928  1.00  0.00    -0.572 OA
HETATM   24  O6  UNL     1      -4.998  18.785  21.186  1.00  0.00    -0.572 OA
HETATM   25  O7  UNL     1      -3.755  16.716  20.329  1.00  0.00    -0.572 OA
ENDBRANCH  21  22
ENDBRANCH  18  21
ENDBRANCH  17  18
ENDBRANCH  16  17
ENDBRANCH  15  16
ENDBRANCH  14  15
ENDBRANCH  13  14
ENDBRANCH  12  13
ENDBRANCH  10  12
ENDBRANCH   7  10
BRANCH   1  26
HETATM   26  C12 UNL     1      -7.375  15.977  28.026  1.00  0.00     0.024 C 
HETATM   27  C7  UNL     1      -8.112  16.122  29.266  1.00  0.00    -0.047 A 
HETATM   28  C6  UNL     1      -7.907  16.702  30.481  1.00  0.00     0.009 A 
HETATM   29  C8  UNL     1      -9.360  15.475  29.145  1.00  0.00    -0.051 A 
HETATM   30  C5  UNL     1      -8.809  16.688  31.530  1.00  0.00     0.008 A 
HETATM   31  C4  UNL     1     -10.017  16.052  31.384  1.00  0.00    -0.054 A 
HETATM   32  C9  UNL     1     -10.268  15.453  30.181  1.00  0.00     0.015 A 
HETATM   33  C10 UNL     1      -9.502  14.859  27.810  1.00  0.00     0.040 C 
HETATM   34  C11 UNL     1      -8.094  14.802  27.333  1.00  0.00     0.014 C 
BRANCH  31  35
HETATM   35  C3  UNL     1     -10.955  16.065  32.535  1.00  0.00     0.064 C 
BRANCH  35  36
HETATM   36  C2  UNL     1     -10.353  15.469  33.766  1.00  0.00    -0.032 C 
HETATM   37  C1  UNL     1     -10.329  16.209  34.859  1.00  0.00     0.007 C 
ENDBRANCH  35  36
ENDBRANCH  31  35
ENDBRANCH   1  26
BRANCH   4  38
HETATM   38  O1  UNL     1      -4.625  18.986  27.620  1.00  0.00    -0.389 OA
ATOM     39  H1  UNL     1      -4.095  18.199  27.665  1.00  0.00     0.210 HD
ENDBRANCH   4  38
TORSDOF 15
ENDMDL
MODEL 2
REMARK VINA RESULT: -8.109676629      4.962      9.610
REMARK  15 active torsions:
REMARK  status: ('A' for Active; 'I' for Inactive)
REMARK    1  A    between atoms: C2_2  and  C3_3 
REMARK    2  A    between atoms: C3_3  and  C4_4 
REMARK    3  A    between atoms: C12_12  and  C13_13 
REMARK    4  A    between atoms: C16_16  and  O1_17 
REMARK    5  A    between atoms: C19_21  and  C20_22 
REMARK    6  A    between atoms: C20_22  and  C21_24 
REMARK    7  A    between atoms: C21_24  and  C22_25 
REMARK    8  A    between atoms: C22_25  and  C23_26 
REMARK    9  A    between atoms: C23_26  and  C24_27 
REMARK   10  A    between atoms: C24_27  and  C25_28 
REMARK   11  A    between atoms: C25_28  and  C26_29 
REMARK   12  A    between atoms: C26_29  and  C27_30 
REMARK   13  A    between atoms: C27_30  and  O3_31 
REMARK   14  A    between atoms: C27_30  and  O4_33 
REMARK   15  A    between atoms: O4_33  and  S1_34 
ROOT
HETATM    1  C13 UNL     1      -9.525  16.282  26.345  1.00  0.00     0.006 C 
HETATM    2  C14 UNL     1      -8.309  15.433  26.223  1.00  0.00     0.009 C 
HETATM    3  C15 UNL     1      -7.435  15.822  27.389  1.00  0.00     0.039 C 
HETATM    4  C16 UNL     1      -8.113  16.914  28.144  1.00  0.00     0.066 C 
HETATM    5  C17 UNL     1      -8.174  16.520  29.585  1.00  0.00     0.039 C 
HETATM    6  C18 UNL     1      -9.621  16.696  29.945  1.00  0.00     0.016 C 
HETATM    7  C19 UNL     1     -10.416  16.448  28.695  1.00  0.00     0.067 C 
HETATM    8  C28 UNL     1      -9.536  17.000  27.618  1.00  0.00     0.002 C 
HETATM    9  C29 UNL     1      -9.864  18.486  27.549  1.00  0.00     0.019 C 
ENDROOT
BRANCH   7  10
HETATM   10  C20 UNL     1     -10.998  15.126  28.549  1.00  0.00     0.132 C 
HETATM   11  O2  UNL     1     -10.261  14.163  28.838  1.00  0.00    -0.298 OA
BRANCH  10  12
HETATM   12  C21 UNL     1     -12.337  14.742  28.111  1.00  0.00     0.079 C 
BRANCH  12  13
HETATM   13  C22 UNL     1     -12.805  13.347  28.258  1.00  0.00     0.007 C 
BRANCH  13  14
HETATM   14  C23 UNL     1     -13.150  12.836  29.590  1.00  0.00     0.000 C 
BRANCH  14  15
HETATM   15  C24 UNL     1     -14.306  13.393  30.343  1.00  0.00     0.000 C 
BRANCH  15  16
HETATM   16  C25 UNL     1     -13.938  13.899  31.701  1.00  0.00     0.005 C 
BRANCH  16  17
HETATM   17  C26 UNL     1     -12.945  14.987  31.785  1.00  0.00     0.062 C 
BRANCH  17  18
HETATM   18  C27 UNL     1     -11.744  14.676  32.595  1.00  0.00     0.278 C 
BRANCH  18  19
HETATM   19  O3  UNL     1     -10.767  13.988  31.884  1.00  0.00    -0.370 OA
ATOM     20  H3  UNL     1      -9.989  13.805  32.397  1.00  0.00     0.212 HD
ENDBRANCH  18  19
BRANCH  18  21
HETATM   21  O4  UNL     1     -11.112  15.844  33.069  1.00  0.00    -0.224 OA
BRANCH  21  22
HETATM   22  S1  UNL     1     -10.642  15.592  34.651  1.00  0.00     0.254 S 
HETATM   23  O5  UNL     1      -9.490  16.510  35.024  1.00  0.00    -0.572 OA
HETATM   24  O6  UNL     1     -11.739  15.873  35.638  1.00  0.00    -0.572 OA
HETATM   25  O7  UNL     1     -10.204  13.974  34.863  1.00  0.00    -0.572 OA
ENDBRANCH  21  22
ENDBRANCH  18  21
ENDBRANCH  17  18
ENDBRANCH  16  17
ENDBRANCH  15  16
ENDBRANCH  14  15
ENDBRANCH  13  14
ENDBRANCH  12  13
ENDBRANCH  10  12
ENDBRANCH   7  10
BRANCH   1  26
HETATM   26  C12 UNL     1      -9.966  16.927  25.083  1.00  0.00     0.024 C 
HETATM   27  C7  UNL     1      -9.054  17.031  23.961  1.00  0.00    -0.047 A 
HETATM   28  C6  UNL     1      -7.986  17.803  23.618  1.00  0.00     0.009 A 
HETATM   29  C8  UNL     1      -9.397  16.069  22.988  1.00  0.00    -0.051 A 
HETATM   30  C5  UNL     1      -7.270  17.691  22.439  1.00  0.00     0.008 A 
HETATM   31  C4  UNL     1      -7.626  16.744  21.511  1.00  0.00    -0.054 A 
HETATM   32  C9  UNL     1      -8.694  15.945  21.810  1.00  0.00     0.015 A 
HETATM   33  C10 UNL     1     -10.571  15.284  23.423  1.00  0.00     0.040 C 
HETATM   34  C11 UNL     1     -11.154  16.143  24.489  1.00  0.00     0.014 C 
BRANCH  31  35
HETATM   35  C3  UNL     1      -6.828  16.658  20.262  1.00  0.00     0.064 C 
BRANCH  35  36
HETATM   36  C2  UNL     1      -6.072  17.916  19.982  1.00  0.00    -0.032 C 
HETATM   37  C1  UNL     1      -4.759  17.831  19.862  1.00  0.00     0.007 C 
ENDBRANCH  35  36
ENDBRANCH  31  35
ENDBRANCH   1  26
BRANCH   4  38
HETATM   38  O1  UNL     1      -7.435  18.128  28.072  1.00  0.00    -0.389 OA
ATOM     39  H1  UNL     1      -7.997  18.878  28.227  1.00  0.00     0.210 HD
ENDBRANCH   4  38
TORSDOF 15
ENDMDL
MODEL 3
REMARK VINA RESULT: -7.941396749      0.810      1.217
REMARK  15 active torsions:
REMARK  status: ('A' for Active; 'I' for Inactive)
REMARK    1  A    between atoms: C2_2  and  C3_3 
REMARK    2  A    between atoms: C3_3  and  C4_4 
REMARK    3  A    between atoms: C12_12  and  C13_13 
REMARK    4  A    between atoms: C16_16  and  O1_17 
REMARK    5  A    between atoms: C19_21  and  C20_22 
REMARK    6  A    between atoms: C20_22  and  C21_24 
REMARK    7  A    between atoms: C21_24  and  C22_25 
REMARK    8  A    between atoms: C22_25  and  C23_26 
REMARK    9  A    between atoms: C23_26  and  C24_27 
REMARK   10  A    between atoms: C24_27  and  C25_28 
REMARK   11  A    between atoms: C25_28  and  C26_29 
REMARK   12  A    between atoms: C26_29  and  C27_30 
REMARK   13  A    between atoms: C27_30  and  O3_31 
REMARK   14  A    between atoms: C27_30  and  O4_33 
REMARK   15  A    between atoms: O4_33  and  S1_34 
ROOT
HETATM    1  C13 UNL     1      -7.393  16.990  26.990  1.00  0.00     0.006 C 
HETATM    2  C14 UNL     1      -8.212  18.181  27.341  1.00  0.00     0.009 C 
HETATM    3  C15 UNL     1      -7.290  19.362  27.161  1.00  0.00     0.039 C 
HETATM    4  C16 UNL     1      -5.947  18.856  26.760  1.00  0.00     0.066 C 
HETATM    5  C17 UNL     1      -5.521  19.584  25.525  1.00  0.00     0.039 C 
HETATM    6  C18 UNL     1      -5.142  18.486  24.573  1.00  0.00     0.016 C 
HETATM    7  C19 UNL     1      -5.990  17.295  24.921  1.00  0.00     0.067 C 
HETATM    8  C28 UNL     1      -6.112  17.387  26.409  1.00  0.00     0.002 C 
HETATM    9  C29 UNL     1      -4.877  16.686  26.961  1.00  0.00     0.019 C 
ENDROOT
BRANCH   7  10
HETATM   10  C20 UNL     1      -7.174  17.085  24.108  1.00  0.00     0.132 C 
HETATM   11  O2  UNL     1      -7.632  18.088  23.527  1.00  0.00    -0.298 OA
BRANCH  10  12
HETATM   12  C21 UNL     1      -7.925  15.857  23.858  1.00  0.00     0.079 C 
BRANCH  12  13
HETATM   13  C22 UNL     1      -9.323  15.915  23.378  1.00  0.00     0.007 C 
BRANCH  13  14
HETATM   14  C23 UNL     1      -9.626  15.553  21.988  1.00  0.00     0.000 C 
BRANCH  14  15
HETATM   15  C24 UNL     1      -9.497  16.554  20.895  1.00  0.00     0.000 C 
BRANCH  15  16
HETATM   16  C25 UNL     1      -8.149  16.553  20.249  1.00  0.00     0.005 C 
BRANCH  16  17
HETATM   17  C26 UNL     1      -7.410  17.829  20.194  1.00  0.00     0.062 C 
BRANCH  17  18
HETATM   18  C27 UNL     1      -5.944  17.696  20.022  1.00  0.00     0.278 C 
BRANCH  18  19
HETATM   19  O3  UNL     1      -5.485  18.210  18.814  1.00  0.00    -0.370 OA
ATOM     20  H3  UNL     1      -6.185  18.488  18.236  1.00  0.00     0.212 HD
ENDBRANCH  18  19
BRANCH  18  21
HETATM   21  O4  UNL     1      -5.231  18.389  21.022  1.00  0.00    -0.224 OA
BRANCH  21  22
HETATM   22  S1  UNL     1      -3.598  18.131  20.791  1.00  0.00     0.254 S 
HETATM   23  O5  UNL     1      -3.014  19.178  19.858  1.00  0.00    -0.572 OA
HETATM   24  O6  UNL     1      -2.807  18.216  22.064  1.00  0.00    -0.572 OA
HETATM   25  O7  UNL     1      -3.350  16.579  20.171  1.00  0.00    -0.572 OA
ENDBRANCH  21  22
ENDBRANCH  18  21
ENDBRANCH  17  18
ENDBRANCH  16  17
ENDBRANCH  15  16
ENDBRANCH  14  15
ENDBRANCH  13  14
ENDBRANCH  12  13
ENDBRANCH  10  12
ENDBRANCH   7  10
BRANCH   1  26
HETATM   26  C12 UNL     1      -7.498  15.857  27.943  1.00  0.00     0.024 C 
HETATM   27  C7  UNL     1      -8.180  16.032  29.210  1.00  0.00    -0.047 A 
HETATM   28  C6  UNL     1      -7.908  16.612  30.412  1.00  0.00     0.009 A 
HETATM   29  C8  UNL     1      -9.452  15.425  29.144  1.00  0.00    -0.051 A 
HETATM   30  C5  UNL     1      -8.767  16.633  31.496  1.00  0.00     0.008 A 
HETATM   31  C4  UNL     1     -10.000  16.035  31.403  1.00  0.00    -0.054 A 
HETATM   32  C9  UNL     1     -10.318  15.438  30.216  1.00  0.00     0.015 A 
HETATM   33  C10 UNL     1      -9.667  14.806  27.820  1.00  0.00     0.040 C 
HETATM   34  C11 UNL     1      -8.281  14.701  27.288  1.00  0.00     0.014 C 
BRANCH  31  35
HETATM   35  C3  UNL     1     -10.889  16.085  32.591  1.00  0.00     0.064 C 
BRANCH  35  36
HETATM   36  C2  UNL     1     -10.267  15.459  33.795  1.00  0.00    -0.032 C 
HETATM   37  C1  UNL     1     -10.187  16.185  34.895  1.00  0.00     0.007 C 
ENDBRANCH  35  36
ENDBRANCH  31  35
ENDBRANCH   1  26
BRANCH   4  38
HETATM   38  O1  UNL     1      -4.972  19.074  27.730  1.00  0.00    -0.389 OA
ATOM     39  H1  UNL     1      -4.693  19.981  27.781  1.00  0.00     0.210 HD
ENDBRANCH   4  38
TORSDOF 15
ENDMDL
MODEL 4
REMARK VINA RESULT: -7.663135037      2.369      5.035
REMARK  15 active torsions:
REMARK  status: ('A' for Active; 'I' for Inactive)
REMARK    1  A    between atoms: C2_2  and  C3_3 
REMARK    2  A    between atoms: C3_3  and  C4_4 
REMARK    3  A    between atoms: C12_12  and  C13_13 
REMARK    4  A    between atoms: C16_16  and  O1_17 
REMARK    5  A    between atoms: C19_21  and  C20_22 
REMARK    6  A    between atoms: C20_22  and  C21_24 
REMARK    7  A    between atoms: C21_24  and  C22_25 
REMARK    8  A    between atoms: C22_25  and  C23_26 
REMARK    9  A    between atoms: C23_26  and  C24_27 
REMARK   10  A    between atoms: C24_27  and  C25_28 
REMARK   11  A    between atoms: C25_28  and  C26_29 
REMARK   12  A    between atoms: C26_29  and  C27_30 
REMARK   13  A    between atoms: C27_30  and  O3_31 
REMARK   14  A    between atoms: C27_30  and  O4_33 
REMARK   15  A    between atoms: O4_33  and  S1_34 
ROOT
HETATM    1  C13 UNL     1      -9.987  15.946  29.447  1.00  0.00     0.006 C 
HETATM    2  C14 UNL     1     -10.421  14.523  29.475  1.00  0.00     0.009 C 
HETATM    3  C15 UNL     1     -11.364  14.374  28.307  1.00  0.00     0.039 C 
HETATM    4  C16 UNL     1     -11.510  15.702  27.644  1.00  0.00     0.066 C 
HETATM    5  C17 UNL     1     -11.237  15.531  26.185  1.00  0.00     0.039 C 
HETATM    6  C18 UNL     1     -10.209  16.584  25.885  1.00  0.00     0.016 C 
HETATM    7  C19 UNL     1      -9.415  16.790  27.144  1.00  0.00     0.067 C 
HETATM    8  C28 UNL     1     -10.435  16.607  28.223  1.00  0.00     0.002 C 
HETATM    9  C29 UNL     1     -11.090  17.972  28.396  1.00  0.00     0.019 C 
ENDROOT
BRANCH   7  10
HETATM   10  C20 UNL     1      -8.141  16.098  27.226  1.00  0.00     0.132 C 
HETATM   11  O2  UNL     1      -8.097  14.959  26.723  1.00  0.00    -0.298 OA
BRANCH  10  12
HETATM   12  C21 UNL     1      -6.879  16.539  27.815  1.00  0.00     0.079 C 
BRANCH  12  13
HETATM   13  C22 UNL     1      -6.603  17.980  28.007  1.00  0.00     0.007 C 
BRANCH  13  14
HETATM   14  C23 UNL     1      -5.706  18.675  27.076  1.00  0.00     0.000 C 
BRANCH  14  15
HETATM   15  C24 UNL     1      -4.586  17.952  26.415  1.00  0.00     0.000 C 
BRANCH  15  16
HETATM   16  C25 UNL     1      -4.929  17.457  25.046  1.00  0.00     0.005 C 
BRANCH  16  17
HETATM   17  C26 UNL     1      -6.082  18.070  24.360  1.00  0.00     0.062 C 
BRANCH  17  18
HETATM   18  C27 UNL     1      -6.812  17.169  23.437  1.00  0.00     0.278 C 
BRANCH  18  19
HETATM   19  O3  UNL     1      -7.155  15.953  24.016  1.00  0.00    -0.370 OA
ATOM     20  H3  UNL     1      -6.464  15.585  24.553  1.00  0.00     0.212 HD
ENDBRANCH  18  19
BRANCH  18  21
HETATM   21  O4  UNL     1      -8.027  17.735  23.000  1.00  0.00    -0.224 OA
BRANCH  21  22
HETATM   22  S1  UNL     1      -8.652  16.783  21.779  1.00  0.00     0.254 S 
HETATM   23  O5  UNL     1      -9.147  17.641  20.627  1.00  0.00    -0.572 OA
HETATM   24  O6  UNL     1      -7.638  15.842  21.195  1.00  0.00    -0.572 OA
HETATM   25  O7  UNL     1      -9.904  15.827  22.388  1.00  0.00    -0.572 OA
ENDBRANCH  21  22
ENDBRANCH  18  21
ENDBRANCH  17  18
ENDBRANCH  16  17
ENDBRANCH  15  16
ENDBRANCH  14  15
ENDBRANCH  13  14
ENDBRANCH  12  13
ENDBRANCH  10  12
ENDBRANCH   7  10
BRANCH   1  26
HETATM   26  C12 UNL     1     -10.021  16.636  30.761  1.00  0.00     0.024 C 
HETATM   27  C7  UNL     1     -10.480  15.930  31.942  1.00  0.00    -0.047 A 
HETATM   28  C6  UNL     1     -11.676  15.543  32.464  1.00  0.00     0.009 A 
HETATM   29  C8  UNL     1      -9.369  15.573  32.735  1.00  0.00    -0.051 A 
HETATM   30  C5  UNL     1     -11.839  14.858  33.655  1.00  0.00     0.008 A 
HETATM   31  C4  UNL     1     -10.740  14.523  34.406  1.00  0.00    -0.054 A 
HETATM   32  C9  UNL     1      -9.515  14.892  33.923  1.00  0.00     0.015 A 
HETATM   33  C10 UNL     1      -8.113  16.040  32.113  1.00  0.00     0.040 C 
HETATM   34  C11 UNL     1      -8.594  17.071  31.154  1.00  0.00     0.014 C 
BRANCH  31  35
HETATM   35  C3  UNL     1     -10.962  13.786  35.676  1.00  0.00     0.064 C 
BRANCH  35  36
HETATM   36  C2  UNL     1     -12.299  13.121  35.722  1.00  0.00    -0.032 C 
HETATM   37  C1  UNL     1     -12.421  12.037  36.465  1.00  0.00     0.007 C 
ENDBRANCH  35  36
ENDBRANCH  31  35
ENDBRANCH   1  26
BRANCH   4  38
HETATM   38  O1  UNL     1     -12.791  16.234  27.770  1.00  0.00    -0.389 OA
ATOM     39  H1  UNL     1     -13.243  16.316  26.939  1.00  0.00     0.210 HD
ENDBRANCH   4  38
TORSDOF 15
ENDMDL
MODEL 5
REMARK VINA RESULT: -7.638976410      2.287      4.498
REMARK  15 active torsions:
REMARK  status: ('A' for Active; 'I' for Inactive)
REMARK    1  A    between atoms: C2_2  and  C3_3 
REMARK    2  A    between atoms: C3_3  and  C4_4 
REMARK    3  A    between atoms: C12_12  and  C13_13 
REMARK    4  A    between atoms: C16_16  and  O1_17 
REMARK    5  A    between atoms: C19_21  and  C20_22 
REMARK    6  A    between atoms: C20_22  and  C21_24 
REMARK    7  A    between atoms: C21_24  and  C22_25 
REMARK    8  A    between atoms: C22_25  and  C23_26 
REMARK    9  A    between atoms: C23_26  and  C24_27 
REMARK   10  A    between atoms: C24_27  and  C25_28 
REMARK   11  A    between atoms: C25_28  and  C26_29 
REMARK   12  A    between atoms: C26_29  and  C27_30 
REMARK   13  A    between atoms: C27_30  and  O3_31 
REMARK   14  A    between atoms: C27_30  and  O4_33 
REMARK   15  A    between atoms: O4_33  and  S1_34 
ROOT
HETATM    1  C13 UNL     1      -8.616  16.629  27.932  1.00  0.00     0.006 C 
HETATM    2  C14 UNL     1      -8.026  15.271  28.072  1.00  0.00     0.009 C 
HETATM    3  C15 UNL     1      -7.777  14.799  26.660  1.00  0.00     0.039 C 
HETATM    4  C16 UNL     1      -8.262  15.849  25.719  1.00  0.00     0.066 C 
HETATM    5  C17 UNL     1      -7.158  16.168  24.763  1.00  0.00     0.039 C 
HETATM    6  C18 UNL     1      -7.041  17.663  24.834  1.00  0.00     0.016 C 
HETATM    7  C19 UNL     1      -7.459  18.069  26.219  1.00  0.00     0.067 C 
HETATM    8  C28 UNL     1      -8.543  17.092  26.547  1.00  0.00     0.002 C 
HETATM    9  C29 UNL     1      -9.819  17.694  25.971  1.00  0.00     0.019 C 
ENDROOT
BRANCH   7  10
HETATM   10  C20 UNL     1      -6.390  18.312  27.171  1.00  0.00     0.132 C 
HETATM   11  O2  UNL     1      -6.449  19.382  27.807  1.00  0.00    -0.298 OA
BRANCH  10  12
HETATM   12  C21 UNL     1      -5.237  17.480  27.508  1.00  0.00     0.079 C 
BRANCH  12  13
HETATM   13  C22 UNL     1      -3.971  17.611  26.755  1.00  0.00     0.007 C 
BRANCH  13  14
HETATM   14  C23 UNL     1      -3.643  16.627  25.715  1.00  0.00     0.000 C 
BRANCH  14  15
HETATM   15  C24 UNL     1      -2.813  17.009  24.541  1.00  0.00     0.000 C 
BRANCH  15  16
HETATM   16  C25 UNL     1      -3.505  17.954  23.611  1.00  0.00     0.005 C 
BRANCH  16  17
HETATM   17  C26 UNL     1      -3.600  17.575  22.189  1.00  0.00     0.062 C 
BRANCH  17  18
HETATM   18  C27 UNL     1      -4.680  18.252  21.432  1.00  0.00     0.278 C 
BRANCH  18  19
HETATM   19  O3  UNL     1      -4.205  19.132  20.468  1.00  0.00    -0.370 OA
ATOM     20  H3  UNL     1      -4.139  20.028  20.778  1.00  0.00     0.212 HD
ENDBRANCH  18  19
BRANCH  18  21
HETATM   21  O4  UNL     1      -5.491  17.332  20.736  1.00  0.00    -0.224 OA
BRANCH  21  22
HETATM   22  S1  UNL     1      -7.088  17.778  20.924  1.00  0.00     0.254 S 
HETATM   23  O5  UNL     1      -7.201  19.031  21.776  1.00  0.00    -0.572 OA
HETATM   24  O6  UNL     1      -7.763  18.096  19.620  1.00  0.00    -0.572 OA
HETATM   25  O7  UNL     1      -7.957  16.507  21.619  1.00  0.00    -0.572 OA
ENDBRANCH  21  22
ENDBRANCH  18  21
ENDBRANCH  17  18
ENDBRANCH  16  17
ENDBRANCH  15  16
ENDBRANCH  14  15
ENDBRANCH  13  14
ENDBRANCH  12  13
ENDBRANCH  10  12
ENDBRANCH   7  10
BRANCH   1  26
HETATM   26  C12 UNL     1      -9.811  16.882  28.775  1.00  0.00     0.024 C 
HETATM   27  C7  UNL     1     -10.743  15.807  29.057  1.00  0.00    -0.047 A 
HETATM   28  C6  UNL     1     -11.734  15.153  28.392  1.00  0.00     0.009 A 
HETATM   29  C8  UNL     1     -10.542  15.350  30.377  1.00  0.00    -0.051 A 
HETATM   30  C5  UNL     1     -12.500  14.127  28.917  1.00  0.00     0.008 A 
HETATM   31  C4  UNL     1     -12.283  13.701  30.204  1.00  0.00    -0.054 A 
HETATM   32  C9  UNL     1     -11.297  14.329  30.913  1.00  0.00     0.015 A 
HETATM   33  C10 UNL     1      -9.465  16.115  31.037  1.00  0.00     0.040 C 
HETATM   34  C11 UNL     1      -9.366  17.329  30.182  1.00  0.00     0.014 C 
BRANCH  31  35
HETATM   35  C3  UNL     1     -13.127  12.596  30.724  1.00  0.00     0.064 C 
BRANCH  35  36
HETATM   36  C2  UNL     1     -14.573  12.783  30.400  1.00  0.00    -0.032 C 
HETATM   37  C1  UNL     1     -15.417  11.844  30.787  1.00  0.00     0.007 C 
ENDBRANCH  35  36
ENDBRANCH  31  35
ENDBRANCH   1  26
BRANCH   4  38
HETATM   38  O1  UNL     1      -9.361  15.439  24.967  1.00  0.00    -0.389 OA
ATOM     39  H1  UNL     1     -10.061  16.081  24.953  1.00  0.00     0.210 HD
ENDBRANCH   4  38
TORSDOF 15
ENDMDL
