MODEL 1
REMARK VINA RESULT: -7.634199102      0.000      0.000
REMARK  13 active torsions:
REMARK  status: ('A' for Active; 'I' for Inactive)
REMARK    1  A    between atoms: C2_2  and  C3_3 
REMARK    2  A    between atoms: C7_7  and  C8_8 
REMARK    3  A    between atoms: C8_8  and  C9_9 
REMARK    4  A    between atoms: C9_9  and  C10_11 
REMARK    5  A    between atoms: C10_11  and  N1_13 
REMARK    6  A    between atoms: N1_13  and  S1_15 
REMARK    7  A    between atoms: C19_26  and  C21_28 
REMARK    8  A    between atoms: C21_28  and  O5_29 
REMARK    9  A    between atoms: C21_28  and  N2_31 
REMARK   10  A    between atoms: N2_31  and  C22_33 
REMARK   11  A    between atoms: C22_33  and  C23_34 
REMARK   12  A    between atoms: C23_34  and  C24_35 
REMARK   13  A    between atoms: C24_35  and  C25_36 
ROOT
HETATM    1  C3  UNL     1      -8.518  15.550  22.853  1.00  0.00    -0.027 C 
HETATM    2  C4  UNL     1      -8.118  15.128  21.451  1.00  0.00     0.019 C 
HETATM    3  C5  UNL     1      -8.042  16.944  23.080  1.00  0.00     0.014 C 
HETATM    4  C6  UNL     1      -8.271  17.393  24.508  1.00  0.00     0.012 C 
HETATM    5  C7  UNL     1      -7.529  16.443  25.433  1.00  0.00    -0.026 C 
HETATM    6  C12 UNL     1      -8.284  15.120  25.235  1.00  0.00    -0.004 C 
HETATM    7  C13 UNL     1      -7.943  14.110  26.315  1.00  0.00     0.006 C 
HETATM    8  C14 UNL     1      -8.235  14.643  27.702  1.00  0.00     0.006 C 
HETATM    9  C15 UNL     1      -8.776  16.009  27.597  1.00  0.00     0.003 C 
HETATM   10  C16 UNL     1      -7.669  16.784  26.856  1.00  0.00    -0.000 C 
HETATM   11  C17 UNL     1      -7.936  18.155  27.300  1.00  0.00     0.007 C 
HETATM   12  C18 UNL     1      -7.932  17.872  28.833  1.00  0.00     0.014 C 
HETATM   13  C19 UNL     1      -9.018  16.815  28.829  1.00  0.00     0.004 C 
HETATM   14  C20 UNL     1     -10.286  17.615  28.546  1.00  0.00     0.020 C 
HETATM   15  C28 UNL     1      -8.068  14.543  23.876  1.00  0.00     0.018 C 
ENDROOT
BRANCH  13  16
HETATM   16  C21 UNL     1      -9.181  16.085  30.087  1.00  0.00     0.222 C 
BRANCH  16  17
HETATM   17  O5  UNL     1      -8.134  16.397  31.022  1.00  0.00    -0.376 OA
ATOM     18  H5  UNL     1      -8.106  15.774  31.738  1.00  0.00     0.212 HD
ENDBRANCH  16  17
BRANCH  16  19
HETATM   19  N2  UNL     1     -10.346  16.344  30.802  1.00  0.00    -0.396 N 
ATOM     20  H2  UNL     1     -10.822  17.200  30.519  1.00  0.00     0.155 HD
BRANCH  19  21
HETATM   21  C22 UNL     1     -10.970  15.673  31.805  1.00  0.00     0.116 C 
BRANCH  21  22
HETATM   22  C23 UNL     1     -11.271  14.202  31.401  1.00  0.00     0.020 C 
BRANCH  22  23
HETATM   23  C24 UNL     1     -12.459  14.186  30.469  1.00  0.00     0.005 C 
BRANCH  23  24
HETATM   24  C25 UNL     1     -12.088  13.694  29.099  1.00  0.00    -0.023 C 
HETATM   25  C26 UNL     1     -12.541  14.741  28.070  1.00  0.00     0.009 C 
HETATM   26  C27 UNL     1     -12.822  12.421  28.737  1.00  0.00     0.009 C 
ENDBRANCH  23  24
ENDBRANCH  22  23
ENDBRANCH  21  22
ENDBRANCH  19  21
ENDBRANCH  16  19
ENDBRANCH  13  16
BRANCH   5  27
HETATM   27  C8  UNL     1      -6.129  16.193  25.008  1.00  0.00     0.090 C 
BRANCH  27  28
HETATM   28  C9  UNL     1      -5.081  17.100  25.495  1.00  0.00     0.150 C 
HETATM   29  O1  UNL     1      -4.634  17.069  26.607  1.00  0.00    -0.296 OA
BRANCH  28  30
HETATM   30  C10 UNL     1      -4.486  18.155  24.600  1.00  0.00     0.160 C 
HETATM   31  C11 UNL     1      -5.332  19.406  24.722  1.00  0.00     0.041 C 
BRANCH  30  32
HETATM   32  N1  UNL     1      -4.353  17.732  23.253  1.00  0.00    -0.289 N 
ATOM     33  H1  UNL     1      -5.154  17.622  22.632  1.00  0.00     0.175 HD
BRANCH  32  34
HETATM   34  S1  UNL     1      -2.738  17.416  22.745  1.00  0.00     0.205 S 
HETATM   35  O2  UNL     1      -1.976  16.621  23.772  1.00  0.00    -0.578 OA
HETATM   36  O3  UNL     1      -2.036  18.745  22.626  1.00  0.00    -0.578 OA
HETATM   37  O4  UNL     1      -2.686  16.679  21.241  1.00  0.00    -0.578 OA
ENDBRANCH  32  34
ENDBRANCH  30  32
ENDBRANCH  28  30
ENDBRANCH  27  28
ENDBRANCH   5  27
BRANCH   1  38
HETATM   38  C2  UNL     1     -10.018  15.572  22.850  1.00  0.00    -0.028 C 
HETATM   39  C1  UNL     1     -10.648  16.178  21.853  1.00  0.00     0.007 C 
ENDBRANCH   1  38
TORSDOF 13
ENDMDL
MODEL 2
REMARK VINA RESULT: -7.535345524      0.876      1.231
REMARK  13 active torsions:
REMARK  status: ('A' for Active; 'I' for Inactive)
REMARK    1  A    between atoms: C2_2  and  C3_3 
REMARK    2  A    between atoms: C7_7  and  C8_8 
REMARK    3  A    between atoms: C8_8  and  C9_9 
REMARK    4  A    between atoms: C9_9  and  C10_11 
REMARK    5  A    between atoms: C10_11  and  N1_13 
REMARK    6  A    between atoms: N1_13  and  S1_15 
REMARK    7  A    between atoms: C19_26  and  C21_28 
REMARK    8  A    between atoms: C21_28  and  O5_29 
REMARK    9  A    between atoms: C21_28  and  N2_31 
REMARK   10  A    between atoms: N2_31  and  C22_33 
REMARK   11  A    between atoms: C22_33  and  C23_34 
REMARK   12  A    between atoms: C23_34  and  C24_35 
REMARK   13  A    between atoms: C24_35  and  C25_36 
ROOT
HETATM    1  C3  UNL     1      -8.673  15.544  22.839  1.00  0.00    -0.027 C 
HETATM    2  C4  UNL     1      -8.278  15.139  21.430  1.00  0.00     0.019 C 
HETATM    3  C5  UNL     1      -8.306  16.975  23.038  1.00  0.00     0.014 C 
HETATM    4  C6  UNL     1      -8.532  17.422  24.466  1.00  0.00     0.012 C 
HETATM    5  C7  UNL     1      -7.690  16.547  25.380  1.00  0.00    -0.026 C 
HETATM    6  C12 UNL     1      -8.339  15.165  25.218  1.00  0.00    -0.004 C 
HETATM    7  C13 UNL     1      -7.886  14.199  26.297  1.00  0.00     0.006 C 
HETATM    8  C14 UNL     1      -8.183  14.724  27.687  1.00  0.00     0.006 C 
HETATM    9  C15 UNL     1      -8.837  16.040  27.583  1.00  0.00     0.003 C 
HETATM   10  C16 UNL     1      -7.817  16.893  26.803  1.00  0.00    -0.000 C 
HETATM   11  C17 UNL     1      -8.184  18.244  27.240  1.00  0.00     0.007 C 
HETATM   12  C18 UNL     1      -8.115  17.981  28.776  1.00  0.00     0.014 C 
HETATM   13  C19 UNL     1      -9.110  16.840  28.813  1.00  0.00     0.004 C 
HETATM   14  C20 UNL     1     -10.447  17.530  28.558  1.00  0.00     0.020 C 
HETATM   15  C28 UNL     1      -8.114  14.591  23.859  1.00  0.00     0.018 C 
ENDROOT
BRANCH  13  16
HETATM   16  C21 UNL     1      -9.178  16.114  30.083  1.00  0.00     0.222 C 
BRANCH  16  17
HETATM   17  O5  UNL     1      -8.103  16.483  30.963  1.00  0.00    -0.376 OA
ATOM     18  H5  UNL     1      -8.376  17.140  31.593  1.00  0.00     0.212 HD
ENDBRANCH  16  17
BRANCH  16  19
HETATM   19  N2  UNL     1     -10.318  16.326  30.851  1.00  0.00    -0.396 N 
ATOM     20  H2  UNL     1     -10.804  17.197  30.638  1.00  0.00     0.155 HD
BRANCH  19  21
HETATM   21  C22 UNL     1     -10.907  15.593  31.831  1.00  0.00     0.116 C 
BRANCH  21  22
HETATM   22  C23 UNL     1     -11.333  14.190  31.313  1.00  0.00     0.020 C 
BRANCH  22  23
HETATM   23  C24 UNL     1     -12.470  14.356  30.335  1.00  0.00     0.005 C 
BRANCH  23  24
HETATM   24  C25 UNL     1     -12.132  13.797  28.982  1.00  0.00    -0.023 C 
HETATM   25  C26 UNL     1     -12.710  14.735  27.913  1.00  0.00     0.009 C 
HETATM   26  C27 UNL     1     -12.789  12.453  28.746  1.00  0.00     0.009 C 
ENDBRANCH  23  24
ENDBRANCH  22  23
ENDBRANCH  21  22
ENDBRANCH  19  21
ENDBRANCH  16  19
ENDBRANCH  13  16
BRANCH   5  27
HETATM   27  C8  UNL     1      -6.286  16.407  24.918  1.00  0.00     0.090 C 
BRANCH  27  28
HETATM   28  C9  UNL     1      -5.376  17.546  25.100  1.00  0.00     0.150 C 
HETATM   29  O1  UNL     1      -5.611  18.658  24.720  1.00  0.00    -0.296 OA
BRANCH  28  30
HETATM   30  C10 UNL     1      -4.051  17.380  25.797  1.00  0.00     0.160 C 
HETATM   31  C11 UNL     1      -4.220  17.817  27.238  1.00  0.00     0.041 C 
BRANCH  30  32
HETATM   32  N1  UNL     1      -2.993  18.070  25.153  1.00  0.00    -0.289 N 
ATOM     33  H1  UNL     1      -2.738  19.028  25.392  1.00  0.00     0.175 HD
BRANCH  32  34
HETATM   34  S1  UNL     1      -2.173  17.172  23.934  1.00  0.00     0.205 S 
HETATM   35  O2  UNL     1      -2.895  17.233  22.614  1.00  0.00    -0.578 OA
HETATM   36  O3  UNL     1      -2.183  15.725  24.358  1.00  0.00    -0.578 OA
HETATM   37  O4  UNL     1      -0.573  17.643  23.777  1.00  0.00    -0.578 OA
ENDBRANCH  32  34
ENDBRANCH  30  32
ENDBRANCH  28  30
ENDBRANCH  27  28
ENDBRANCH   5  27
BRANCH   1  38
HETATM   38  C2  UNL     1     -10.169  15.444  22.878  1.00  0.00    -0.028 C 
HETATM   39  C1  UNL     1     -10.880  16.117  21.985  1.00  0.00     0.007 C 
ENDBRANCH   1  38
TORSDOF 13
ENDMDL
MODEL 3
REMARK VINA RESULT: -7.460336953      1.568      1.791
REMARK  13 active torsions:
REMARK  status: ('A' for Active; 'I' for Inactive)
REMARK    1  A    between atoms: C2_2  and  C3_3 
REMARK    2  A    between atoms: C7_7  and  C8_8 
REMARK    3  A    between atoms: C8_8  and  C9_9 
REMARK    4  A    between atoms: C9_9  and  C10_11 
REMARK    5  A    between atoms: C10_11  and  N1_13 
REMARK    6  A    between atoms: N1_13  and  S1_15 
REMARK    7  A    between atoms: C19_26  and  C21_28 
REMARK    8  A    between atoms: C21_28  and  O5_29 
REMARK    9  A    between atoms: C21_28  and  N2_31 
REMARK   10  A    between atoms: N2_31  and  C22_33 
REMARK   11  A    between atoms: C22_33  and  C23_34 
REMARK   12  A    between atoms: C23_34  and  C24_35 
REMARK   13  A    between atoms: C24_35  and  C25_36 
ROOT
HETATM    1  C3  UNL     1      -8.753  15.456  23.098  1.00  0.00    -0.027 C 
HETATM    2  C4  UNL     1      -8.297  15.083  21.699  1.00  0.00     0.019 C 
HETATM    3  C5  UNL     1      -8.481  16.906  23.312  1.00  0.00     0.014 C 
HETATM    4  C6  UNL     1      -8.772  17.330  24.735  1.00  0.00     0.012 C 
HETATM    5  C7  UNL     1      -7.902  16.505  25.668  1.00  0.00    -0.026 C 
HETATM    6  C12 UNL     1      -8.461  15.086  25.484  1.00  0.00    -0.004 C 
HETATM    7  C13 UNL     1      -7.978  14.144  26.571  1.00  0.00     0.006 C 
HETATM    8  C14 UNL     1      -8.343  14.642  27.954  1.00  0.00     0.006 C 
HETATM    9  C15 UNL     1      -9.075  15.916  27.837  1.00  0.00     0.003 C 
HETATM   10  C16 UNL     1      -8.089  16.835  27.089  1.00  0.00    -0.000 C 
HETATM   11  C17 UNL     1      -8.549  18.158  27.521  1.00  0.00     0.007 C 
HETATM   12  C18 UNL     1      -8.506  17.891  29.056  1.00  0.00     0.014 C 
HETATM   13  C19 UNL     1      -9.429  16.691  29.063  1.00  0.00     0.004 C 
HETATM   14  C20 UNL     1     -10.799  17.299  28.774  1.00  0.00     0.020 C 
HETATM   15  C28 UNL     1      -8.164  14.534  24.129  1.00  0.00     0.018 C 
ENDROOT
BRANCH  13  16
HETATM   16  C21 UNL     1      -9.486  15.956  30.328  1.00  0.00     0.222 C 
BRANCH  16  17
HETATM   17  O5  UNL     1      -8.349  16.243  31.160  1.00  0.00    -0.376 OA
ATOM     18  H5  UNL     1      -8.606  16.672  31.967  1.00  0.00     0.212 HD
ENDBRANCH  16  17
BRANCH  16  19
HETATM   19  N2  UNL     1     -10.573  16.233  31.151  1.00  0.00    -0.396 N 
ATOM     20  H2  UNL     1     -10.926  17.186  31.062  1.00  0.00     0.155 HD
BRANCH  19  21
HETATM   21  C22 UNL     1     -11.254  15.476  32.050  1.00  0.00     0.116 C 
BRANCH  21  22
HETATM   22  C23 UNL     1     -11.546  14.055  31.489  1.00  0.00     0.020 C 
BRANCH  22  23
HETATM   23  C24 UNL     1     -12.672  14.149  30.488  1.00  0.00     0.005 C 
BRANCH  23  24
HETATM   24  C25 UNL     1     -12.260  13.644  29.134  1.00  0.00    -0.023 C 
HETATM   25  C26 UNL     1     -12.841  14.587  28.069  1.00  0.00     0.009 C 
HETATM   26  C27 UNL     1     -12.847  12.281  28.836  1.00  0.00     0.009 C 
ENDBRANCH  23  24
ENDBRANCH  22  23
ENDBRANCH  21  22
ENDBRANCH  19  21
ENDBRANCH  16  19
ENDBRANCH  13  16
BRANCH   5  27
HETATM   27  C8  UNL     1      -6.480  16.454  25.244  1.00  0.00     0.090 C 
BRANCH  27  28
HETATM   28  C9  UNL     1      -5.457  16.943  26.177  1.00  0.00     0.150 C 
HETATM   29  O1  UNL     1      -4.846  16.237  26.929  1.00  0.00    -0.296 OA
BRANCH  28  30
HETATM   30  C10 UNL     1      -5.103  18.404  26.248  1.00  0.00     0.160 C 
HETATM   31  C11 UNL     1      -4.957  18.782  27.709  1.00  0.00     0.041 C 
BRANCH  30  32
HETATM   32  N1  UNL     1      -6.033  19.235  25.575  1.00  0.00    -0.289 N 
ATOM     33  H1  UNL     1      -6.957  19.443  25.953  1.00  0.00     0.175 HD
BRANCH  32  34
HETATM   34  S1  UNL     1      -5.487  19.868  24.069  1.00  0.00     0.205 S 
HETATM   35  O2  UNL     1      -6.112  19.149  22.902  1.00  0.00    -0.578 OA
HETATM   36  O3  UNL     1      -4.004  19.611  23.983  1.00  0.00    -0.578 OA
HETATM   37  O4  UNL     1      -5.721  21.524  23.962  1.00  0.00    -0.578 OA
ENDBRANCH  32  34
ENDBRANCH  30  32
ENDBRANCH  28  30
ENDBRANCH  27  28
ENDBRANCH   5  27
BRANCH   1  38
HETATM   38  C2  UNL     1     -10.241  15.264  23.096  1.00  0.00    -0.028 C 
HETATM   39  C1  UNL     1     -10.969  15.904  22.192  1.00  0.00     0.007 C 
ENDBRANCH   1  38
TORSDOF 13
ENDMDL
MODEL 4
REMARK VINA RESULT: -7.198577649      1.116      2.242
REMARK  13 active torsions:
REMARK  status: ('A' for Active; 'I' for Inactive)
REMARK    1  A    between atoms: C2_2  and  C3_3 
REMARK    2  A    between atoms: C7_7  and  C8_8 
REMARK    3  A    between atoms: C8_8  and  C9_9 
REMARK    4  A    between atoms: C9_9  and  C10_11 
REMARK    5  A    between atoms: C10_11  and  N1_13 
REMARK    6  A    between atoms: N1_13  and  S1_15 
REMARK    7  A    between atoms: C19_26  and  C21_28 
REMARK    8  A    between atoms: C21_28  and  O5_29 
REMARK    9  A    between atoms: C21_28  and  N2_31 
REMARK   10  A    between atoms: N2_31  and  C22_33 
REMARK   11  A    between atoms: C22_33  and  C23_34 
REMARK   12  A    between atoms: C23_34  and  C24_35 
REMARK   13  A    between atoms: C24_35  and  C25_36 
ROOT
HETATM    1  C3  UNL     1      -8.430  15.715  22.913  1.00  0.00    -0.027 C 
HETATM    2  C4  UNL     1      -7.992  15.367  21.502  1.00  0.00     0.019 C 
HETATM    3  C5  UNL     1      -7.962  17.095  23.226  1.00  0.00     0.014 C 
HETATM    4  C6  UNL     1      -8.231  17.468  24.668  1.00  0.00     0.012 C 
HETATM    5  C7  UNL     1      -7.513  16.471  25.562  1.00  0.00    -0.026 C 
HETATM    6  C12 UNL     1      -8.261  15.161  25.275  1.00  0.00    -0.004 C 
HETATM    7  C13 UNL     1      -7.948  14.095  26.309  1.00  0.00     0.006 C 
HETATM    8  C14 UNL     1      -8.278  14.555  27.714  1.00  0.00     0.006 C 
HETATM    9  C15 UNL     1      -8.818  15.924  27.665  1.00  0.00     0.003 C 
HETATM   10  C16 UNL     1      -7.692  16.737  26.997  1.00  0.00    -0.000 C 
HETATM   11  C17 UNL     1      -7.973  18.083  27.505  1.00  0.00     0.007 C 
HETATM   12  C18 UNL     1      -8.011  17.720  29.021  1.00  0.00     0.014 C 
HETATM   13  C19 UNL     1      -9.095  16.666  28.932  1.00  0.00     0.004 C 
HETATM   14  C20 UNL     1     -10.356  17.479  28.656  1.00  0.00     0.020 C 
HETATM   15  C28 UNL     1      -8.007  14.656  23.894  1.00  0.00     0.018 C 
ENDROOT
BRANCH  13  16
HETATM   16  C21 UNL     1      -9.291  15.870  30.145  1.00  0.00     0.222 C 
BRANCH  16  17
HETATM   17  O5  UNL     1      -8.523  16.384  31.246  1.00  0.00    -0.376 OA
ATOM     18  H5  UNL     1      -8.052  17.173  31.006  1.00  0.00     0.212 HD
ENDBRANCH  16  17
BRANCH  16  19
HETATM   19  N2  UNL     1     -10.588  15.821  30.644  1.00  0.00    -0.396 N 
ATOM     20  H2  UNL     1     -11.114  16.686  30.514  1.00  0.00     0.155 HD
BRANCH  19  21
HETATM   21  C22 UNL     1     -11.288  14.841  31.272  1.00  0.00     0.116 C 
BRANCH  21  22
HETATM   22  C23 UNL     1     -11.492  15.166  32.779  1.00  0.00     0.020 C 
BRANCH  22  23
HETATM   23  C24 UNL     1     -10.416  14.470  33.577  1.00  0.00     0.005 C 
BRANCH  23  24
HETATM   24  C25 UNL     1     -10.108  15.198  34.855  1.00  0.00    -0.023 C 
HETATM   25  C26 UNL     1     -11.338  15.109  35.770  1.00  0.00     0.009 C 
HETATM   26  C27 UNL     1      -9.877  16.676  34.622  1.00  0.00     0.009 C 
ENDBRANCH  23  24
ENDBRANCH  22  23
ENDBRANCH  21  22
ENDBRANCH  19  21
ENDBRANCH  16  19
ENDBRANCH  13  16
BRANCH   5  27
HETATM   27  C8  UNL     1      -6.101  16.244  25.163  1.00  0.00     0.090 C 
BRANCH  27  28
HETATM   28  C9  UNL     1      -5.088  17.210  25.606  1.00  0.00     0.150 C 
HETATM   29  O1  UNL     1      -4.681  17.284  26.731  1.00  0.00    -0.296 OA
BRANCH  28  30
HETATM   30  C10 UNL     1      -4.481  18.198  24.646  1.00  0.00     0.160 C 
HETATM   31  C11 UNL     1      -5.319  19.460  24.676  1.00  0.00     0.041 C 
BRANCH  30  32
HETATM   32  N1  UNL     1      -4.343  17.683  23.331  1.00  0.00    -0.289 N 
ATOM     33  H1  UNL     1      -5.145  17.460  22.743  1.00  0.00     0.175 HD
BRANCH  32  34
HETATM   34  S1  UNL     1      -2.719  17.461  22.803  1.00  0.00     0.205 S 
HETATM   35  O2  UNL     1      -1.960  16.529  23.710  1.00  0.00    -0.578 OA
HETATM   36  O3  UNL     1      -2.030  18.799  22.893  1.00  0.00    -0.578 OA
HETATM   37  O4  UNL     1      -2.642  16.957  21.207  1.00  0.00    -0.578 OA
ENDBRANCH  32  34
ENDBRANCH  30  32
ENDBRANCH  28  30
ENDBRANCH  27  28
ENDBRANCH   5  27
BRANCH   1  38
HETATM   38  C2  UNL     1      -9.930  15.738  22.870  1.00  0.00    -0.028 C 
HETATM   39  C1  UNL     1     -10.533  16.189  21.780  1.00  0.00     0.007 C 
ENDBRANCH   1  38
TORSDOF 13
ENDMDL
MODEL 5
REMARK VINA RESULT: -7.145861892      0.706      1.162
REMARK  13 active torsions:
REMARK  status: ('A' for Active; 'I' for Inactive)
REMARK    1  A    between atoms: C2_2  and  C3_3 
REMARK    2  A    between atoms: C7_7  and  C8_8 
REMARK    3  A    between atoms: C8_8  and  C9_9 
REMARK    4  A    between atoms: C9_9  and  C10_11 
REMARK    5  A    between atoms: C10_11  and  N1_13 
REMARK    6  A    between atoms: N1_13  and  S1_15 
REMARK    7  A    between atoms: C19_26  and  C21_28 
REMARK    8  A    between atoms: C21_28  and  O5_29 
REMARK    9  A    between atoms: C21_28  and  N2_31 
REMARK   10  A    between atoms: N2_31  and  C22_33 
REMARK   11  A    between atoms: C22_33  and  C23_34 
REMARK   12  A    between atoms: C23_34  and  C24_35 
REMARK   13  A    between atoms: C24_35  and  C25_36 
ROOT
HETATM    1  C3  UNL     1      -8.446  15.615  22.890  1.00  0.00    -0.027 C 
HETATM    2  C4  UNL     1      -7.997  15.254  21.485  1.00  0.00     0.019 C 
HETATM    3  C5  UNL     1      -7.993  17.005  23.186  1.00  0.00     0.014 C 
HETATM    4  C6  UNL     1      -8.272  17.394  24.622  1.00  0.00     0.012 C 
HETATM    5  C7  UNL     1      -7.549  16.416  25.533  1.00  0.00    -0.026 C 
HETATM    6  C12 UNL     1      -8.281  15.094  25.259  1.00  0.00    -0.004 C 
HETATM    7  C13 UNL     1      -7.962  14.045  26.308  1.00  0.00     0.006 C 
HETATM    8  C14 UNL     1      -8.303  14.519  27.705  1.00  0.00     0.006 C 
HETATM    9  C15 UNL     1      -8.858  15.882  27.637  1.00  0.00     0.003 C 
HETATM   10  C16 UNL     1      -7.737  16.698  26.963  1.00  0.00    -0.000 C 
HETATM   11  C17 UNL     1      -8.034  18.048  27.452  1.00  0.00     0.007 C 
HETATM   12  C18 UNL     1      -8.075  17.704  28.972  1.00  0.00     0.014 C 
HETATM   13  C19 UNL     1      -9.147  16.637  28.892  1.00  0.00     0.004 C 
HETATM   14  C20 UNL     1     -10.416  17.434  28.601  1.00  0.00     0.020 C 
HETATM   15  C28 UNL     1      -8.016  14.574  23.886  1.00  0.00     0.018 C 
ENDROOT
BRANCH  13  16
HETATM   16  C21 UNL     1      -9.341  15.855  30.115  1.00  0.00     0.222 C 
BRANCH  16  17
HETATM   17  O5  UNL     1      -8.878  16.564  31.276  1.00  0.00    -0.376 OA
ATOM     18  H5  UNL     1      -8.726  15.977  32.007  1.00  0.00     0.212 HD
ENDBRANCH  16  17
BRANCH  16  19
HETATM   19  N2  UNL     1     -10.655  15.527  30.432  1.00  0.00    -0.396 N 
ATOM     20  H2  UNL     1     -11.210  16.317  30.760  1.00  0.00     0.155 HD
BRANCH  19  21
HETATM   21  C22 UNL     1     -11.339  14.354  30.389  1.00  0.00     0.116 C 
BRANCH  21  22
HETATM   22  C23 UNL     1     -11.885  14.069  28.961  1.00  0.00     0.020 C 
BRANCH  22  23
HETATM   23  C24 UNL     1     -12.648  12.767  28.982  1.00  0.00     0.005 C 
BRANCH  23  24
HETATM   24  C25 UNL     1     -13.258  12.499  30.328  1.00  0.00    -0.023 C 
HETATM   25  C26 UNL     1     -13.451  10.982  30.478  1.00  0.00     0.009 C 
HETATM   26  C27 UNL     1     -14.642  13.101  30.452  1.00  0.00     0.009 C 
ENDBRANCH  23  24
ENDBRANCH  22  23
ENDBRANCH  21  22
ENDBRANCH  19  21
ENDBRANCH  16  19
ENDBRANCH  13  16
BRANCH   5  27
HETATM   27  C8  UNL     1      -6.133  16.198  25.142  1.00  0.00     0.090 C 
BRANCH  27  28
HETATM   28  C9  UNL     1      -5.123  17.150  25.624  1.00  0.00     0.150 C 
HETATM   29  O1  UNL     1      -4.736  17.198  26.758  1.00  0.00    -0.296 OA
BRANCH  28  30
HETATM   30  C10 UNL     1      -4.495  18.155  24.696  1.00  0.00     0.160 C 
HETATM   31  C11 UNL     1      -5.314  19.429  24.757  1.00  0.00     0.041 C 
BRANCH  30  32
HETATM   32  N1  UNL     1      -4.356  17.676  23.369  1.00  0.00    -0.289 N 
ATOM     33  H1  UNL     1      -5.158  17.480  22.770  1.00  0.00     0.175 HD
BRANCH  32  34
HETATM   34  S1  UNL     1      -2.732  17.447  22.843  1.00  0.00     0.205 S 
HETATM   35  O2  UNL     1      -1.972  16.530  23.764  1.00  0.00    -0.578 OA
HETATM   36  O3  UNL     1      -2.043  18.787  22.912  1.00  0.00    -0.578 OA
HETATM   37  O4  UNL     1      -2.655  16.918  21.255  1.00  0.00    -0.578 OA
ENDBRANCH  32  34
ENDBRANCH  30  32
ENDBRANCH  28  30
ENDBRANCH  27  28
ENDBRANCH   5  27
BRANCH   1  38
HETATM   38  C2  UNL     1      -9.945  15.622  22.840  1.00  0.00    -0.028 C 
HETATM   39  C1  UNL     1     -10.551  16.243  21.838  1.00  0.00     0.007 C 
ENDBRANCH   1  38
TORSDOF 13
ENDMDL
