MODEL 1
REMARK VINA RESULT: -8.566813654      0.000      0.000
REMARK  14 active torsions:
REMARK  status: ('A' for Active; 'I' for Inactive)
REMARK    1  A    between atoms: C2_2  and  C3_3 
REMARK    2  A    between atoms: C2_2  and  C11_16 
REMARK    3  A    between atoms: C3_3  and  C4_4 
REMARK    4  A    between atoms: C4_4  and  C5_5 
REMARK    5  A    between atoms: C5_5  and  C6_6 
REMARK    6  A    between atoms: C6_6  and  C7_7 
REMARK    7  A    between atoms: C7_7  and  C8_8 
REMARK       I    between atoms: C8_8  and  N1_10 
REMARK    8  A    between atoms: N1_10  and  C9_12 
REMARK    9  A    between atoms: C9_12  and  C10_13 
REMARK   10  A    between atoms: C11_16  and  C12_17 
REMARK   11  A    between atoms: C12_17  and  C13_18 
REMARK   12  A    between atoms: C13_18  and  C15_20 
REMARK   13  A    between atoms: C21_26  and  O4_27 
REMARK   14  A    between atoms: C26_33  and  O5_34 
ROOT
HETATM    1  C15 UNL     1      -9.495  16.240  26.064  1.00  0.00    -0.002 C 
HETATM    2  C16 UNL     1      -9.832  17.742  26.285  1.00  0.00     0.006 C 
HETATM    3  C17 UNL     1     -10.166  17.887  27.750  1.00  0.00     0.006 C 
HETATM    4  C18 UNL     1     -10.336  16.463  28.152  1.00  0.00    -0.002 C 
HETATM    5  C19 UNL     1     -10.615  16.202  29.560  1.00  0.00    -0.003 C 
HETATM    6  C20 UNL     1      -9.796  16.904  30.575  1.00  0.00     0.038 C 
HETATM    7  C21 UNL     1      -9.334  16.062  31.728  1.00  0.00     0.127 C 
HETATM    8  C22 UNL     1     -10.444  15.161  32.180  1.00  0.00    -0.012 C 
HETATM    9  C23 UNL     1      -9.928  14.277  33.323  1.00  0.00     0.018 C 
HETATM   10  C24 UNL     1     -11.591  15.964  32.745  1.00  0.00     0.014 C 
HETATM   11  C25 UNL     1     -12.772  15.081  32.524  1.00  0.00     0.033 C 
HETATM   12  C26 UNL     1     -12.456  14.144  31.396  1.00  0.00     0.123 C 
HETATM   13  C27 UNL     1     -10.974  14.267  31.119  1.00  0.00     0.029 C 
HETATM   14  C28 UNL     1     -10.715  14.701  29.719  1.00  0.00    -0.003 C 
HETATM   15  C29 UNL     1      -9.560  13.969  29.135  1.00  0.00     0.006 C 
HETATM   16  C30 UNL     1      -9.167  14.355  27.745  1.00  0.00     0.010 C 
HETATM   17  C31 UNL     1      -9.170  15.803  27.481  1.00  0.00    -0.036 C 
HETATM   18  C32 UNL     1      -7.830  16.353  27.882  1.00  0.00     0.016 C 
ENDROOT
BRANCH   1  19
HETATM   19  C13 UNL     1      -8.346  16.280  25.100  1.00  0.00    -0.014 C 
HETATM   20  C14 UNL     1      -7.661  15.003  24.810  1.00  0.00     0.010 C 
BRANCH  19  21
HETATM   21  C12 UNL     1      -8.870  16.908  23.834  1.00  0.00     0.005 C 
BRANCH  21  22
HETATM   22  C11 UNL     1      -9.761  16.140  22.964  1.00  0.00     0.004 C 
BRANCH  22  23
HETATM   23  C2  UNL     1      -9.565  16.021  21.514  1.00  0.00    -0.019 C 
HETATM   24  C1  UNL     1      -8.431  14.963  21.329  1.00  0.00     0.010 C 
BRANCH  23  25
HETATM   25  C3  UNL     1      -8.908  17.286  20.912  1.00  0.00     0.004 C 
BRANCH  25  26
HETATM   26  C4  UNL     1      -7.638  16.862  20.226  1.00  0.00     0.000 C 
BRANCH  26  27
HETATM   27  C5  UNL     1      -6.670  18.026  20.247  1.00  0.00     0.000 C 
BRANCH  27  28
HETATM   28  C6  UNL     1      -6.505  18.610  21.614  1.00  0.00     0.009 C 
BRANCH  28  29
HETATM   29  C7  UNL     1      -5.316  18.088  22.367  1.00  0.00     0.103 C 
BRANCH  29  30
HETATM   30  C8  UNL     1      -5.310  18.732  23.718  1.00  0.00     0.217 C 
HETATM   31  O1  UNL     1      -5.448  19.988  23.844  1.00  0.00    -0.274 OA
HETATM   32  N1  UNL     1      -5.149  17.949  24.885  1.00  0.00    -0.351 N 
ATOM     33  H1  UNL     1      -5.036  16.942  24.771  1.00  0.00     0.163 HD
BRANCH  32  34
HETATM   34  C9  UNL     1      -5.134  18.480  26.226  1.00  0.00     0.235 C 
BRANCH  34  35
HETATM   35  C10 UNL     1      -4.219  17.694  27.078  1.00  0.00     0.191 C 
HETATM   36  O2  UNL     1      -3.536  18.147  28.025  1.00  0.00    -0.647 OA
HETATM   37  O3  UNL     1      -4.094  16.315  26.816  1.00  0.00    -0.647 OA
ENDBRANCH  34  35
ENDBRANCH  32  34
ENDBRANCH  29  30
ENDBRANCH  28  29
ENDBRANCH  27  28
ENDBRANCH  26  27
ENDBRANCH  25  26
ENDBRANCH  23  25
ENDBRANCH  22  23
ENDBRANCH  21  22
ENDBRANCH  19  21
ENDBRANCH   1  19
BRANCH   7  38
HETATM   38  O4  UNL     1      -9.053  16.919  32.820  1.00  0.00    -0.395 OA
ATOM     39  H4  UNL     1      -8.264  17.409  32.620  1.00  0.00     0.210 HD
ENDBRANCH   7  38
BRANCH  12  40
HETATM   40  O5  UNL     1     -12.817  12.859  31.801  1.00  0.00    -0.395 OA
ATOM     41  H5  UNL     1     -12.168  12.256  31.458  1.00  0.00     0.210 HD
ENDBRANCH  12  40
TORSDOF 14
ENDMDL
MODEL 2
REMARK VINA RESULT: -8.467340258      0.958      1.103
REMARK  14 active torsions:
REMARK  status: ('A' for Active; 'I' for Inactive)
REMARK    1  A    between atoms: C2_2  and  C3_3 
REMARK    2  A    between atoms: C2_2  and  C11_16 
REMARK    3  A    between atoms: C3_3  and  C4_4 
REMARK    4  A    between atoms: C4_4  and  C5_5 
REMARK    5  A    between atoms: C5_5  and  C6_6 
REMARK    6  A    between atoms: C6_6  and  C7_7 
REMARK    7  A    between atoms: C7_7  and  C8_8 
REMARK       I    between atoms: C8_8  and  N1_10 
REMARK    8  A    between atoms: N1_10  and  C9_12 
REMARK    9  A    between atoms: C9_12  and  C10_13 
REMARK   10  A    between atoms: C11_16  and  C12_17 
REMARK   11  A    between atoms: C12_17  and  C13_18 
REMARK   12  A    between atoms: C13_18  and  C15_20 
REMARK   13  A    between atoms: C21_26  and  O4_27 
REMARK   14  A    between atoms: C26_33  and  O5_34 
ROOT
HETATM    1  C15 UNL     1      -9.486  16.267  26.069  1.00  0.00    -0.002 C 
HETATM    2  C16 UNL     1      -9.826  17.767  26.300  1.00  0.00     0.006 C 
HETATM    3  C17 UNL     1     -10.165  17.903  27.764  1.00  0.00     0.006 C 
HETATM    4  C18 UNL     1     -10.335  16.475  28.156  1.00  0.00    -0.002 C 
HETATM    5  C19 UNL     1     -10.617  16.204  29.561  1.00  0.00    -0.003 C 
HETATM    6  C20 UNL     1      -9.803  16.901  30.584  1.00  0.00     0.038 C 
HETATM    7  C21 UNL     1      -9.343  16.052  31.733  1.00  0.00     0.127 C 
HETATM    8  C22 UNL     1     -10.454  15.147  32.175  1.00  0.00    -0.012 C 
HETATM    9  C23 UNL     1      -9.940  14.256  33.314  1.00  0.00     0.018 C 
HETATM   10  C24 UNL     1     -11.604  15.944  32.742  1.00  0.00     0.014 C 
HETATM   11  C25 UNL     1     -12.783  15.061  32.511  1.00  0.00     0.033 C 
HETATM   12  C26 UNL     1     -12.462  14.132  31.378  1.00  0.00     0.123 C 
HETATM   13  C27 UNL     1     -10.979  14.259  31.107  1.00  0.00     0.029 C 
HETATM   14  C28 UNL     1     -10.716  14.703  29.710  1.00  0.00    -0.003 C 
HETATM   15  C29 UNL     1      -9.558  13.976  29.126  1.00  0.00     0.006 C 
HETATM   16  C30 UNL     1      -9.161  14.372  27.739  1.00  0.00     0.010 C 
HETATM   17  C31 UNL     1      -9.165  15.821  27.484  1.00  0.00    -0.036 C 
HETATM   18  C32 UNL     1      -7.827  16.371  27.894  1.00  0.00     0.016 C 
ENDROOT
BRANCH   1  19
HETATM   19  C13 UNL     1      -8.334  16.316  25.109  1.00  0.00    -0.014 C 
HETATM   20  C14 UNL     1      -7.611  15.051  24.856  1.00  0.00     0.010 C 
BRANCH  19  21
HETATM   21  C12 UNL     1      -8.870  16.894  23.825  1.00  0.00     0.005 C 
BRANCH  21  22
HETATM   22  C11 UNL     1      -9.846  16.135  23.045  1.00  0.00     0.004 C 
BRANCH  22  23
HETATM   23  C2  UNL     1      -9.697  15.868  21.608  1.00  0.00    -0.019 C 
HETATM   24  C1  UNL     1      -8.498  14.874  21.489  1.00  0.00     0.010 C 
BRANCH  23  25
HETATM   25  C3  UNL     1      -9.154  17.099  20.844  1.00  0.00     0.004 C 
BRANCH  25  26
HETATM   26  C4  UNL     1      -7.877  16.689  20.162  1.00  0.00     0.000 C 
BRANCH  26  27
HETATM   27  C5  UNL     1      -6.961  17.894  20.096  1.00  0.00     0.000 C 
BRANCH  27  28
HETATM   28  C6  UNL     1      -6.018  17.961  21.256  1.00  0.00     0.009 C 
BRANCH  28  29
HETATM   29  C7  UNL     1      -6.283  19.098  22.199  1.00  0.00     0.103 C 
BRANCH  29  30
HETATM   30  C8  UNL     1      -5.511  18.841  23.455  1.00  0.00     0.217 C 
HETATM   31  O1  UNL     1      -5.129  19.800  24.194  1.00  0.00    -0.274 OA
HETATM   32  N1  UNL     1      -5.191  17.520  23.843  1.00  0.00    -0.351 N 
ATOM     33  H1  UNL     1      -5.501  16.758  23.240  1.00  0.00     0.163 HD
BRANCH  32  34
HETATM   34  C9  UNL     1      -4.455  17.176  25.035  1.00  0.00     0.235 C 
BRANCH  34  35
HETATM   35  C10 UNL     1      -3.039  16.913  24.706  1.00  0.00     0.191 C 
HETATM   36  O2  UNL     1      -2.498  15.784  24.671  1.00  0.00    -0.647 OA
HETATM   37  O3  UNL     1      -2.216  18.016  24.403  1.00  0.00    -0.647 OA
ENDBRANCH  34  35
ENDBRANCH  32  34
ENDBRANCH  29  30
ENDBRANCH  28  29
ENDBRANCH  27  28
ENDBRANCH  26  27
ENDBRANCH  25  26
ENDBRANCH  23  25
ENDBRANCH  22  23
ENDBRANCH  21  22
ENDBRANCH  19  21
ENDBRANCH   1  19
BRANCH   7  38
HETATM   38  O4  UNL     1      -9.067  16.902  32.832  1.00  0.00    -0.395 OA
ATOM     39  H4  UNL     1      -9.552  16.584  33.584  1.00  0.00     0.210 HD
ENDBRANCH   7  38
BRANCH  12  40
HETATM   40  O5  UNL     1     -12.822  12.843  31.773  1.00  0.00    -0.395 OA
ATOM     41  H5  UNL     1     -12.167  12.245  31.435  1.00  0.00     0.210 HD
ENDBRANCH  12  40
TORSDOF 14
ENDMDL
MODEL 3
REMARK VINA RESULT: -8.197807875      2.071      3.739
REMARK  14 active torsions:
REMARK  status: ('A' for Active; 'I' for Inactive)
REMARK    1  A    between atoms: C2_2  and  C3_3 
REMARK    2  A    between atoms: C2_2  and  C11_16 
REMARK    3  A    between atoms: C3_3  and  C4_4 
REMARK    4  A    between atoms: C4_4  and  C5_5 
REMARK    5  A    between atoms: C5_5  and  C6_6 
REMARK    6  A    between atoms: C6_6  and  C7_7 
REMARK    7  A    between atoms: C7_7  and  C8_8 
REMARK       I    between atoms: C8_8  and  N1_10 
REMARK    8  A    between atoms: N1_10  and  C9_12 
REMARK    9  A    between atoms: C9_12  and  C10_13 
REMARK   10  A    between atoms: C11_16  and  C12_17 
REMARK   11  A    between atoms: C12_17  and  C13_18 
REMARK   12  A    between atoms: C13_18  and  C15_20 
REMARK   13  A    between atoms: C21_26  and  O4_27 
REMARK   14  A    between atoms: C26_33  and  O5_34 
ROOT
HETATM    1  C15 UNL     1      -9.200  16.014  26.173  1.00  0.00    -0.002 C 
HETATM    2  C16 UNL     1      -9.510  17.530  26.335  1.00  0.00     0.006 C 
HETATM    3  C17 UNL     1      -9.923  17.724  27.774  1.00  0.00     0.006 C 
HETATM    4  C18 UNL     1     -10.152  16.316  28.202  1.00  0.00    -0.002 C 
HETATM    5  C19 UNL     1     -10.517  16.101  29.598  1.00  0.00    -0.003 C 
HETATM    6  C20 UNL     1      -9.739  16.811  30.641  1.00  0.00     0.038 C 
HETATM    7  C21 UNL     1      -9.366  15.991  31.840  1.00  0.00     0.127 C 
HETATM    8  C22 UNL     1     -10.522  15.131  32.251  1.00  0.00    -0.012 C 
HETATM    9  C23 UNL     1     -10.096  14.267  33.445  1.00  0.00     0.018 C 
HETATM   10  C24 UNL     1     -11.679  15.977  32.728  1.00  0.00     0.014 C 
HETATM   11  C25 UNL     1     -12.868  15.117  32.462  1.00  0.00     0.033 C 
HETATM   12  C26 UNL     1     -12.513  14.142  31.380  1.00  0.00     0.123 C 
HETATM   13  C27 UNL     1     -11.015  14.221  31.186  1.00  0.00     0.029 C 
HETATM   14  C28 UNL     1     -10.666  14.609  29.792  1.00  0.00    -0.003 C 
HETATM   15  C29 UNL     1      -9.498  13.833  29.295  1.00  0.00     0.006 C 
HETATM   16  C30 UNL     1      -9.017  14.170  27.919  1.00  0.00     0.010 C 
HETATM   17  C31 UNL     1      -8.967  15.609  27.617  1.00  0.00    -0.036 C 
HETATM   18  C32 UNL     1      -7.639  16.138  28.080  1.00  0.00     0.016 C 
ENDROOT
BRANCH   1  19
HETATM   19  C13 UNL     1      -7.997  16.000  25.276  1.00  0.00    -0.014 C 
HETATM   20  C14 UNL     1      -8.053  15.126  24.085  1.00  0.00     0.010 C 
BRANCH  19  21
HETATM   21  C12 UNL     1      -7.740  17.431  24.881  1.00  0.00     0.005 C 
BRANCH  21  22
HETATM   22  C11 UNL     1      -6.390  17.980  25.000  1.00  0.00     0.004 C 
BRANCH  22  23
HETATM   23  C2  UNL     1      -5.652  18.035  26.268  1.00  0.00    -0.019 C 
HETATM   24  C1  UNL     1      -5.815  19.499  26.786  1.00  0.00     0.010 C 
BRANCH  23  25
HETATM   25  C3  UNL     1      -4.122  17.953  26.053  1.00  0.00     0.004 C 
BRANCH  25  26
HETATM   26  C4  UNL     1      -3.816  16.614  25.440  1.00  0.00     0.000 C 
BRANCH  26  27
HETATM   27  C5  UNL     1      -2.709  16.794  24.421  1.00  0.00     0.000 C 
BRANCH  27  28
HETATM   28  C6  UNL     1      -2.994  17.902  23.457  1.00  0.00     0.009 C 
BRANCH  28  29
HETATM   29  C7  UNL     1      -2.365  17.719  22.106  1.00  0.00     0.103 C 
BRANCH  29  30
HETATM   30  C8  UNL     1      -3.433  17.269  21.159  1.00  0.00     0.217 C 
HETATM   31  O1  UNL     1      -3.165  16.487  20.196  1.00  0.00    -0.274 OA
HETATM   32  N1  UNL     1      -4.767  17.711  21.320  1.00  0.00    -0.351 N 
ATOM     33  H1  UNL     1      -4.969  18.341  22.096  1.00  0.00     0.163 HD
BRANCH  32  34
HETATM   34  C9  UNL     1      -5.861  17.329  20.461  1.00  0.00     0.235 C 
BRANCH  34  35
HETATM   35  C10 UNL     1      -7.077  18.091  20.810  1.00  0.00     0.191 C 
HETATM   36  O2  UNL     1      -7.148  18.990  21.679  1.00  0.00    -0.647 OA
HETATM   37  O3  UNL     1      -8.266  17.792  20.115  1.00  0.00    -0.647 OA
ENDBRANCH  34  35
ENDBRANCH  32  34
ENDBRANCH  29  30
ENDBRANCH  28  29
ENDBRANCH  27  28
ENDBRANCH  26  27
ENDBRANCH  25  26
ENDBRANCH  23  25
ENDBRANCH  22  23
ENDBRANCH  21  22
ENDBRANCH  19  21
ENDBRANCH   1  19
BRANCH   7  38
HETATM   38  O4  UNL     1      -9.125  16.872  32.923  1.00  0.00    -0.395 OA
ATOM     39  H4  UNL     1      -8.347  17.381  32.727  1.00  0.00     0.210 HD
ENDBRANCH   7  38
BRANCH  12  40
HETATM   40  O5  UNL     1     -12.929  12.877  31.797  1.00  0.00    -0.395 OA
ATOM     41  H5  UNL     1     -12.369  12.236  31.376  1.00  0.00     0.210 HD
ENDBRANCH  12  40
TORSDOF 14
ENDMDL
MODEL 4
REMARK VINA RESULT: -8.071156553      3.437      9.650
REMARK  14 active torsions:
REMARK  status: ('A' for Active; 'I' for Inactive)
REMARK    1  A    between atoms: C2_2  and  C3_3 
REMARK    2  A    between atoms: C2_2  and  C11_16 
REMARK    3  A    between atoms: C3_3  and  C4_4 
REMARK    4  A    between atoms: C4_4  and  C5_5 
REMARK    5  A    between atoms: C5_5  and  C6_6 
REMARK    6  A    between atoms: C6_6  and  C7_7 
REMARK    7  A    between atoms: C7_7  and  C8_8 
REMARK       I    between atoms: C8_8  and  N1_10 
REMARK    8  A    between atoms: N1_10  and  C9_12 
REMARK    9  A    between atoms: C9_12  and  C10_13 
REMARK   10  A    between atoms: C11_16  and  C12_17 
REMARK   11  A    between atoms: C12_17  and  C13_18 
REMARK   12  A    between atoms: C13_18  and  C15_20 
REMARK   13  A    between atoms: C21_26  and  O4_27 
REMARK   14  A    between atoms: C26_33  and  O5_34 
ROOT
HETATM    1  C15 UNL     1     -10.402  14.821  28.408  1.00  0.00    -0.002 C 
HETATM    2  C16 UNL     1      -9.896  14.938  29.874  1.00  0.00     0.006 C 
HETATM    3  C17 UNL     1      -8.693  15.849  29.834  1.00  0.00     0.006 C 
HETATM    4  C18 UNL     1      -8.406  15.886  28.372  1.00  0.00    -0.002 C 
HETATM    5  C19 UNL     1      -7.310  16.744  27.935  1.00  0.00    -0.003 C 
HETATM    6  C20 UNL     1      -7.237  18.118  28.484  1.00  0.00     0.038 C 
HETATM    7  C21 UNL     1      -6.912  19.195  27.492  1.00  0.00     0.127 C 
HETATM    8  C22 UNL     1      -5.837  18.723  26.560  1.00  0.00    -0.012 C 
HETATM    9  C23 UNL     1      -5.562  19.822  25.526  1.00  0.00     0.018 C 
HETATM   10  C24 UNL     1      -4.541  18.501  27.302  1.00  0.00     0.014 C 
HETATM   11  C25 UNL     1      -3.841  17.475  26.477  1.00  0.00     0.033 C 
HETATM   12  C26 UNL     1      -4.870  16.721  25.689  1.00  0.00     0.123 C 
HETATM   13  C27 UNL     1      -6.173  17.479  25.821  1.00  0.00     0.029 C 
HETATM   14  C28 UNL     1      -7.236  16.633  26.429  1.00  0.00    -0.003 C 
HETATM   15  C29 UNL     1      -8.546  16.854  25.758  1.00  0.00     0.006 C 
HETATM   16  C30 UNL     1      -9.710  16.097  26.315  1.00  0.00     0.010 C 
HETATM   17  C31 UNL     1      -9.774  16.055  27.784  1.00  0.00    -0.036 C 
HETATM   18  C32 UNL     1     -10.504  17.283  28.254  1.00  0.00     0.016 C 
ENDROOT
BRANCH   1  19
HETATM   19  C13 UNL     1     -11.895  14.836  28.553  1.00  0.00    -0.014 C 
HETATM   20  C14 UNL     1     -12.690  15.104  27.336  1.00  0.00     0.010 C 
BRANCH  19  21
HETATM   21  C12 UNL     1     -12.279  13.513  29.164  1.00  0.00     0.005 C 
BRANCH  21  22
HETATM   22  C11 UNL     1     -13.584  13.367  29.807  1.00  0.00     0.004 C 
BRANCH  22  23
HETATM   23  C2  UNL     1     -13.833  12.449  30.926  1.00  0.00    -0.019 C 
HETATM   24  C1  UNL     1     -15.299  11.947  30.738  1.00  0.00     0.010 C 
BRANCH  23  25
HETATM   25  C3  UNL     1     -13.933  13.196  32.277  1.00  0.00     0.004 C 
BRANCH  25  26
HETATM   26  C4  UNL     1     -14.208  14.645  31.981  1.00  0.00     0.000 C 
BRANCH  26  27
HETATM   27  C5  UNL     1     -13.272  15.492  32.818  1.00  0.00     0.000 C 
BRANCH  27  28
HETATM   28  C6  UNL     1     -11.835  15.125  32.618  1.00  0.00     0.009 C 
BRANCH  28  29
HETATM   29  C7  UNL     1     -10.929  15.554  33.734  1.00  0.00     0.103 C 
BRANCH  29  30
HETATM   30  C8  UNL     1     -11.457  14.967  35.006  1.00  0.00     0.217 C 
HETATM   31  O1  UNL     1     -11.789  15.710  35.980  1.00  0.00    -0.274 OA
HETATM   32  N1  UNL     1     -11.597  13.566  35.145  1.00  0.00    -0.351 N 
ATOM     33  H1  UNL     1     -11.324  12.980  34.356  1.00  0.00     0.163 HD
BRANCH  32  34
HETATM   34  C9  UNL     1     -12.099  12.912  36.328  1.00  0.00     0.235 C 
BRANCH  34  35
HETATM   35  C10 UNL     1     -12.702  11.610  35.977  1.00  0.00     0.191 C 
HETATM   36  O2  UNL     1     -12.173  10.490  36.162  1.00  0.00    -0.647 OA
HETATM   37  O3  UNL     1     -13.980  11.613  35.383  1.00  0.00    -0.647 OA
ENDBRANCH  34  35
ENDBRANCH  32  34
ENDBRANCH  29  30
ENDBRANCH  28  29
ENDBRANCH  27  28
ENDBRANCH  26  27
ENDBRANCH  25  26
ENDBRANCH  23  25
ENDBRANCH  22  23
ENDBRANCH  21  22
ENDBRANCH  19  21
ENDBRANCH   1  19
BRANCH   7  38
HETATM   38  O4  UNL     1      -6.367  20.298  28.195  1.00  0.00    -0.395 OA
ATOM     39  H4  UNL     1      -6.295  21.029  27.592  1.00  0.00     0.210 HD
ENDBRANCH   7  38
BRANCH  12  40
HETATM   40  O5  UNL     1      -4.426  16.653  24.368  1.00  0.00    -0.395 OA
ATOM     41  H5  UNL     1      -5.176  16.796  23.804  1.00  0.00     0.210 HD
ENDBRANCH  12  40
TORSDOF 14
ENDMDL
MODEL 5
REMARK VINA RESULT: -8.066804195      3.356      9.515
REMARK  14 active torsions:
REMARK  status: ('A' for Active; 'I' for Inactive)
REMARK    1  A    between atoms: C2_2  and  C3_3 
REMARK    2  A    between atoms: C2_2  and  C11_16 
REMARK    3  A    between atoms: C3_3  and  C4_4 
REMARK    4  A    between atoms: C4_4  and  C5_5 
REMARK    5  A    between atoms: C5_5  and  C6_6 
REMARK    6  A    between atoms: C6_6  and  C7_7 
REMARK    7  A    between atoms: C7_7  and  C8_8 
REMARK       I    between atoms: C8_8  and  N1_10 
REMARK    8  A    between atoms: N1_10  and  C9_12 
REMARK    9  A    between atoms: C9_12  and  C10_13 
REMARK   10  A    between atoms: C11_16  and  C12_17 
REMARK   11  A    between atoms: C12_17  and  C13_18 
REMARK   12  A    between atoms: C13_18  and  C15_20 
REMARK   13  A    between atoms: C21_26  and  O4_27 
REMARK   14  A    between atoms: C26_33  and  O5_34 
ROOT
HETATM    1  C15 UNL     1     -10.510  15.098  28.457  1.00  0.00    -0.002 C 
HETATM    2  C16 UNL     1      -9.985  15.209  29.918  1.00  0.00     0.006 C 
HETATM    3  C17 UNL     1      -8.736  16.054  29.853  1.00  0.00     0.006 C 
HETATM    4  C18 UNL     1      -8.461  16.054  28.389  1.00  0.00    -0.002 C 
HETATM    5  C19 UNL     1      -7.326  16.847  27.930  1.00  0.00    -0.003 C 
HETATM    6  C20 UNL     1      -7.176  18.223  28.459  1.00  0.00     0.038 C 
HETATM    7  C21 UNL     1      -6.803  19.267  27.447  1.00  0.00     0.127 C 
HETATM    8  C22 UNL     1      -5.763  18.725  26.514  1.00  0.00    -0.012 C 
HETATM    9  C23 UNL     1      -5.441  19.794  25.461  1.00  0.00     0.018 C 
HETATM   10  C24 UNL     1      -4.474  18.447  27.248  1.00  0.00     0.014 C 
HETATM   11  C25 UNL     1      -3.837  17.374  26.432  1.00  0.00     0.033 C 
HETATM   12  C26 UNL     1      -4.912  16.664  25.664  1.00  0.00     0.123 C 
HETATM   13  C27 UNL     1      -6.171  17.491  25.796  1.00  0.00     0.029 C 
HETATM   14  C28 UNL     1      -7.272  16.711  26.425  1.00  0.00    -0.003 C 
HETATM   15  C29 UNL     1      -8.574  16.991  25.762  1.00  0.00     0.006 C 
HETATM   16  C30 UNL     1      -9.771  16.305  26.340  1.00  0.00     0.010 C 
HETATM   17  C31 UNL     1      -9.824  16.287  27.811  1.00  0.00    -0.036 C 
HETATM   18  C32 UNL     1     -10.484  17.558  28.268  1.00  0.00     0.016 C 
ENDROOT
BRANCH   1  19
HETATM   19  C13 UNL     1     -11.999  15.192  28.615  1.00  0.00    -0.014 C 
HETATM   20  C14 UNL     1     -12.829  14.775  27.465  1.00  0.00     0.010 C 
BRANCH  19  21
HETATM   21  C12 UNL     1     -12.351  14.399  29.847  1.00  0.00     0.005 C 
BRANCH  21  22
HETATM   22  C11 UNL     1     -13.558  13.573  29.852  1.00  0.00     0.004 C 
BRANCH  22  23
HETATM   23  C2  UNL     1     -13.542  12.125  30.098  1.00  0.00    -0.019 C 
HETATM   24  C1  UNL     1     -13.135  11.474  28.738  1.00  0.00     0.010 C 
BRANCH  23  25
HETATM   25  C3  UNL     1     -14.966  11.556  30.298  1.00  0.00     0.004 C 
BRANCH  25  26
HETATM   26  C4  UNL     1     -14.830  10.138  30.784  1.00  0.00     0.000 C 
BRANCH  26  27
HETATM   27  C5  UNL     1     -14.241  10.164  32.179  1.00  0.00     0.000 C 
BRANCH  27  28
HETATM   28  C6  UNL     1     -15.090  10.927  33.145  1.00  0.00     0.009 C 
BRANCH  28  29
HETATM   29  C7  UNL     1     -14.317  11.639  34.217  1.00  0.00     0.103 C 
BRANCH  29  30
HETATM   30  C8  UNL     1     -13.961  12.998  33.701  1.00  0.00     0.217 C 
HETATM   31  O1  UNL     1     -14.763  13.645  32.959  1.00  0.00    -0.274 OA
HETATM   32  N1  UNL     1     -12.720  13.589  34.032  1.00  0.00    -0.351 N 
ATOM     33  H1  UNL     1     -12.084  13.058  34.627  1.00  0.00     0.163 HD
BRANCH  32  34
HETATM   34  C9  UNL     1     -12.293  14.892  33.585  1.00  0.00     0.235 C 
BRANCH  34  35
HETATM   35  C10 UNL     1     -11.090  15.320  34.328  1.00  0.00     0.191 C 
HETATM   36  O2  UNL     1     -10.033  14.659  34.444  1.00  0.00    -0.647 OA
HETATM   37  O3  UNL     1     -11.120  16.577  34.966  1.00  0.00    -0.647 OA
ENDBRANCH  34  35
ENDBRANCH  32  34
ENDBRANCH  29  30
ENDBRANCH  28  29
ENDBRANCH  27  28
ENDBRANCH  26  27
ENDBRANCH  25  26
ENDBRANCH  23  25
ENDBRANCH  22  23
ENDBRANCH  21  22
ENDBRANCH  19  21
ENDBRANCH   1  19
BRANCH   7  38
HETATM   38  O4  UNL     1      -6.195  20.349  28.129  1.00  0.00    -0.395 OA
ATOM     39  H4  UNL     1      -6.853  20.767  28.673  1.00  0.00     0.210 HD
ENDBRANCH   7  38
BRANCH  12  40
HETATM   40  O5  UNL     1      -4.484  16.553  24.341  1.00  0.00    -0.395 OA
ATOM     41  H5  UNL     1      -4.716  17.359  23.895  1.00  0.00     0.210 HD
ENDBRANCH  12  40
TORSDOF 14
ENDMDL
