MODEL 1
REMARK VINA RESULT: -6.916440187      0.000      0.000
REMARK  13 active torsions:
REMARK  status: ('A' for Active; 'I' for Inactive)
REMARK    1  A    between atoms: C2_2  and  C4_4 
REMARK    2  A    between atoms: C4_4  and  C5_5 
REMARK    3  A    between atoms: C7_10  and  C8_11 
REMARK    4  A    between atoms: C8_11  and  C9_13 
REMARK    5  A    between atoms: C18_24  and  O2_25 
REMARK    6  A    between atoms: C19_27  and  C20_28 
REMARK    7  A    between atoms: C20_28  and  C21_29 
REMARK    8  A    between atoms: C21_29  and  C22_30 
REMARK    9  A    between atoms: C22_30  and  C23_31 
REMARK   10  A    between atoms: C23_31  and  C24_32 
REMARK   11  A    between atoms: C24_32  and  C25_33 
REMARK   12  A    between atoms: C25_33  and  C26_34 
REMARK   13  A    between atoms: C26_34  and  C27_35 
ROOT
HETATM    1  C5  UNL     1      -4.966  17.040  24.950  1.00  0.00     0.177 C 
HETATM    2  N1  UNL     1      -5.298  18.317  24.358  1.00  0.00    -0.347 N 
ATOM      3  H1  UNL     1      -5.110  19.156  24.908  1.00  0.00     0.163 HD
HETATM    4  C6  UNL     1      -5.860  18.486  23.078  1.00  0.00     0.224 C 
HETATM    5  O1  UNL     1      -6.485  19.547  22.847  1.00  0.00    -0.273 OA
HETATM    6  C7  UNL     1      -5.760  17.487  21.974  1.00  0.00     0.099 C 
HETATM    7  C12 UNL     1      -7.075  16.846  21.681  1.00  0.00     0.022 C 
HETATM    8  C13 UNL     1      -8.312  17.695  21.787  1.00  0.00     0.007 C 
HETATM    9  C14 UNL     1      -9.381  17.020  20.956  1.00  0.00     0.001 C 
HETATM   10  C15 UNL     1      -9.407  15.564  20.881  1.00  0.00     0.002 C 
HETATM   11  C16 UNL     1      -8.122  14.804  21.073  1.00  0.00     0.025 C 
HETATM   12  C17 UNL     1      -7.298  15.498  22.214  1.00  0.00     0.088 C 
HETATM   13  N2  UNL     1      -7.942  15.166  23.410  1.00  0.00    -0.364 N 
ATOM     14  H2  UNL     1      -7.905  14.152  23.513  1.00  0.00     0.162 HD
HETATM   15  C18 UNL     1      -8.607  15.673  24.501  1.00  0.00     0.159 C 
HETATM   16  C19 UNL     1      -8.254  16.307  25.792  1.00  0.00     0.062 C 
HETATM   17  N3  UNL     1      -6.946  16.059  26.320  1.00  0.00    -0.325 N 
ATOM     18  H3  UNL     1      -6.875  15.219  26.894  1.00  0.00     0.169 HD
HETATM   19  C28 UNL     1      -5.746  16.775  26.184  1.00  0.00     0.244 C 
HETATM   20  O5  UNL     1      -5.213  17.288  27.244  1.00  0.00    -0.271 OA
ENDROOT
BRANCH  16  21
HETATM   21  C20 UNL     1      -8.712  17.732  25.906  1.00  0.00     0.062 C 
BRANCH  21  22
HETATM   22  C21 UNL     1      -9.673  18.088  26.966  1.00  0.00     0.006 C 
BRANCH  22  23
HETATM   23  C22 UNL     1     -10.028  16.897  27.815  1.00  0.00     0.000 C 
BRANCH  23  24
HETATM   24  C23 UNL     1      -9.812  17.225  29.302  1.00  0.00     0.000 C 
BRANCH  24  25
HETATM   25  C24 UNL     1      -8.548  16.622  29.825  1.00  0.00     0.001 C 
BRANCH  25  26
HETATM   26  C25 UNL     1      -8.502  16.589  31.333  1.00  0.00     0.010 C 
BRANCH  26  27
HETATM   27  C26 UNL     1      -9.859  16.228  31.908  1.00  0.00     0.113 C 
BRANCH  27  28
HETATM   28  C27 UNL     1      -9.746  15.873  33.347  1.00  0.00     0.172 C 
HETATM   29  O3  UNL     1      -9.062  14.884  33.697  1.00  0.00    -0.648 OA
HETATM   30  O4  UNL     1     -10.379  16.610  34.333  1.00  0.00    -0.648 OA
ENDBRANCH  27  28
ENDBRANCH  26  27
ENDBRANCH  25  26
ENDBRANCH  24  25
ENDBRANCH  23  24
ENDBRANCH  22  23
ENDBRANCH  21  22
ENDBRANCH  16  21
BRANCH  15  31
HETATM   31  O2  UNL     1      -9.922  15.592  24.425  1.00  0.00    -0.345 OA
ATOM     32  H2  UNL     1     -10.356  15.458  25.259  1.00  0.00     0.219 HD
ENDBRANCH  15  31
BRANCH   1  33
HETATM   33  C4  UNL     1      -3.462  17.133  25.264  1.00  0.00     0.038 C 
BRANCH  33  34
HETATM   34  C2  UNL     1      -2.632  17.310  24.025  1.00  0.00    -0.020 C 
HETATM   35  C1  UNL     1      -1.893  18.640  24.034  1.00  0.00     0.009 C 
HETATM   36  C3  UNL     1      -1.668  16.189  23.800  1.00  0.00     0.009 C 
ENDBRANCH  33  34
ENDBRANCH   1  33
BRANCH   6  37
HETATM   37  C8  UNL     1      -5.028  18.170  20.873  1.00  0.00     0.075 C 
HETATM   38  S1  UNL     1      -5.791  18.072  19.241  1.00  0.00    -0.091 SA
BRANCH  37  39
HETATM   39  C9  UNL     1      -3.573  18.093  20.756  1.00  0.00    -0.007 C 
HETATM   40  C10 UNL     1      -2.842  19.059  19.889  1.00  0.00     0.011 C 
HETATM   41  C11 UNL     1      -3.050  16.688  20.461  1.00  0.00     0.011 C 
ENDBRANCH  37  39
ENDBRANCH   6  37
TORSDOF 13
ENDMDL
MODEL 2
REMARK VINA RESULT: -6.782657301      1.798      1.998
REMARK  13 active torsions:
REMARK  status: ('A' for Active; 'I' for Inactive)
REMARK    1  A    between atoms: C2_2  and  C4_4 
REMARK    2  A    between atoms: C4_4  and  C5_5 
REMARK    3  A    between atoms: C7_10  and  C8_11 
REMARK    4  A    between atoms: C8_11  and  C9_13 
REMARK    5  A    between atoms: C18_24  and  O2_25 
REMARK    6  A    between atoms: C19_27  and  C20_28 
REMARK    7  A    between atoms: C20_28  and  C21_29 
REMARK    8  A    between atoms: C21_29  and  C22_30 
REMARK    9  A    between atoms: C22_30  and  C23_31 
REMARK   10  A    between atoms: C23_31  and  C24_32 
REMARK   11  A    between atoms: C24_32  and  C25_33 
REMARK   12  A    between atoms: C25_33  and  C26_34 
REMARK   13  A    between atoms: C26_34  and  C27_35 
ROOT
HETATM    1  C5  UNL     1      -4.990  16.979  24.891  1.00  0.00     0.177 C 
HETATM    2  N1  UNL     1      -5.305  18.264  24.308  1.00  0.00    -0.347 N 
ATOM      3  H1  UNL     1      -5.122  19.096  24.870  1.00  0.00     0.163 HD
HETATM    4  C6  UNL     1      -5.846  18.451  23.021  1.00  0.00     0.224 C 
HETATM    5  O1  UNL     1      -6.462  19.517  22.792  1.00  0.00    -0.273 OA
HETATM    6  C7  UNL     1      -5.735  17.463  21.908  1.00  0.00     0.099 C 
HETATM    7  C12 UNL     1      -7.048  16.832  21.588  1.00  0.00     0.022 C 
HETATM    8  C13 UNL     1      -8.282  17.688  21.683  1.00  0.00     0.007 C 
HETATM    9  C14 UNL     1      -9.341  17.027  20.828  1.00  0.00     0.001 C 
HETATM   10  C15 UNL     1      -9.374  15.572  20.736  1.00  0.00     0.002 C 
HETATM   11  C16 UNL     1      -8.097  14.804  20.940  1.00  0.00     0.025 C 
HETATM   12  C17 UNL     1      -7.287  15.480  22.101  1.00  0.00     0.088 C 
HETATM   13  N2  UNL     1      -7.952  15.138  23.283  1.00  0.00    -0.364 N 
ATOM     14  H2  UNL     1      -7.921  14.123  23.376  1.00  0.00     0.162 HD
HETATM   15  C18 UNL     1      -8.630  15.637  24.370  1.00  0.00     0.159 C 
HETATM   16  C19 UNL     1      -8.295  16.255  25.672  1.00  0.00     0.062 C 
HETATM   17  N3  UNL     1      -6.997  15.994  26.219  1.00  0.00    -0.325 N 
ATOM     18  H3  UNL     1      -6.939  15.147  26.784  1.00  0.00     0.169 HD
HETATM   19  C28 UNL     1      -5.791  16.704  26.109  1.00  0.00     0.244 C 
HETATM   20  O5  UNL     1      -5.272  17.203  27.184  1.00  0.00    -0.271 OA
ENDROOT
BRANCH  16  21
HETATM   21  C20 UNL     1      -8.747  17.681  25.796  1.00  0.00     0.062 C 
BRANCH  21  22
HETATM   22  C21 UNL     1      -9.137  18.192  27.122  1.00  0.00     0.006 C 
BRANCH  22  23
HETATM   23  C22 UNL     1     -10.310  17.436  27.684  1.00  0.00     0.000 C 
BRANCH  23  24
HETATM   24  C23 UNL     1     -10.056  17.088  29.160  1.00  0.00     0.000 C 
BRANCH  24  25
HETATM   25  C24 UNL     1      -9.101  15.946  29.305  1.00  0.00     0.001 C 
BRANCH  25  26
HETATM   26  C25 UNL     1      -9.710  14.626  28.903  1.00  0.00     0.010 C 
BRANCH  26  27
HETATM   27  C26 UNL     1     -10.952  14.331  29.723  1.00  0.00     0.113 C 
BRANCH  27  28
HETATM   28  C27 UNL     1     -12.074  13.901  28.849  1.00  0.00     0.172 C 
HETATM   29  O3  UNL     1     -12.654  14.736  28.117  1.00  0.00    -0.648 OA
HETATM   30  O4  UNL     1     -12.509  12.587  28.811  1.00  0.00    -0.648 OA
ENDBRANCH  27  28
ENDBRANCH  26  27
ENDBRANCH  25  26
ENDBRANCH  24  25
ENDBRANCH  23  24
ENDBRANCH  22  23
ENDBRANCH  21  22
ENDBRANCH  16  21
BRANCH  15  31
HETATM   31  O2  UNL     1      -9.945  15.564  24.272  1.00  0.00    -0.345 OA
ATOM     32  H2  UNL     1     -10.268  15.461  23.385  1.00  0.00     0.219 HD
ENDBRANCH  15  31
BRANCH   1  33
HETATM   33  C4  UNL     1      -3.491  17.060  25.229  1.00  0.00     0.038 C 
BRANCH  33  34
HETATM   34  C2  UNL     1      -2.644  17.294  24.012  1.00  0.00    -0.020 C 
HETATM   35  C1  UNL     1      -1.933  18.637  24.076  1.00  0.00     0.009 C 
HETATM   36  C3  UNL     1      -1.654  16.200  23.766  1.00  0.00     0.009 C 
ENDBRANCH  33  34
ENDBRANCH   1  33
BRANCH   6  37
HETATM   37  C8  UNL     1      -4.981  18.154  20.826  1.00  0.00     0.075 C 
HETATM   38  S1  UNL     1      -5.720  18.080  19.182  1.00  0.00    -0.091 SA
BRANCH  37  39
HETATM   39  C9  UNL     1      -3.525  18.069  20.730  1.00  0.00    -0.007 C 
HETATM   40  C10 UNL     1      -2.770  19.071  19.928  1.00  0.00     0.011 C 
HETATM   41  C11 UNL     1      -3.010  16.676  20.372  1.00  0.00     0.011 C 
ENDBRANCH  37  39
ENDBRANCH   6  37
TORSDOF 13
ENDMDL
MODEL 3
REMARK VINA RESULT: -6.751292438      2.176      4.860
REMARK  13 active torsions:
REMARK  status: ('A' for Active; 'I' for Inactive)
REMARK    1  A    between atoms: C2_2  and  C4_4 
REMARK    2  A    between atoms: C4_4  and  C5_5 
REMARK    3  A    between atoms: C7_10  and  C8_11 
REMARK    4  A    between atoms: C8_11  and  C9_13 
REMARK    5  A    between atoms: C18_24  and  O2_25 
REMARK    6  A    between atoms: C19_27  and  C20_28 
REMARK    7  A    between atoms: C20_28  and  C21_29 
REMARK    8  A    between atoms: C21_29  and  C22_30 
REMARK    9  A    between atoms: C22_30  and  C23_31 
REMARK   10  A    between atoms: C23_31  and  C24_32 
REMARK   11  A    between atoms: C24_32  and  C25_33 
REMARK   12  A    between atoms: C25_33  and  C26_34 
REMARK   13  A    between atoms: C26_34  and  C27_35 
ROOT
HETATM    1  C5  UNL     1      -8.995  16.972  24.130  1.00  0.00     0.177 C 
HETATM    2  N1  UNL     1      -7.846  16.095  24.137  1.00  0.00    -0.347 N 
ATOM      3  H1  UNL     1      -7.986  15.128  23.840  1.00  0.00     0.163 HD
HETATM    4  C6  UNL     1      -6.547  16.477  24.524  1.00  0.00     0.224 C 
HETATM    5  O1  UNL     1      -5.757  15.579  24.897  1.00  0.00    -0.273 OA
HETATM    6  C7  UNL     1      -6.045  17.882  24.519  1.00  0.00     0.099 C 
HETATM    7  C12 UNL     1      -5.836  18.405  25.900  1.00  0.00     0.022 C 
HETATM    8  C13 UNL     1      -5.325  17.452  26.945  1.00  0.00     0.007 C 
HETATM    9  C14 UNL     1      -4.705  18.291  28.041  1.00  0.00     0.001 C 
HETATM   10  C15 UNL     1      -5.285  19.592  28.352  1.00  0.00     0.002 C 
HETATM   11  C16 UNL     1      -6.026  20.333  27.272  1.00  0.00     0.025 C 
HETATM   12  C17 UNL     1      -6.865  19.299  26.442  1.00  0.00     0.088 C 
HETATM   13  N2  UNL     1      -7.944  18.939  27.255  1.00  0.00    -0.364 N 
ATOM     14  H2  UNL     1      -8.494  19.779  27.433  1.00  0.00     0.162 HD
HETATM   15  C18 UNL     1      -8.553  17.894  27.908  1.00  0.00     0.159 C 
HETATM   16  C19 UNL     1      -9.464  16.779  27.565  1.00  0.00     0.062 C 
HETATM   17  N3  UNL     1     -10.275  16.919  26.392  1.00  0.00    -0.325 N 
ATOM     18  H3  UNL     1     -11.166  17.390  26.549  1.00  0.00     0.169 HD
HETATM   19  C28 UNL     1     -10.053  16.518  25.065  1.00  0.00     0.244 C 
HETATM   20  O5  UNL     1     -10.850  15.641  24.547  1.00  0.00    -0.271 OA
ENDROOT
BRANCH  16  21
HETATM   21  C20 UNL     1      -8.845  15.423  27.736  1.00  0.00     0.062 C 
BRANCH  21  22
HETATM   22  C21 UNL     1      -9.455  14.476  28.687  1.00  0.00     0.006 C 
BRANCH  22  23
HETATM   23  C22 UNL     1     -10.731  15.021  29.268  1.00  0.00     0.000 C 
BRANCH  23  24
HETATM   24  C23 UNL     1     -10.700  14.914  30.802  1.00  0.00     0.000 C 
BRANCH  24  25
HETATM   25  C24 UNL     1     -10.328  16.214  31.441  1.00  0.00     0.001 C 
BRANCH  25  26
HETATM   26  C25 UNL     1      -9.196  16.072  32.428  1.00  0.00     0.010 C 
BRANCH  26  27
HETATM   27  C26 UNL     1      -9.564  15.106  33.538  1.00  0.00     0.113 C 
BRANCH  27  28
HETATM   28  C27 UNL     1      -9.890  15.838  34.790  1.00  0.00     0.172 C 
HETATM   29  O3  UNL     1      -9.112  15.781  35.771  1.00  0.00    -0.648 OA
HETATM   30  O4  UNL     1     -11.042  16.596  34.915  1.00  0.00    -0.648 OA
ENDBRANCH  27  28
ENDBRANCH  26  27
ENDBRANCH  25  26
ENDBRANCH  24  25
ENDBRANCH  23  24
ENDBRANCH  22  23
ENDBRANCH  21  22
ENDBRANCH  16  21
BRANCH  15  31
HETATM   31  O2  UNL     1      -8.284  17.827  29.199  1.00  0.00    -0.345 OA
ATOM     32  H2  UNL     1      -7.396  17.557  29.402  1.00  0.00     0.219 HD
ENDBRANCH  15  31
BRANCH   1  33
HETATM   33  C4  UNL     1      -9.501  16.942  22.676  1.00  0.00     0.038 C 
BRANCH  33  34
HETATM   34  C2  UNL     1      -8.505  16.322  21.740  1.00  0.00    -0.020 C 
HETATM   35  C1  UNL     1      -8.709  14.819  21.622  1.00  0.00     0.009 C 
HETATM   36  C3  UNL     1      -8.507  16.948  20.381  1.00  0.00     0.009 C 
ENDBRANCH  33  34
ENDBRANCH   1  33
BRANCH   6  37
HETATM   37  C8  UNL     1      -4.907  17.904  23.559  1.00  0.00     0.075 C 
HETATM   38  S1  UNL     1      -3.298  18.325  24.255  1.00  0.00    -0.091 SA
BRANCH  37  39
HETATM   39  C9  UNL     1      -5.044  18.475  22.220  1.00  0.00    -0.007 C 
HETATM   40  C10 UNL     1      -6.285  19.209  21.846  1.00  0.00     0.011 C 
HETATM   41  C11 UNL     1      -4.701  17.500  21.094  1.00  0.00     0.011 C 
ENDBRANCH  37  39
ENDBRANCH   6  37
TORSDOF 13
ENDMDL
MODEL 4
REMARK VINA RESULT: -6.664703584      2.027      4.742
REMARK  13 active torsions:
REMARK  status: ('A' for Active; 'I' for Inactive)
REMARK    1  A    between atoms: C2_2  and  C4_4 
REMARK    2  A    between atoms: C4_4  and  C5_5 
REMARK    3  A    between atoms: C7_10  and  C8_11 
REMARK    4  A    between atoms: C8_11  and  C9_13 
REMARK    5  A    between atoms: C18_24  and  O2_25 
REMARK    6  A    between atoms: C19_27  and  C20_28 
REMARK    7  A    between atoms: C20_28  and  C21_29 
REMARK    8  A    between atoms: C21_29  and  C22_30 
REMARK    9  A    between atoms: C22_30  and  C23_31 
REMARK   10  A    between atoms: C23_31  and  C24_32 
REMARK   11  A    between atoms: C24_32  and  C25_33 
REMARK   12  A    between atoms: C25_33  and  C26_34 
REMARK   13  A    between atoms: C26_34  and  C27_35 
ROOT
HETATM    1  C5  UNL     1      -8.307  17.228  23.806  1.00  0.00     0.177 C 
HETATM    2  N1  UNL     1      -7.120  16.402  23.835  1.00  0.00    -0.347 N 
ATOM      3  H1  UNL     1      -7.193  15.455  23.462  1.00  0.00     0.163 HD
HETATM    4  C6  UNL     1      -5.871  16.811  24.342  1.00  0.00     0.224 C 
HETATM    5  O1  UNL     1      -5.067  15.923  24.708  1.00  0.00    -0.273 OA
HETATM    6  C7  UNL     1      -5.439  18.233  24.472  1.00  0.00     0.099 C 
HETATM    7  C12 UNL     1      -5.352  18.662  25.898  1.00  0.00     0.022 C 
HETATM    8  C13 UNL     1      -4.870  17.658  26.909  1.00  0.00     0.007 C 
HETATM    9  C14 UNL     1      -4.369  18.441  28.102  1.00  0.00     0.001 C 
HETATM   10  C15 UNL     1      -5.031  19.690  28.460  1.00  0.00     0.002 C 
HETATM   11  C16 UNL     1      -5.730  20.475  27.383  1.00  0.00     0.025 C 
HETATM   12  C17 UNL     1      -6.458  19.469  26.424  1.00  0.00     0.088 C 
HETATM   13  N2  UNL     1      -7.573  19.005  27.129  1.00  0.00    -0.364 N 
ATOM     14  H2  UNL     1      -8.174  19.805  27.324  1.00  0.00     0.162 HD
HETATM   15  C18 UNL     1      -8.175  17.890  27.661  1.00  0.00     0.159 C 
HETATM   16  C19 UNL     1      -9.005  16.764  27.175  1.00  0.00     0.062 C 
HETATM   17  N3  UNL     1      -9.738  16.954  25.959  1.00  0.00    -0.325 N 
ATOM     18  H3  UNL     1     -10.659  17.373  26.083  1.00  0.00     0.169 HD
HETATM   19  C28 UNL     1      -9.405  16.661  24.627  1.00  0.00     0.244 C 
HETATM   20  O5  UNL     1     -10.120  15.791  23.992  1.00  0.00    -0.271 OA
ENDROOT
BRANCH  16  21
HETATM   21  C20 UNL     1      -8.334  15.427  27.296  1.00  0.00     0.062 C 
BRANCH  21  22
HETATM   22  C21 UNL     1      -8.921  14.414  28.193  1.00  0.00     0.006 C 
BRANCH  22  23
HETATM   23  C22 UNL     1     -10.194  14.906  28.825  1.00  0.00     0.000 C 
BRANCH  23  24
HETATM   24  C23 UNL     1     -10.132  14.721  30.351  1.00  0.00     0.000 C 
BRANCH  24  25
HETATM   25  C24 UNL     1      -9.990  16.028  31.063  1.00  0.00     0.001 C 
BRANCH  25  26
HETATM   26  C25 UNL     1      -9.277  15.893  32.386  1.00  0.00     0.010 C 
BRANCH  26  27
HETATM   27  C26 UNL     1     -10.070  15.020  33.341  1.00  0.00     0.113 C 
BRANCH  27  28
HETATM   28  C27 UNL     1     -11.155  15.799  33.992  1.00  0.00     0.172 C 
HETATM   29  O3  UNL     1     -12.348  15.610  33.660  1.00  0.00    -0.648 OA
HETATM   30  O4  UNL     1     -10.892  16.742  34.971  1.00  0.00    -0.648 OA
ENDBRANCH  27  28
ENDBRANCH  26  27
ENDBRANCH  25  26
ENDBRANCH  24  25
ENDBRANCH  23  24
ENDBRANCH  22  23
ENDBRANCH  21  22
ENDBRANCH  16  21
BRANCH  15  31
HETATM   31  O2  UNL     1      -7.994  17.740  28.961  1.00  0.00    -0.345 OA
ATOM     32  H2  UNL     1      -8.162  18.521  29.473  1.00  0.00     0.219 HD
ENDBRANCH  15  31
BRANCH   1  33
HETATM   33  C4  UNL     1      -8.708  17.282  22.320  1.00  0.00     0.038 C 
BRANCH  33  34
HETATM   34  C2  UNL     1      -7.852  16.391  21.467  1.00  0.00    -0.020 C 
HETATM   35  C1  UNL     1      -8.558  15.083  21.142  1.00  0.00     0.009 C 
HETATM   36  C3  UNL     1      -7.391  17.052  20.207  1.00  0.00     0.009 C 
ENDBRANCH  33  34
ENDBRANCH   1  33
BRANCH   6  37
HETATM   37  C8  UNL     1      -4.239  18.374  23.601  1.00  0.00     0.075 C 
HETATM   38  S1  UNL     1      -4.504  18.073  21.842  1.00  0.00    -0.091 SA
BRANCH  37  39
HETATM   39  C9  UNL     1      -2.931  17.865  24.010  1.00  0.00    -0.007 C 
HETATM   40  C10 UNL     1      -1.906  18.797  24.558  1.00  0.00     0.011 C 
HETATM   41  C11 UNL     1      -2.263  16.970  22.967  1.00  0.00     0.011 C 
ENDBRANCH  37  39
ENDBRANCH   6  37
TORSDOF 13
ENDMDL
MODEL 5
REMARK VINA RESULT: -6.660334828      2.030      2.246
REMARK  13 active torsions:
REMARK  status: ('A' for Active; 'I' for Inactive)
REMARK    1  A    between atoms: C2_2  and  C4_4 
REMARK    2  A    between atoms: C4_4  and  C5_5 
REMARK    3  A    between atoms: C7_10  and  C8_11 
REMARK    4  A    between atoms: C8_11  and  C9_13 
REMARK    5  A    between atoms: C18_24  and  O2_25 
REMARK    6  A    between atoms: C19_27  and  C20_28 
REMARK    7  A    between atoms: C20_28  and  C21_29 
REMARK    8  A    between atoms: C21_29  and  C22_30 
REMARK    9  A    between atoms: C22_30  and  C23_31 
REMARK   10  A    between atoms: C23_31  and  C24_32 
REMARK   11  A    between atoms: C24_32  and  C25_33 
REMARK   12  A    between atoms: C25_33  and  C26_34 
REMARK   13  A    between atoms: C26_34  and  C27_35 
ROOT
HETATM    1  C5  UNL     1      -4.901  17.001  24.920  1.00  0.00     0.177 C 
HETATM    2  N1  UNL     1      -5.240  18.282  24.343  1.00  0.00    -0.347 N 
ATOM      3  H1  UNL     1      -5.043  19.118  24.895  1.00  0.00     0.163 HD
HETATM    4  C6  UNL     1      -5.824  18.461  23.073  1.00  0.00     0.224 C 
HETATM    5  O1  UNL     1      -6.452  19.524  22.860  1.00  0.00    -0.273 OA
HETATM    6  C7  UNL     1      -5.745  17.469  21.962  1.00  0.00     0.099 C 
HETATM    7  C12 UNL     1      -7.065  16.831  21.687  1.00  0.00     0.022 C 
HETATM    8  C13 UNL     1      -8.299  17.681  21.819  1.00  0.00     0.007 C 
HETATM    9  C14 UNL     1      -9.383  17.012  21.002  1.00  0.00     0.001 C 
HETATM   10  C15 UNL     1      -9.412  15.557  20.918  1.00  0.00     0.002 C 
HETATM   11  C16 UNL     1      -8.125  14.795  21.083  1.00  0.00     0.025 C 
HETATM   12  C17 UNL     1      -7.281  15.480  22.214  1.00  0.00     0.088 C 
HETATM   13  N2  UNL     1      -7.905  15.141  23.419  1.00  0.00    -0.364 N 
ATOM     14  H2  UNL     1      -7.867  14.126  23.515  1.00  0.00     0.162 HD
HETATM   15  C18 UNL     1      -8.550  15.641  24.525  1.00  0.00     0.159 C 
HETATM   16  C19 UNL     1      -8.175  16.267  25.813  1.00  0.00     0.062 C 
HETATM   17  N3  UNL     1      -6.858  16.013  26.318  1.00  0.00    -0.325 N 
ATOM     18  H3  UNL     1      -6.778  15.170  26.885  1.00  0.00     0.169 HD
HETATM   19  C28 UNL     1      -5.660  16.729  26.166  1.00  0.00     0.244 C 
HETATM   20  O5  UNL     1      -5.108  17.234  27.220  1.00  0.00    -0.271 OA
ENDROOT
BRANCH  16  21
HETATM   21  C20 UNL     1      -8.629  17.691  25.945  1.00  0.00     0.062 C 
BRANCH  21  22
HETATM   22  C21 UNL     1      -9.682  18.015  26.925  1.00  0.00     0.006 C 
BRANCH  22  23
HETATM   23  C22 UNL     1      -9.854  16.915  27.936  1.00  0.00     0.000 C 
BRANCH  23  24
HETATM   24  C23 UNL     1     -11.230  16.250  27.763  1.00  0.00     0.000 C 
BRANCH  24  25
HETATM   25  C24 UNL     1     -11.425  15.120  28.723  1.00  0.00     0.001 C 
BRANCH  25  26
HETATM   26  C25 UNL     1     -12.742  14.413  28.527  1.00  0.00     0.010 C 
BRANCH  26  27
HETATM   27  C26 UNL     1     -13.085  13.560  29.734  1.00  0.00     0.113 C 
BRANCH  27  28
HETATM   28  C27 UNL     1     -14.326  14.046  30.390  1.00  0.00     0.172 C 
HETATM   29  O3  UNL     1     -14.694  13.551  31.481  1.00  0.00    -0.648 OA
HETATM   30  O4  UNL     1     -15.105  15.045  29.832  1.00  0.00    -0.648 OA
ENDBRANCH  27  28
ENDBRANCH  26  27
ENDBRANCH  25  26
ENDBRANCH  24  25
ENDBRANCH  23  24
ENDBRANCH  22  23
ENDBRANCH  21  22
ENDBRANCH  16  21
BRANCH  15  31
HETATM   31  O2  UNL     1      -9.867  15.562  24.471  1.00  0.00    -0.345 OA
ATOM     32  H2  UNL     1     -10.205  14.677  24.413  1.00  0.00     0.219 HD
ENDBRANCH  15  31
BRANCH   1  33
HETATM   33  C4  UNL     1      -3.391  17.091  25.209  1.00  0.00     0.038 C 
BRANCH  33  34
HETATM   34  C2  UNL     1      -2.586  17.321  23.963  1.00  0.00    -0.020 C 
HETATM   35  C1  UNL     1      -1.868  18.662  24.003  1.00  0.00     0.009 C 
HETATM   36  C3  UNL     1      -1.609  16.224  23.684  1.00  0.00     0.009 C 
ENDBRANCH  33  34
ENDBRANCH   1  33
BRANCH   6  37
HETATM   37  C8  UNL     1      -5.030  18.158  20.852  1.00  0.00     0.075 C 
HETATM   38  S1  UNL     1      -5.817  18.064  19.232  1.00  0.00    -0.091 SA
BRANCH  37  39
HETATM   39  C9  UNL     1      -3.577  18.085  20.714  1.00  0.00    -0.007 C 
HETATM   40  C10 UNL     1      -2.855  19.089  19.882  1.00  0.00     0.011 C 
HETATM   41  C11 UNL     1      -3.060  16.695  20.350  1.00  0.00     0.011 C 
ENDBRANCH  37  39
ENDBRANCH   6  37
TORSDOF 13
ENDMDL
