MODEL 1
REMARK VINA RESULT: -9.045470195      0.000      0.000
REMARK  15 active torsions:
REMARK  status: ('A' for Active; 'I' for Inactive)
REMARK    1  A    between atoms: C2_2  and  C3_3 
REMARK    2  A    between atoms: C3_3  and  C4_4 
REMARK    3  A    between atoms: C4_4  and  N1_5 
REMARK    4  A    between atoms: C6_10  and  N3_11 
REMARK    5  A    between atoms: N3_11  and  C7_13 
REMARK    6  A    between atoms: C7_13  and  C8_14 
REMARK    7  A    between atoms: C11_17  and  C12_18 
REMARK    8  A    between atoms: C20_26  and  O1_27 
REMARK    9  A    between atoms: C22_31  and  N5_32 
REMARK   10  A    between atoms: N5_32  and  C23_34 
REMARK   11  A    between atoms: C28_39  and  C29_40 
REMARK   12  A    between atoms: C29_40  and  C30_41 
REMARK   13  A    between atoms: C30_41  and  C31_42 
REMARK   14  A    between atoms: C31_42  and  C32_43 
REMARK   15  A    between atoms: C32_43  and  O2_44 
ROOT
HETATM    1  N1  UNL     1     -11.965  16.026  28.127  1.00  0.00    -0.204 N 
ATOM      2  H1  UNL     1     -11.799  16.324  29.088  1.00  0.00     0.183 HD
HETATM    3  C5  UNL     1     -11.208  16.514  27.244  1.00  0.00     0.710 A 
HETATM    4  N2  UNL     1     -10.253  17.390  27.691  1.00  0.00    -0.021 N 
ATOM      5  H2  UNL     1     -10.214  17.616  28.685  1.00  0.00     0.203 HD
HETATM    6  C6  UNL     1      -9.366  17.957  26.855  1.00  0.00     0.707 A 
HETATM    7  N4  UNL     1      -9.468  17.627  25.562  1.00  0.00    -0.021 N 
ATOM      8  H4  UNL     1      -8.810  18.044  24.904  1.00  0.00     0.203 HD
HETATM    9  C22 UNL     1     -10.412  16.758  25.074  1.00  0.00     0.707 A 
HETATM   10  N6  UNL     1     -11.278  16.210  25.949  1.00  0.00    -0.021 N 
ATOM     11  H6  UNL     1     -11.991  15.560  25.617  1.00  0.00     0.203 HD
ENDROOT
BRANCH   6  12
HETATM   12  N3  UNL     1      -8.472  18.786  27.267  1.00  0.00    -0.221 N 
ATOM     13  H3  UNL     1      -8.647  19.776  27.095  1.00  0.00     0.178 HD
BRANCH  12  14
HETATM   14  C7  UNL     1      -7.269  18.454  27.938  1.00  0.00     0.179 C 
BRANCH  14  15
HETATM   15  C8  UNL     1      -6.175  18.219  26.959  1.00  0.00    -0.007 A 
HETATM   16  C9  UNL     1      -5.529  19.217  26.276  1.00  0.00     0.012 A 
HETATM   17  C10 UNL     1      -4.578  18.907  25.316  1.00  0.00     0.013 A 
HETATM   18  C11 UNL     1      -4.234  17.586  24.999  1.00  0.00    -0.023 A 
HETATM   19  C19 UNL     1      -4.896  16.596  25.696  1.00  0.00     0.049 A 
HETATM   20  C20 UNL     1      -5.851  16.893  26.661  1.00  0.00     0.076 A 
BRANCH  18  21
HETATM   21  C12 UNL     1      -3.229  17.247  24.002  1.00  0.00    -0.026 A 
HETATM   22  C13 UNL     1      -2.130  16.446  24.253  1.00  0.00     0.013 A 
HETATM   23  C14 UNL     1      -1.209  16.119  23.264  1.00  0.00     0.007 A 
HETATM   24  C15 UNL     1      -1.365  16.588  21.984  1.00  0.00    -0.062 A 
HETATM   25  C16 UNL     1      -0.418  16.256  20.894  1.00  0.00     0.048 C 
HETATM   26  C17 UNL     1      -2.460  17.392  21.722  1.00  0.00     0.007 A 
HETATM   27  C18 UNL     1      -3.371  17.719  22.695  1.00  0.00     0.013 A 
ENDBRANCH  18  21
BRANCH  20  28
HETATM   28  O1  UNL     1      -6.525  15.923  27.378  1.00  0.00    -0.355 OA
HETATM   29  C21 UNL     1      -7.445  15.084  26.719  1.00  0.00     0.210 C 
ENDBRANCH  20  28
ENDBRANCH  14  15
ENDBRANCH  12  14
ENDBRANCH   6  12
BRANCH   9  30
HETATM   30  N5  UNL     1     -10.382  16.564  23.872  1.00  0.00    -0.220 N 
ATOM     31  H5  UNL     1     -11.325  16.351  23.548  1.00  0.00     0.178 HD
BRANCH  30  32
HETATM   32  C23 UNL     1      -9.500  16.529  22.770  1.00  0.00     0.103 C 
HETATM   33  C24 UNL     1     -10.161  16.054  21.537  1.00  0.00     0.026 C 
HETATM   34  C25 UNL     1      -9.140  15.433  20.598  1.00  0.00     0.002 C 
HETATM   35  C26 UNL     1      -8.635  14.187  21.271  1.00  0.00     0.001 C 
HETATM   36  C27 UNL     1      -7.993  14.479  22.596  1.00  0.00     0.007 C 
HETATM   37  C28 UNL     1      -8.193  15.822  23.137  1.00  0.00     0.009 C 
BRANCH  37  38
HETATM   38  C29 UNL     1      -7.081  16.813  22.981  1.00  0.00     0.007 C 
BRANCH  38  39
HETATM   39  C30 UNL     1      -7.480  18.214  22.689  1.00  0.00     0.002 C 
BRANCH  39  40
HETATM   40  C31 UNL     1      -6.486  18.761  21.672  1.00  0.00     0.026 C 
BRANCH  40  41
HETATM   41  C32 UNL     1      -6.451  17.942  20.407  1.00  0.00     0.164 C 
BRANCH  41  42
HETATM   42  O2  UNL     1      -7.642  18.180  19.722  1.00  0.00    -0.401 OA
ATOM     43  H2  UNL     1      -8.058  17.340  19.573  1.00  0.00     0.209 HD
ENDBRANCH  41  42
ENDBRANCH  40  41
ENDBRANCH  39  40
ENDBRANCH  38  39
ENDBRANCH  37  38
ENDBRANCH  30  32
ENDBRANCH   9  30
BRANCH   1  44
HETATM   44  C4  UNL     1     -13.015  15.113  27.920  1.00  0.00     0.079 C 
BRANCH  44  45
HETATM   45  C3  UNL     1     -13.241  14.220  29.127  1.00  0.00     0.045 C 
BRANCH  45  46
HETATM   46  C2  UNL     1     -12.649  12.849  28.839  1.00  0.00     0.001 C 
HETATM   47  C1  UNL     1     -13.410  11.757  29.609  1.00  0.00     0.005 C 
ENDBRANCH  45  46
ENDBRANCH  44  45
ENDBRANCH   1  44
TORSDOF 15
ENDMDL
MODEL 2
REMARK VINA RESULT: -8.875114045      1.773      3.004
REMARK  15 active torsions:
REMARK  status: ('A' for Active; 'I' for Inactive)
REMARK    1  A    between atoms: C2_2  and  C3_3 
REMARK    2  A    between atoms: C3_3  and  C4_4 
REMARK    3  A    between atoms: C4_4  and  N1_5 
REMARK    4  A    between atoms: C6_10  and  N3_11 
REMARK    5  A    between atoms: N3_11  and  C7_13 
REMARK    6  A    between atoms: C7_13  and  C8_14 
REMARK    7  A    between atoms: C11_17  and  C12_18 
REMARK    8  A    between atoms: C20_26  and  O1_27 
REMARK    9  A    between atoms: C22_31  and  N5_32 
REMARK   10  A    between atoms: N5_32  and  C23_34 
REMARK   11  A    between atoms: C28_39  and  C29_40 
REMARK   12  A    between atoms: C29_40  and  C30_41 
REMARK   13  A    between atoms: C30_41  and  C31_42 
REMARK   14  A    between atoms: C31_42  and  C32_43 
REMARK   15  A    between atoms: C32_43  and  O2_44 
ROOT
HETATM    1  N1  UNL     1     -11.374  16.378  27.896  1.00  0.00    -0.204 N 
ATOM      2  H1  UNL     1     -11.322  16.766  28.838  1.00  0.00     0.183 HD
HETATM    3  C5  UNL     1     -10.482  16.742  27.082  1.00  0.00     0.710 A 
HETATM    4  N2  UNL     1      -9.550  17.622  27.570  1.00  0.00    -0.021 N 
ATOM      5  H2  UNL     1      -9.632  17.949  28.533  1.00  0.00     0.203 HD
HETATM    6  C6  UNL     1      -8.531  18.066  26.813  1.00  0.00     0.707 A 
HETATM    7  N4  UNL     1      -8.478  17.608  25.556  1.00  0.00    -0.021 N 
ATOM      8  H4  UNL     1      -7.717  17.930  24.958  1.00  0.00     0.203 HD
HETATM    9  C22 UNL     1      -9.391  16.730  25.030  1.00  0.00     0.707 A 
HETATM   10  N6  UNL     1     -10.394  16.309  25.826  1.00  0.00    -0.021 N 
ATOM     11  H6  UNL     1     -11.090  15.656  25.464  1.00  0.00     0.203 HD
ENDROOT
BRANCH   6  12
HETATM   12  N3  UNL     1      -7.659  18.898  27.261  1.00  0.00    -0.221 N 
ATOM     13  H3  UNL     1      -7.911  19.886  27.242  1.00  0.00     0.178 HD
BRANCH  12  14
HETATM   14  C7  UNL     1      -6.381  18.572  27.780  1.00  0.00     0.179 C 
BRANCH  14  15
HETATM   15  C8  UNL     1      -5.483  18.100  26.693  1.00  0.00    -0.007 A 
HETATM   16  C9  UNL     1      -4.853  16.882  26.694  1.00  0.00     0.012 A 
HETATM   17  C10 UNL     1      -3.963  16.554  25.682  1.00  0.00     0.013 A 
HETATM   18  C11 UNL     1      -3.667  17.429  24.629  1.00  0.00    -0.023 A 
HETATM   19  C19 UNL     1      -4.311  18.650  24.646  1.00  0.00     0.049 A 
HETATM   20  C20 UNL     1      -5.205  18.991  25.655  1.00  0.00     0.076 A 
BRANCH  18  21
HETATM   21  C12 UNL     1      -2.745  17.091  23.554  1.00  0.00    -0.026 A 
HETATM   22  C13 UNL     1      -1.569  16.388  23.737  1.00  0.00     0.013 A 
HETATM   23  C14 UNL     1      -0.731  16.056  22.677  1.00  0.00     0.007 A 
HETATM   24  C15 UNL     1      -1.053  16.419  21.394  1.00  0.00    -0.062 A 
HETATM   25  C16 UNL     1      -0.199  16.077  20.232  1.00  0.00     0.048 C 
HETATM   26  C17 UNL     1      -2.227  17.125  21.200  1.00  0.00     0.007 A 
HETATM   27  C18 UNL     1      -3.056  17.456  22.242  1.00  0.00     0.013 A 
ENDBRANCH  18  21
BRANCH  20  28
HETATM   28  O1  UNL     1      -5.868  20.204  25.695  1.00  0.00    -0.355 OA
HETATM   29  C21 UNL     1      -5.859  21.040  24.561  1.00  0.00     0.210 C 
ENDBRANCH  20  28
ENDBRANCH  14  15
ENDBRANCH  12  14
ENDBRANCH   6  12
BRANCH   9  30
HETATM   30  N5  UNL     1      -9.212  16.412  23.868  1.00  0.00    -0.220 N 
ATOM     31  H5  UNL     1     -10.117  16.279  23.418  1.00  0.00     0.178 HD
BRANCH  30  32
HETATM   32  C23 UNL     1      -8.191  16.161  22.926  1.00  0.00     0.103 C 
HETATM   33  C24 UNL     1      -7.423  17.379  22.593  1.00  0.00     0.026 C 
HETATM   34  C25 UNL     1      -6.818  17.258  21.204  1.00  0.00     0.002 C 
HETATM   35  C26 UNL     1      -7.966  17.248  20.233  1.00  0.00     0.001 C 
HETATM   36  C27 UNL     1      -8.906  16.103  20.478  1.00  0.00     0.007 C 
HETATM   37  C28 UNL     1      -8.731  15.371  21.731  1.00  0.00     0.009 C 
BRANCH  37  38
HETATM   38  C29 UNL     1      -8.000  14.065  21.683  1.00  0.00     0.007 C 
BRANCH  38  39
HETATM   39  C30 UNL     1      -8.135  13.187  22.874  1.00  0.00     0.002 C 
BRANCH  39  40
HETATM   40  C31 UNL     1      -7.866  11.760  22.412  1.00  0.00     0.026 C 
BRANCH  40  41
HETATM   41  C32 UNL     1      -7.048  10.980  23.410  1.00  0.00     0.164 C 
BRANCH  41  42
HETATM   42  O2  UNL     1      -5.859  10.615  22.782  1.00  0.00    -0.401 OA
ATOM     43  H2  UNL     1      -5.505  11.392  22.366  1.00  0.00     0.209 HD
ENDBRANCH  41  42
ENDBRANCH  40  41
ENDBRANCH  39  40
ENDBRANCH  38  39
ENDBRANCH  37  38
ENDBRANCH  30  32
ENDBRANCH   9  30
BRANCH   1  44
HETATM   44  C4  UNL     1     -12.432  15.489  27.636  1.00  0.00     0.079 C 
BRANCH  44  45
HETATM   45  C3  UNL     1     -12.861  14.732  28.881  1.00  0.00     0.045 C 
BRANCH  45  46
HETATM   46  C2  UNL     1     -12.017  13.473  29.002  1.00  0.00     0.001 C 
HETATM   47  C1  UNL     1     -12.885  12.217  28.810  1.00  0.00     0.005 C 
ENDBRANCH  45  46
ENDBRANCH  44  45
ENDBRANCH   1  44
TORSDOF 15
ENDMDL
MODEL 3
REMARK VINA RESULT: -8.855895199      2.779      9.461
REMARK  15 active torsions:
REMARK  status: ('A' for Active; 'I' for Inactive)
REMARK    1  A    between atoms: C2_2  and  C3_3 
REMARK    2  A    between atoms: C3_3  and  C4_4 
REMARK    3  A    between atoms: C4_4  and  N1_5 
REMARK    4  A    between atoms: C6_10  and  N3_11 
REMARK    5  A    between atoms: N3_11  and  C7_13 
REMARK    6  A    between atoms: C7_13  and  C8_14 
REMARK    7  A    between atoms: C11_17  and  C12_18 
REMARK    8  A    between atoms: C20_26  and  O1_27 
REMARK    9  A    between atoms: C22_31  and  N5_32 
REMARK   10  A    between atoms: N5_32  and  C23_34 
REMARK   11  A    between atoms: C28_39  and  C29_40 
REMARK   12  A    between atoms: C29_40  and  C30_41 
REMARK   13  A    between atoms: C30_41  and  C31_42 
REMARK   14  A    between atoms: C31_42  and  C32_43 
REMARK   15  A    between atoms: C32_43  and  O2_44 
ROOT
HETATM    1  N1  UNL     1      -7.407  18.585  27.886  1.00  0.00    -0.204 N 
ATOM      2  H1  UNL     1      -7.603  18.670  28.883  1.00  0.00     0.183 HD
HETATM    3  C5  UNL     1      -8.173  17.837  27.219  1.00  0.00     0.710 A 
HETATM    4  N2  UNL     1      -9.179  17.230  27.924  1.00  0.00    -0.021 N 
ATOM      5  H2  UNL     1      -9.246  17.388  28.930  1.00  0.00     0.203 HD
HETATM    6  C6  UNL     1     -10.081  16.431  27.326  1.00  0.00     0.707 A 
HETATM    7  N4  UNL     1      -9.941  16.257  26.007  1.00  0.00    -0.021 N 
ATOM      8  H4  UNL     1     -10.610  15.654  25.526  1.00  0.00     0.203 HD
HETATM    9  C22 UNL     1      -8.947  16.844  25.266  1.00  0.00     0.707 A 
HETATM   10  N6  UNL     1      -8.067  17.639  25.906  1.00  0.00    -0.021 N 
ATOM     11  H6  UNL     1      -7.316  18.090  25.383  1.00  0.00     0.203 HD
ENDROOT
BRANCH   6  12
HETATM   12  N3  UNL     1     -11.022  15.851  27.984  1.00  0.00    -0.221 N 
ATOM     13  H3  UNL     1     -11.862  15.601  27.463  1.00  0.00     0.178 HD
BRANCH  12  14
HETATM   14  C7  UNL     1     -11.002  15.526  29.363  1.00  0.00     0.179 C 
BRANCH  14  15
HETATM   15  C8  UNL     1     -11.792  14.294  29.619  1.00  0.00    -0.007 A 
HETATM   16  C9  UNL     1     -12.120  13.378  28.653  1.00  0.00     0.012 A 
HETATM   17  C10 UNL     1     -12.934  12.298  28.958  1.00  0.00     0.013 A 
HETATM   18  C11 UNL     1     -13.453  12.089  30.242  1.00  0.00    -0.023 A 
HETATM   19  C19 UNL     1     -13.112  13.021  31.201  1.00  0.00     0.049 A 
HETATM   20  C20 UNL     1     -12.297  14.108  30.908  1.00  0.00     0.076 A 
BRANCH  18  21
HETATM   21  C12 UNL     1     -14.298  10.952  30.579  1.00  0.00    -0.026 A 
HETATM   22  C13 UNL     1     -15.648  10.880  30.292  1.00  0.00     0.013 A 
HETATM   23  C14 UNL     1     -16.414   9.760  30.601  1.00  0.00     0.007 A 
HETATM   24  C15 UNL     1     -15.841   8.671  31.208  1.00  0.00    -0.062 A 
HETATM   25  C16 UNL     1     -16.613   7.451  31.544  1.00  0.00     0.048 C 
HETATM   26  C17 UNL     1     -14.491   8.733  31.501  1.00  0.00     0.007 A 
HETATM   27  C18 UNL     1     -13.732   9.836  31.200  1.00  0.00     0.013 A 
ENDBRANCH  18  21
BRANCH  20  28
HETATM   28  O1  UNL     1     -11.936  15.053  31.849  1.00  0.00    -0.355 OA
HETATM   29  C21 UNL     1     -12.724  15.224  33.004  1.00  0.00     0.210 C 
ENDBRANCH  20  28
ENDBRANCH  14  15
ENDBRANCH  12  14
ENDBRANCH   6  12
BRANCH   9  30
HETATM   30  N5  UNL     1      -8.948  16.582  24.076  1.00  0.00    -0.220 N 
ATOM     31  H5  UNL     1      -9.912  16.553  23.744  1.00  0.00     0.178 HD
BRANCH  30  32
HETATM   32  C23 UNL     1      -8.083  16.305  22.995  1.00  0.00     0.103 C 
HETATM   33  C24 UNL     1      -7.388  17.513  22.507  1.00  0.00     0.026 C 
HETATM   34  C25 UNL     1      -7.005  17.347  21.046  1.00  0.00     0.002 C 
HETATM   35  C26 UNL     1      -8.290  17.299  20.266  1.00  0.00     0.001 C 
HETATM   36  C27 UNL     1      -9.169  16.160  20.692  1.00  0.00     0.007 C 
HETATM   37  C28 UNL     1      -8.794  15.471  21.925  1.00  0.00     0.009 C 
BRANCH  37  38
HETATM   38  C29 UNL     1      -8.067  14.168  21.808  1.00  0.00     0.007 C 
BRANCH  38  39
HETATM   39  C30 UNL     1      -8.162  13.250  22.972  1.00  0.00     0.002 C 
BRANCH  39  40
HETATM   40  C31 UNL     1      -7.884  11.842  22.457  1.00  0.00     0.026 C 
BRANCH  40  41
HETATM   41  C32 UNL     1      -7.056  11.033  23.423  1.00  0.00     0.164 C 
BRANCH  41  42
HETATM   42  O2  UNL     1      -5.898  10.640  22.753  1.00  0.00    -0.401 OA
ATOM     43  H2  UNL     1      -5.189  10.640  23.385  1.00  0.00     0.209 HD
ENDBRANCH  41  42
ENDBRANCH  40  41
ENDBRANCH  39  40
ENDBRANCH  38  39
ENDBRANCH  37  38
ENDBRANCH  30  32
ENDBRANCH   9  30
BRANCH   1  44
HETATM   44  C4  UNL     1      -6.308  19.312  27.393  1.00  0.00     0.079 C 
BRANCH  44  45
HETATM   45  C3  UNL     1      -4.993  18.591  27.633  1.00  0.00     0.045 C 
BRANCH  45  46
HETATM   46  C2  UNL     1      -4.407  18.183  26.290  1.00  0.00     0.001 C 
HETATM   47  C1  UNL     1      -4.241  16.656  26.213  1.00  0.00     0.005 C 
ENDBRANCH  45  46
ENDBRANCH  44  45
ENDBRANCH   1  44
TORSDOF 15
ENDMDL
MODEL 4
REMARK VINA RESULT: -8.716213980      2.482      8.658
REMARK  15 active torsions:
REMARK  status: ('A' for Active; 'I' for Inactive)
REMARK    1  A    between atoms: C2_2  and  C3_3 
REMARK    2  A    between atoms: C3_3  and  C4_4 
REMARK    3  A    between atoms: C4_4  and  N1_5 
REMARK    4  A    between atoms: C6_10  and  N3_11 
REMARK    5  A    between atoms: N3_11  and  C7_13 
REMARK    6  A    between atoms: C7_13  and  C8_14 
REMARK    7  A    between atoms: C11_17  and  C12_18 
REMARK    8  A    between atoms: C20_26  and  O1_27 
REMARK    9  A    between atoms: C22_31  and  N5_32 
REMARK   10  A    between atoms: N5_32  and  C23_34 
REMARK   11  A    between atoms: C28_39  and  C29_40 
REMARK   12  A    between atoms: C29_40  and  C30_41 
REMARK   13  A    between atoms: C30_41  and  C31_42 
REMARK   14  A    between atoms: C31_42  and  C32_43 
REMARK   15  A    between atoms: C32_43  and  O2_44 
ROOT
HETATM    1  N1  UNL     1      -3.400  16.881  25.378  1.00  0.00    -0.204 N 
ATOM      2  H1  UNL     1      -3.031  16.864  26.328  1.00  0.00     0.183 HD
HETATM    3  C5  UNL     1      -4.651  16.990  25.258  1.00  0.00     0.710 A 
HETATM    4  N2  UNL     1      -5.360  17.071  26.429  1.00  0.00    -0.021 N 
ATOM      5  H2  UNL     1      -4.860  17.019  27.316  1.00  0.00     0.203 HD
HETATM    6  C6  UNL     1      -6.697  17.219  26.438  1.00  0.00     0.707 A 
HETATM    7  N4  UNL     1      -7.299  17.276  25.244  1.00  0.00    -0.021 N 
ATOM      8  H4  UNL     1      -8.313  17.385  25.220  1.00  0.00     0.203 HD
HETATM    9  C22 UNL     1      -6.626  17.196  24.051  1.00  0.00     0.707 A 
HETATM   10  N6  UNL     1      -5.287  17.051  24.089  1.00  0.00    -0.021 N 
ATOM     11  H6  UNL     1      -4.758  16.989  23.219  1.00  0.00     0.203 HD
ENDROOT
BRANCH   6  12
HETATM   12  N3  UNL     1      -7.369  17.287  27.533  1.00  0.00    -0.221 N 
ATOM     13  H3  UNL     1      -6.932  16.895  28.367  1.00  0.00     0.178 HD
BRANCH  12  14
HETATM   14  C7  UNL     1      -8.658  17.855  27.689  1.00  0.00     0.179 C 
BRANCH  14  15
HETATM   15  C8  UNL     1      -9.648  16.807  28.051  1.00  0.00    -0.007 A 
HETATM   16  C9  UNL     1     -10.687  16.422  27.243  1.00  0.00     0.012 A 
HETATM   17  C10 UNL     1     -11.618  15.497  27.692  1.00  0.00     0.013 A 
HETATM   18  C11 UNL     1     -11.548  14.920  28.967  1.00  0.00    -0.023 A 
HETATM   19  C19 UNL     1     -10.496  15.321  29.765  1.00  0.00     0.049 A 
HETATM   20  C20 UNL     1      -9.556  16.247  29.327  1.00  0.00     0.076 A 
BRANCH  18  21
HETATM   21  C12 UNL     1     -12.511  13.939  29.445  1.00  0.00    -0.026 A 
HETATM   22  C13 UNL     1     -13.405  14.170  30.474  1.00  0.00     0.013 A 
HETATM   23  C14 UNL     1     -14.333  13.215  30.879  1.00  0.00     0.007 A 
HETATM   24  C15 UNL     1     -14.392  11.994  30.257  1.00  0.00    -0.062 A 
HETATM   25  C16 UNL     1     -15.372  10.952  30.644  1.00  0.00     0.048 C 
HETATM   26  C17 UNL     1     -13.501  11.752  29.228  1.00  0.00     0.007 A 
HETATM   27  C18 UNL     1     -12.583  12.689  28.825  1.00  0.00     0.013 A 
ENDBRANCH  18  21
BRANCH  20  28
HETATM   28  O1  UNL     1      -8.490  16.663  30.102  1.00  0.00    -0.355 OA
HETATM   29  C21 UNL     1      -8.688  16.935  31.470  1.00  0.00     0.210 C 
ENDBRANCH  20  28
ENDBRANCH  14  15
ENDBRANCH  12  14
ENDBRANCH   6  12
BRANCH   9  30
HETATM   30  N5  UNL     1      -7.316  17.256  23.049  1.00  0.00    -0.220 N 
ATOM     31  H5  UNL     1      -7.362  18.226  22.737  1.00  0.00     0.178 HD
BRANCH  30  32
HETATM   32  C23 UNL     1      -8.075  16.456  22.167  1.00  0.00     0.103 C 
HETATM   33  C24 UNL     1      -9.054  17.245  21.394  1.00  0.00     0.026 C 
HETATM   34  C25 UNL     1     -10.224  16.370  20.975  1.00  0.00     0.002 C 
HETATM   35  C26 UNL     1     -10.948  15.985  22.237  1.00  0.00     0.001 C 
HETATM   36  C27 UNL     1     -10.065  15.231  23.188  1.00  0.00     0.007 C 
HETATM   37  C28 UNL     1      -8.635  15.227  22.889  1.00  0.00     0.009 C 
BRANCH  37  38
HETATM   38  C29 UNL     1      -8.059  14.012  22.229  1.00  0.00     0.007 C 
BRANCH  38  39
HETATM   39  C30 UNL     1      -8.312  12.712  22.900  1.00  0.00     0.002 C 
BRANCH  39  40
HETATM   40  C31 UNL     1      -7.257  11.734  22.397  1.00  0.00     0.026 C 
BRANCH  40  41
HETATM   41  C32 UNL     1      -6.868  10.721  23.445  1.00  0.00     0.164 C 
BRANCH  41  42
HETATM   42  O2  UNL     1      -5.557  10.329  23.181  1.00  0.00    -0.401 OA
ATOM     43  H2  UNL     1      -5.497   9.397  23.358  1.00  0.00     0.209 HD
ENDBRANCH  41  42
ENDBRANCH  40  41
ENDBRANCH  39  40
ENDBRANCH  38  39
ENDBRANCH  37  38
ENDBRANCH  30  32
ENDBRANCH   9  30
BRANCH   1  44
HETATM   44  C4  UNL     1      -2.464  16.780  24.333  1.00  0.00     0.079 C 
BRANCH  44  45
HETATM   45  C3  UNL     1      -1.853  18.125  23.983  1.00  0.00     0.045 C 
BRANCH  45  46
HETATM   46  C2  UNL     1      -1.568  18.159  22.490  1.00  0.00     0.001 C 
HETATM   47  C1  UNL     1      -2.346  17.049  21.763  1.00  0.00     0.005 C 
ENDBRANCH  45  46
ENDBRANCH  44  45
ENDBRANCH   1  44
TORSDOF 15
ENDMDL
MODEL 5
REMARK VINA RESULT: -8.704061102      3.490      8.696
REMARK  15 active torsions:
REMARK  status: ('A' for Active; 'I' for Inactive)
REMARK    1  A    between atoms: C2_2  and  C3_3 
REMARK    2  A    between atoms: C3_3  and  C4_4 
REMARK    3  A    between atoms: C4_4  and  N1_5 
REMARK    4  A    between atoms: C6_10  and  N3_11 
REMARK    5  A    between atoms: N3_11  and  C7_13 
REMARK    6  A    between atoms: C7_13  and  C8_14 
REMARK    7  A    between atoms: C11_17  and  C12_18 
REMARK    8  A    between atoms: C20_26  and  O1_27 
REMARK    9  A    between atoms: C22_31  and  N5_32 
REMARK   10  A    between atoms: N5_32  and  C23_34 
REMARK   11  A    between atoms: C28_39  and  C29_40 
REMARK   12  A    between atoms: C29_40  and  C30_41 
REMARK   13  A    between atoms: C30_41  and  C31_42 
REMARK   14  A    between atoms: C31_42  and  C32_43 
REMARK   15  A    between atoms: C32_43  and  O2_44 
ROOT
HETATM    1  N1  UNL     1      -3.327  17.977  24.965  1.00  0.00    -0.204 N 
ATOM      2  H1  UNL     1      -3.018  18.109  25.928  1.00  0.00     0.183 HD
HETATM    3  C5  UNL     1      -4.564  17.809  24.784  1.00  0.00     0.710 A 
HETATM    4  N2  UNL     1      -5.341  17.825  25.914  1.00  0.00    -0.021 N 
ATOM      5  H2  UNL     1      -4.894  17.945  26.823  1.00  0.00     0.203 HD
HETATM    6  C6  UNL     1      -6.677  17.685  25.855  1.00  0.00     0.707 A 
HETATM    7  N4  UNL     1      -7.208  17.525  24.637  1.00  0.00    -0.021 N 
ATOM      8  H4  UNL     1      -8.219  17.415  24.562  1.00  0.00     0.203 HD
HETATM    9  C22 UNL     1      -6.465  17.501  23.484  1.00  0.00     0.707 A 
HETATM   10  N6  UNL     1      -5.129  17.648  23.590  1.00  0.00    -0.021 N 
ATOM     11  H6  UNL     1      -4.549  17.634  22.751  1.00  0.00     0.203 HD
ENDROOT
BRANCH   6  12
HETATM   12  N3  UNL     1      -7.411  17.690  26.911  1.00  0.00    -0.221 N 
ATOM     13  H3  UNL     1      -6.989  18.053  27.765  1.00  0.00     0.178 HD
BRANCH  12  14
HETATM   14  C7  UNL     1      -8.752  17.238  27.001  1.00  0.00     0.179 C 
BRANCH  14  15
HETATM   15  C8  UNL     1      -9.121  16.981  28.417  1.00  0.00    -0.007 A 
HETATM   16  C9  UNL     1      -8.345  17.340  29.490  1.00  0.00     0.012 A 
HETATM   17  C10 UNL     1      -8.721  16.985  30.776  1.00  0.00     0.013 A 
HETATM   18  C11 UNL     1      -9.889  16.259  31.044  1.00  0.00    -0.023 A 
HETATM   19  C19 UNL     1     -10.656  15.907  29.953  1.00  0.00     0.049 A 
HETATM   20  C20 UNL     1     -10.290  16.256  28.658  1.00  0.00     0.076 A 
BRANCH  18  21
HETATM   21  C12 UNL     1     -10.302  15.893  32.391  1.00  0.00    -0.026 A 
HETATM   22  C13 UNL     1      -9.632  16.279  33.537  1.00  0.00     0.013 A 
HETATM   23  C14 UNL     1     -10.078  15.936  34.809  1.00  0.00     0.007 A 
HETATM   24  C15 UNL     1     -11.220  15.192  34.969  1.00  0.00    -0.062 A 
HETATM   25  C16 UNL     1     -11.742  14.814  36.304  1.00  0.00     0.048 C 
HETATM   26  C17 UNL     1     -11.897  14.799  33.829  1.00  0.00     0.007 A 
HETATM   27  C18 UNL     1     -11.461  15.134  32.572  1.00  0.00     0.013 A 
ENDBRANCH  18  21
BRANCH  20  28
HETATM   28  O1  UNL     1     -11.042  15.922  27.547  1.00  0.00    -0.355 OA
HETATM   29  C21 UNL     1     -12.327  15.370  27.715  1.00  0.00     0.210 C 
ENDBRANCH  20  28
ENDBRANCH  14  15
ENDBRANCH  12  14
ENDBRANCH   6  12
BRANCH   9  30
HETATM   30  N5  UNL     1      -7.092  17.340  22.452  1.00  0.00    -0.220 N 
ATOM     31  H5  UNL     1      -6.937  18.142  21.842  1.00  0.00     0.178 HD
BRANCH  30  32
HETATM   32  C23 UNL     1      -7.959  16.433  21.805  1.00  0.00     0.103 C 
HETATM   33  C24 UNL     1      -8.993  17.118  21.004  1.00  0.00     0.026 C 
HETATM   34  C25 UNL     1     -10.223  16.236  20.864  1.00  0.00     0.002 C 
HETATM   35  C26 UNL     1     -10.820  16.107  22.238  1.00  0.00     0.001 C 
HETATM   36  C27 UNL     1      -9.863  15.491  23.217  1.00  0.00     0.007 C 
HETATM   37  C28 UNL     1      -8.472  15.373  22.784  1.00  0.00     0.009 C 
BRANCH  37  38
HETATM   38  C29 UNL     1      -8.001  14.038  22.296  1.00  0.00     0.007 C 
BRANCH  38  39
HETATM   39  C30 UNL     1      -8.054  12.920  23.272  1.00  0.00     0.002 C 
BRANCH  39  40
HETATM   40  C31 UNL     1      -7.679  11.649  22.519  1.00  0.00     0.026 C 
BRANCH  40  41
HETATM   41  C32 UNL     1      -6.948  10.661  23.393  1.00  0.00     0.164 C 
BRANCH  41  42
HETATM   42  O2  UNL     1      -5.642  10.567  22.916  1.00  0.00    -0.401 OA
ATOM     43  H2  UNL     1      -5.638   9.921  22.219  1.00  0.00     0.209 HD
ENDBRANCH  41  42
ENDBRANCH  40  41
ENDBRANCH  39  40
ENDBRANCH  38  39
ENDBRANCH  37  38
ENDBRANCH  30  32
ENDBRANCH   9  30
BRANCH   1  44
HETATM   44  C4  UNL     1      -2.330  18.001  23.972  1.00  0.00     0.079 C 
BRANCH  44  45
HETATM   45  C3  UNL     1      -1.742  16.623  23.723  1.00  0.00     0.045 C 
BRANCH  45  46
HETATM   46  C2  UNL     1      -1.245  16.557  22.287  1.00  0.00     0.001 C 
HETATM   47  C1  UNL     1      -2.357  16.970  21.308  1.00  0.00     0.005 C 
ENDBRANCH  45  46
ENDBRANCH  44  45
ENDBRANCH   1  44
TORSDOF 15
ENDMDL
