MODEL 1
REMARK VINA RESULT: -8.574091445      0.000      0.000
REMARK  17 active torsions:
REMARK  status: ('A' for Active; 'I' for Inactive)
REMARK    1  A    between atoms: C2_2  and  C3_3 
REMARK    2  A    between atoms: C3_3  and  C4_4 
REMARK    3  A    between atoms: C4_4  and  C5_5 
REMARK    4  A    between atoms: C5_5  and  C6_6 
REMARK    5  A    between atoms: C6_6  and  C7_7 
REMARK    6  A    between atoms: C7_7  and  C8_8 
REMARK    7  A    between atoms: C8_8  and  C9_9 
REMARK    8  A    between atoms: C13_13  and  C14_14 
REMARK    9  A    between atoms: C14_14  and  O1_15 
REMARK   10  A    between atoms: C14_14  and  N1_17 
REMARK   11  A    between atoms: C17_20  and  O2_21 
REMARK   12  A    between atoms: C23_28  and  C24_29 
REMARK       I    between atoms: C24_29  and  N2_31 
REMARK   13  A    between atoms: N2_31  and  C25_33 
REMARK   14  A    between atoms: C25_33  and  C26_34 
REMARK   15  A    between atoms: C26_34  and  C27_35 
REMARK   16  A    between atoms: C30_38  and  O4_39 
REMARK   17  A    between atoms: C31_41  and  O5_42 
ROOT
HETATM    1  C8  UNL     1      -8.077  17.060  27.444  1.00  0.00     0.015 C 
HETATM    2  C11 UNL     1      -9.144  16.779  26.389  1.00  0.00    -0.039 A 
HETATM    3  C12 UNL     1      -8.748  16.799  25.077  1.00  0.00     0.024 A 
HETATM    4  C13 UNL     1      -9.640  16.541  23.995  1.00  0.00     0.015 A 
HETATM    5  C20 UNL     1     -10.926  16.270  24.291  1.00  0.00     0.016 A 
HETATM    6  C21 UNL     1     -11.316  16.254  25.637  1.00  0.00     0.009 A 
HETATM    7  C22 UNL     1     -10.436  16.506  26.667  1.00  0.00    -0.035 A 
HETATM    8  C23 UNL     1     -11.021  16.477  28.032  1.00  0.00     0.142 C 
HETATM    9  C30 UNL     1     -10.175  17.338  28.882  1.00  0.00     0.165 C 
HETATM   10  C31 UNL     1      -8.725  17.118  28.838  1.00  0.00     0.161 C 
ENDROOT
BRANCH   4  11
HETATM   11  C14 UNL     1      -9.115  16.643  22.664  1.00  0.00     0.148 C 
BRANCH  11  12
HETATM   12  O1  UNL     1      -9.817  16.059  21.695  1.00  0.00    -0.346 OA
ATOM     13  H1  UNL     1      -9.381  15.373  21.204  1.00  0.00     0.219 HD
ENDBRANCH  11  12
BRANCH  11  14
HETATM   14  N1  UNL     1      -7.962  17.275  22.212  1.00  0.00    -0.361 N 
HETATM   15  C15 UNL     1      -6.829  17.659  22.984  1.00  0.00     0.127 C 
HETATM   16  C16 UNL     1      -6.039  18.726  22.192  1.00  0.00     0.051 C 
HETATM   17  C17 UNL     1      -5.468  18.091  20.958  1.00  0.00     0.121 C 
HETATM   18  C18 UNL     1      -6.485  17.147  20.322  1.00  0.00     0.051 C 
HETATM   19  C19 UNL     1      -7.858  17.593  20.752  1.00  0.00     0.127 C 
BRANCH  17  20
HETATM   20  O2  UNL     1      -4.366  17.337  21.340  1.00  0.00    -0.395 OA
ATOM     21  H2  UNL     1      -3.934  17.035  20.549  1.00  0.00     0.210 HD
ENDBRANCH  17  20
ENDBRANCH  11  14
ENDBRANCH   4  11
BRANCH   1  22
HETATM   22  C7  UNL     1      -7.532  18.373  27.079  1.00  0.00     0.017 C 
BRANCH  22  23
HETATM   23  C6  UNL     1      -6.135  18.567  26.673  1.00  0.00     0.001 C 
BRANCH  23  24
HETATM   24  C5  UNL     1      -5.035  18.579  27.648  1.00  0.00     0.000 C 
BRANCH  24  25
HETATM   25  C4  UNL     1      -3.928  17.653  27.114  1.00  0.00     0.000 C 
BRANCH  25  26
HETATM   26  C3  UNL     1      -4.319  16.919  25.883  1.00  0.00    -0.000 C 
BRANCH  26  27
HETATM   27  C2  UNL     1      -3.298  16.979  24.791  1.00  0.00    -0.005 C 
HETATM   28  C1  UNL     1      -3.022  18.443  24.433  1.00  0.00     0.005 C 
ENDBRANCH  26  27
ENDBRANCH  25  26
ENDBRANCH  24  25
ENDBRANCH  23  24
ENDBRANCH  22  23
ENDBRANCH   1  22
BRANCH   1  29
HETATM   29  C9  UNL     1      -7.254  15.836  27.491  1.00  0.00     0.012 C 
HETATM   30  C10 UNL     1      -7.633  14.600  26.799  1.00  0.00     0.006 C 
ENDBRANCH   1  29
BRANCH  10  31
HETATM   31  O5  UNL     1      -8.361  16.060  29.653  1.00  0.00    -0.392 OA
ATOM     32  H5  UNL     1      -9.062  15.767  30.222  1.00  0.00     0.210 HD
ENDBRANCH  10  31
BRANCH   8  33
HETATM   33  C24 UNL     1     -11.238  15.096  28.445  1.00  0.00     0.228 C 
HETATM   34  O3  UNL     1     -10.235  14.376  28.801  1.00  0.00    -0.273 OA
HETATM   35  N2  UNL     1     -12.503  14.458  28.488  1.00  0.00    -0.360 N 
ATOM     36  H2  UNL     1     -13.347  14.963  28.219  1.00  0.00     0.162 HD
BRANCH  35  37
HETATM   37  C25 UNL     1     -12.578  13.080  28.917  1.00  0.00     0.123 C 
BRANCH  37  38
HETATM   38  C26 UNL     1     -13.596  12.936  30.031  1.00  0.00     0.024 C 
BRANCH  38  39
HETATM   39  C27 UNL     1     -14.335  11.640  30.004  1.00  0.00    -0.013 A 
HETATM   40  C28 UNL     1     -15.494  11.369  30.851  1.00  0.00     0.005 A 
HETATM   41  C29 UNL     1     -14.157  10.759  31.231  1.00  0.00     0.005 A 
ENDBRANCH  38  39
ENDBRANCH  37  38
ENDBRANCH  35  37
ENDBRANCH   8  33
BRANCH   9  42
HETATM   42  O4  UNL     1     -10.585  17.202  30.220  1.00  0.00    -0.392 OA
ATOM     43  H4  UNL     1     -10.023  16.569  30.651  1.00  0.00     0.210 HD
ENDBRANCH   9  42
TORSDOF 17
ENDMDL
MODEL 2
REMARK VINA RESULT: -8.115194801      1.413      1.780
REMARK  17 active torsions:
REMARK  status: ('A' for Active; 'I' for Inactive)
REMARK    1  A    between atoms: C2_2  and  C3_3 
REMARK    2  A    between atoms: C3_3  and  C4_4 
REMARK    3  A    between atoms: C4_4  and  C5_5 
REMARK    4  A    between atoms: C5_5  and  C6_6 
REMARK    5  A    between atoms: C6_6  and  C7_7 
REMARK    6  A    between atoms: C7_7  and  C8_8 
REMARK    7  A    between atoms: C8_8  and  C9_9 
REMARK    8  A    between atoms: C13_13  and  C14_14 
REMARK    9  A    between atoms: C14_14  and  O1_15 
REMARK   10  A    between atoms: C14_14  and  N1_17 
REMARK   11  A    between atoms: C17_20  and  O2_21 
REMARK   12  A    between atoms: C23_28  and  C24_29 
REMARK       I    between atoms: C24_29  and  N2_31 
REMARK   13  A    between atoms: N2_31  and  C25_33 
REMARK   14  A    between atoms: C25_33  and  C26_34 
REMARK   15  A    between atoms: C26_34  and  C27_35 
REMARK   16  A    between atoms: C30_38  and  O4_39 
REMARK   17  A    between atoms: C31_41  and  O5_42 
ROOT
HETATM    1  C8  UNL     1      -7.878  17.016  27.218  1.00  0.00     0.015 C 
HETATM    2  C11 UNL     1      -8.831  16.820  26.042  1.00  0.00    -0.039 A 
HETATM    3  C12 UNL     1      -8.271  16.652  24.802  1.00  0.00     0.024 A 
HETATM    4  C13 UNL     1      -9.047  16.447  23.624  1.00  0.00     0.015 A 
HETATM    5  C20 UNL     1     -10.388  16.422  23.750  1.00  0.00     0.016 A 
HETATM    6  C21 UNL     1     -10.946  16.595  25.023  1.00  0.00     0.009 A 
HETATM    7  C22 UNL     1     -10.176  16.791  26.150  1.00  0.00    -0.035 A 
HETATM    8  C23 UNL     1     -10.929  16.985  27.416  1.00  0.00     0.142 C 
HETATM    9  C30 UNL     1     -10.061  17.769  28.318  1.00  0.00     0.165 C 
HETATM   10  C31 UNL     1      -8.680  17.308  28.497  1.00  0.00     0.161 C 
ENDROOT
BRANCH   4  11
HETATM   11  C14 UNL     1      -8.344  16.338  22.378  1.00  0.00     0.148 C 
BRANCH  11  12
HETATM   12  O1  UNL     1      -8.713  15.351  21.565  1.00  0.00    -0.346 OA
ATOM     13  H1  UNL     1      -8.561  15.481  20.636  1.00  0.00     0.219 HD
ENDBRANCH  11  12
BRANCH  11  14
HETATM   14  N1  UNL     1      -7.314  17.122  21.870  1.00  0.00    -0.361 N 
HETATM   15  C15 UNL     1      -6.158  17.582  22.561  1.00  0.00     0.127 C 
HETATM   16  C16 UNL     1      -5.568  18.778  21.779  1.00  0.00     0.051 C 
HETATM   17  C17 UNL     1      -5.057  18.289  20.455  1.00  0.00     0.121 C 
HETATM   18  C18 UNL     1      -6.026  17.277  19.848  1.00  0.00     0.051 C 
HETATM   19  C19 UNL     1      -7.389  17.539  20.433  1.00  0.00     0.127 C 
BRANCH  17  20
HETATM   20  O2  UNL     1      -3.849  17.642  20.679  1.00  0.00    -0.395 OA
ATOM     21  H2  UNL     1      -3.375  17.619  19.856  1.00  0.00     0.210 HD
ENDBRANCH  17  20
ENDBRANCH  11  14
ENDBRANCH   4  11
BRANCH   1  22
HETATM   22  C7  UNL     1      -7.066  18.181  26.846  1.00  0.00     0.017 C 
BRANCH  22  23
HETATM   23  C6  UNL     1      -5.913  18.630  27.636  1.00  0.00     0.001 C 
BRANCH  23  24
HETATM   24  C5  UNL     1      -4.555  18.129  27.386  1.00  0.00     0.000 C 
BRANCH  24  25
HETATM   25  C4  UNL     1      -4.372  18.012  25.863  1.00  0.00     0.000 C 
BRANCH  25  26
HETATM   26  C3  UNL     1      -3.762  16.725  25.441  1.00  0.00    -0.000 C 
BRANCH  26  27
HETATM   27  C2  UNL     1      -2.770  16.861  24.329  1.00  0.00    -0.005 C 
HETATM   28  C1  UNL     1      -2.487  18.345  24.078  1.00  0.00     0.005 C 
ENDBRANCH  26  27
ENDBRANCH  25  26
ENDBRANCH  24  25
ENDBRANCH  23  24
ENDBRANCH  22  23
ENDBRANCH   1  22
BRANCH   1  29
HETATM   29  C9  UNL     1      -7.297  15.681  27.466  1.00  0.00     0.012 C 
HETATM   30  C10 UNL     1      -7.921  14.445  26.985  1.00  0.00     0.006 C 
ENDBRANCH   1  29
BRANCH  10  31
HETATM   31  O5  UNL     1      -8.617  16.284  29.426  1.00  0.00    -0.392 OA
ATOM     32  H5  UNL     1      -7.882  16.363  30.022  1.00  0.00     0.210 HD
ENDBRANCH  10  31
BRANCH   8  33
HETATM   33  C24 UNL     1     -11.438  15.703  27.887  1.00  0.00     0.228 C 
HETATM   34  O3  UNL     1     -12.494  15.205  27.350  1.00  0.00    -0.273 OA
HETATM   35  N2  UNL     1     -10.851  14.935  28.923  1.00  0.00    -0.360 N 
ATOM     36  H2  UNL     1     -10.011  15.264  29.399  1.00  0.00     0.162 HD
BRANCH  35  37
HETATM   37  C25 UNL     1     -11.459  13.678  29.294  1.00  0.00     0.123 C 
BRANCH  37  38
HETATM   38  C26 UNL     1     -11.986  13.753  30.713  1.00  0.00     0.024 C 
BRANCH  38  39
HETATM   39  C27 UNL     1     -11.414  14.881  31.507  1.00  0.00    -0.013 A 
HETATM   40  C28 UNL     1     -10.450  14.684  32.587  1.00  0.00     0.005 A 
HETATM   41  C29 UNL     1     -11.895  14.979  32.947  1.00  0.00     0.005 A 
ENDBRANCH  38  39
ENDBRANCH  37  38
ENDBRANCH  35  37
ENDBRANCH   8  33
BRANCH   9  42
HETATM   42  O4  UNL     1     -10.659  17.827  29.588  1.00  0.00    -0.392 OA
ATOM     43  H4  UNL     1     -10.443  18.659  29.992  1.00  0.00     0.210 HD
ENDBRANCH   9  42
TORSDOF 17
ENDMDL
MODEL 3
REMARK VINA RESULT: -8.093492306      0.943      1.468
REMARK  17 active torsions:
REMARK  status: ('A' for Active; 'I' for Inactive)
REMARK    1  A    between atoms: C2_2  and  C3_3 
REMARK    2  A    between atoms: C3_3  and  C4_4 
REMARK    3  A    between atoms: C4_4  and  C5_5 
REMARK    4  A    between atoms: C5_5  and  C6_6 
REMARK    5  A    between atoms: C6_6  and  C7_7 
REMARK    6  A    between atoms: C7_7  and  C8_8 
REMARK    7  A    between atoms: C8_8  and  C9_9 
REMARK    8  A    between atoms: C13_13  and  C14_14 
REMARK    9  A    between atoms: C14_14  and  O1_15 
REMARK   10  A    between atoms: C14_14  and  N1_17 
REMARK   11  A    between atoms: C17_20  and  O2_21 
REMARK   12  A    between atoms: C23_28  and  C24_29 
REMARK       I    between atoms: C24_29  and  N2_31 
REMARK   13  A    between atoms: N2_31  and  C25_33 
REMARK   14  A    between atoms: C25_33  and  C26_34 
REMARK   15  A    between atoms: C26_34  and  C27_35 
REMARK   16  A    between atoms: C30_38  and  O4_39 
REMARK   17  A    between atoms: C31_41  and  O5_42 
ROOT
HETATM    1  C8  UNL     1      -8.173  17.048  27.497  1.00  0.00     0.015 C 
HETATM    2  C11 UNL     1      -9.239  16.753  26.444  1.00  0.00    -0.039 A 
HETATM    3  C12 UNL     1      -8.848  16.787  25.130  1.00  0.00     0.024 A 
HETATM    4  C13 UNL     1      -9.739  16.519  24.050  1.00  0.00     0.015 A 
HETATM    5  C20 UNL     1     -11.019  16.221  24.349  1.00  0.00     0.016 A 
HETATM    6  C21 UNL     1     -11.403  16.190  25.697  1.00  0.00     0.009 A 
HETATM    7  C22 UNL     1     -10.524  16.453  26.725  1.00  0.00    -0.035 A 
HETATM    8  C23 UNL     1     -11.103  16.405  28.093  1.00  0.00     0.142 C 
HETATM    9  C30 UNL     1     -10.270  17.277  28.944  1.00  0.00     0.165 C 
HETATM   10  C31 UNL     1      -8.816  17.086  28.892  1.00  0.00     0.161 C 
ENDROOT
BRANCH   4  11
HETATM   11  C14 UNL     1      -9.221  16.639  22.718  1.00  0.00     0.148 C 
BRANCH  11  12
HETATM   12  O1  UNL     1     -10.045  16.318  21.723  1.00  0.00    -0.346 OA
ATOM     13  H1  UNL     1     -10.879  16.774  21.693  1.00  0.00     0.219 HD
ENDBRANCH  11  12
BRANCH  11  14
HETATM   14  N1  UNL     1      -7.965  17.051  22.289  1.00  0.00    -0.361 N 
HETATM   15  C15 UNL     1      -7.634  17.660  21.046  1.00  0.00     0.127 C 
HETATM   16  C16 UNL     1      -6.114  17.499  20.814  1.00  0.00     0.051 C 
HETATM   17  C17 UNL     1      -5.377  18.302  21.846  1.00  0.00     0.121 C 
HETATM   18  C18 UNL     1      -6.044  18.161  23.212  1.00  0.00     0.051 C 
HETATM   19  C19 UNL     1      -6.805  16.861  23.218  1.00  0.00     0.127 C 
BRANCH  17  20
HETATM   20  O2  UNL     1      -5.448  19.638  21.473  1.00  0.00    -0.395 OA
ATOM     21  H2  UNL     1      -4.592  20.025  21.617  1.00  0.00     0.210 HD
ENDBRANCH  17  20
ENDBRANCH  11  14
ENDBRANCH   4  11
BRANCH   1  22
HETATM   22  C7  UNL     1      -7.655  18.373  27.137  1.00  0.00     0.017 C 
BRANCH  22  23
HETATM   23  C6  UNL     1      -6.363  18.878  27.618  1.00  0.00     0.001 C 
BRANCH  23  24
HETATM   24  C5  UNL     1      -5.167  18.896  26.764  1.00  0.00     0.000 C 
BRANCH  24  25
HETATM   25  C4  UNL     1      -4.312  17.671  27.131  1.00  0.00     0.000 C 
BRANCH  25  26
HETATM   26  C3  UNL     1      -3.843  16.905  25.946  1.00  0.00    -0.000 C 
BRANCH  26  27
HETATM   27  C2  UNL     1      -3.072  17.726  24.961  1.00  0.00    -0.005 C 
HETATM   28  C1  UNL     1      -2.350  16.797  23.980  1.00  0.00     0.005 C 
ENDBRANCH  26  27
ENDBRANCH  25  26
ENDBRANCH  24  25
ENDBRANCH  23  24
ENDBRANCH  22  23
ENDBRANCH   1  22
BRANCH   1  29
HETATM   29  C9  UNL     1      -7.326  15.840  27.533  1.00  0.00     0.012 C 
HETATM   30  C10 UNL     1      -7.642  14.629  26.768  1.00  0.00     0.006 C 
ENDBRANCH   1  29
BRANCH  10  31
HETATM   31  O5  UNL     1      -8.428  16.030  29.700  1.00  0.00    -0.392 OA
ATOM     32  H5  UNL     1      -9.091  15.779  30.332  1.00  0.00     0.210 HD
ENDBRANCH  10  31
BRANCH   8  33
HETATM   33  C24 UNL     1     -11.291  15.018  28.498  1.00  0.00     0.228 C 
HETATM   34  O3  UNL     1     -10.267  14.296  28.783  1.00  0.00    -0.273 OA
HETATM   35  N2  UNL     1     -12.550  14.375  28.608  1.00  0.00    -0.360 N 
ATOM     36  H2  UNL     1     -13.410  14.881  28.398  1.00  0.00     0.162 HD
BRANCH  35  37
HETATM   37  C25 UNL     1     -12.596  12.992  29.021  1.00  0.00     0.123 C 
BRANCH  37  38
HETATM   38  C26 UNL     1     -13.167  12.885  30.421  1.00  0.00     0.024 C 
BRANCH  38  39
HETATM   39  C27 UNL     1     -13.399  14.206  31.077  1.00  0.00    -0.013 A 
HETATM   40  C28 UNL     1     -12.657  14.648  32.255  1.00  0.00     0.005 A 
HETATM   41  C29 UNL     1     -14.080  14.152  32.437  1.00  0.00     0.005 A 
ENDBRANCH  38  39
ENDBRANCH  37  38
ENDBRANCH  35  37
ENDBRANCH   8  33
BRANCH   9  42
HETATM   42  O4  UNL     1     -10.672  17.126  30.282  1.00  0.00    -0.392 OA
ATOM     43  H4  UNL     1     -10.000  16.647  30.754  1.00  0.00     0.210 HD
ENDBRANCH   9  42
TORSDOF 17
ENDMDL
MODEL 4
REMARK VINA RESULT: -7.629635565      2.489      8.898
REMARK  17 active torsions:
REMARK  status: ('A' for Active; 'I' for Inactive)
REMARK    1  A    between atoms: C2_2  and  C3_3 
REMARK    2  A    between atoms: C3_3  and  C4_4 
REMARK    3  A    between atoms: C4_4  and  C5_5 
REMARK    4  A    between atoms: C5_5  and  C6_6 
REMARK    5  A    between atoms: C6_6  and  C7_7 
REMARK    6  A    between atoms: C7_7  and  C8_8 
REMARK    7  A    between atoms: C8_8  and  C9_9 
REMARK    8  A    between atoms: C13_13  and  C14_14 
REMARK    9  A    between atoms: C14_14  and  O1_15 
REMARK   10  A    between atoms: C14_14  and  N1_17 
REMARK   11  A    between atoms: C17_20  and  O2_21 
REMARK   12  A    between atoms: C23_28  and  C24_29 
REMARK       I    between atoms: C24_29  and  N2_31 
REMARK   13  A    between atoms: N2_31  and  C25_33 
REMARK   14  A    between atoms: C25_33  and  C26_34 
REMARK   15  A    between atoms: C26_34  and  C27_35 
REMARK   16  A    between atoms: C30_38  and  O4_39 
REMARK   17  A    between atoms: C31_41  and  O5_42 
ROOT
HETATM    1  C8  UNL     1      -8.292  16.222  24.757  1.00  0.00     0.015 C 
HETATM    2  C11 UNL     1      -8.082  16.453  26.251  1.00  0.00    -0.039 A 
HETATM    3  C12 UNL     1      -8.853  15.716  27.113  1.00  0.00     0.024 A 
HETATM    4  C13 UNL     1      -8.748  15.825  28.531  1.00  0.00     0.015 A 
HETATM    5  C20 UNL     1      -7.850  16.696  29.030  1.00  0.00     0.016 A 
HETATM    6  C21 UNL     1      -7.070  17.443  28.137  1.00  0.00     0.009 A 
HETATM    7  C22 UNL     1      -7.188  17.321  26.769  1.00  0.00    -0.035 A 
HETATM    8  C23 UNL     1      -6.305  18.206  25.967  1.00  0.00     0.142 C 
HETATM    9  C30 UNL     1      -6.967  18.408  24.663  1.00  0.00     0.165 C 
HETATM   10  C31 UNL     1      -7.438  17.215  23.951  1.00  0.00     0.161 C 
ENDROOT
BRANCH   4  11
HETATM   11  C14 UNL     1      -9.647  15.038  29.325  1.00  0.00     0.148 C 
BRANCH  11  12
HETATM   12  O1  UNL     1     -10.102  13.912  28.778  1.00  0.00    -0.346 OA
ATOM     13  H1  UNL     1     -10.423  13.245  29.375  1.00  0.00     0.219 HD
ENDBRANCH  11  12
BRANCH  11  14
HETATM   14  N1  UNL     1     -10.128  15.267  30.609  1.00  0.00    -0.361 N 
HETATM   15  C15 UNL     1     -10.820  14.350  31.448  1.00  0.00     0.127 C 
HETATM   16  C16 UNL     1     -11.565  15.154  32.538  1.00  0.00     0.051 C 
HETATM   17  C17 UNL     1     -10.556  15.811  33.434  1.00  0.00     0.121 C 
HETATM   18  C18 UNL     1      -9.397  16.371  32.613  1.00  0.00     0.051 C 
HETATM   19  C19 UNL     1      -9.901  16.618  31.215  1.00  0.00     0.127 C 
BRANCH  17  20
HETATM   20  O2  UNL     1     -10.046  14.837  34.283  1.00  0.00    -0.395 OA
ATOM     21  H2  UNL     1      -9.962  15.222  35.148  1.00  0.00     0.210 HD
ENDBRANCH  17  20
ENDBRANCH  11  14
ENDBRANCH   4  11
BRANCH   1  22
HETATM   22  C7  UNL     1      -9.720  16.482  24.539  1.00  0.00     0.017 C 
BRANCH  22  23
HETATM   23  C6  UNL     1     -10.520  15.745  23.554  1.00  0.00     0.001 C 
BRANCH  23  24
HETATM   24  C5  UNL     1     -10.895  16.331  22.259  1.00  0.00     0.000 C 
BRANCH  24  25
HETATM   25  C4  UNL     1      -9.816  15.936  21.237  1.00  0.00     0.000 C 
BRANCH  25  26
HETATM   26  C3  UNL     1      -9.029  17.093  20.736  1.00  0.00    -0.000 C 
BRANCH  26  27
HETATM   27  C2  UNL     1      -7.714  16.715  20.132  1.00  0.00    -0.005 C 
HETATM   28  C1  UNL     1      -6.811  17.951  20.065  1.00  0.00     0.005 C 
ENDBRANCH  26  27
ENDBRANCH  25  26
ENDBRANCH  24  25
ENDBRANCH  23  24
ENDBRANCH  22  23
ENDBRANCH   1  22
BRANCH   1  29
HETATM   29  C9  UNL     1      -7.665  14.915  24.480  1.00  0.00     0.012 C 
HETATM   30  C10 UNL     1      -8.203  13.972  23.493  1.00  0.00     0.006 C 
ENDBRANCH   1  29
BRANCH  10  31
HETATM   31  O5  UNL     1      -6.401  16.609  23.262  1.00  0.00    -0.392 OA
ATOM     32  H5  UNL     1      -5.883  17.220  22.752  1.00  0.00     0.210 HD
ENDBRANCH  10  31
BRANCH   8  33
HETATM   33  C24 UNL     1      -4.944  17.686  25.979  1.00  0.00     0.228 C 
HETATM   34  O3  UNL     1      -4.153  18.001  26.942  1.00  0.00    -0.273 OA
HETATM   35  N2  UNL     1      -4.398  16.834  24.985  1.00  0.00    -0.360 N 
ATOM     36  H2  UNL     1      -4.963  16.540  24.189  1.00  0.00     0.162 HD
BRANCH  35  37
HETATM   37  C25 UNL     1      -3.030  16.390  25.118  1.00  0.00     0.123 C 
BRANCH  37  38
HETATM   38  C26 UNL     1      -2.282  16.611  23.819  1.00  0.00     0.024 C 
BRANCH  38  39
HETATM   39  C27 UNL     1      -2.718  17.829  23.074  1.00  0.00    -0.013 A 
HETATM   40  C28 UNL     1      -3.331  17.773  21.749  1.00  0.00     0.005 A 
HETATM   41  C29 UNL     1      -1.876  18.191  21.860  1.00  0.00     0.005 A 
ENDBRANCH  38  39
ENDBRANCH  37  38
ENDBRANCH  35  37
ENDBRANCH   8  33
BRANCH   9  42
HETATM   42  O4  UNL     1      -6.088  19.095  23.808  1.00  0.00    -0.392 OA
ATOM     43  H4  UNL     1      -5.658  18.467  23.239  1.00  0.00     0.210 HD
ENDBRANCH   9  42
TORSDOF 17
ENDMDL
MODEL 5
REMARK VINA RESULT: -7.469703743      2.796      7.944
REMARK  17 active torsions:
REMARK  status: ('A' for Active; 'I' for Inactive)
REMARK    1  A    between atoms: C2_2  and  C3_3 
REMARK    2  A    between atoms: C3_3  and  C4_4 
REMARK    3  A    between atoms: C4_4  and  C5_5 
REMARK    4  A    between atoms: C5_5  and  C6_6 
REMARK    5  A    between atoms: C6_6  and  C7_7 
REMARK    6  A    between atoms: C7_7  and  C8_8 
REMARK    7  A    between atoms: C8_8  and  C9_9 
REMARK    8  A    between atoms: C13_13  and  C14_14 
REMARK    9  A    between atoms: C14_14  and  O1_15 
REMARK   10  A    between atoms: C14_14  and  N1_17 
REMARK   11  A    between atoms: C17_20  and  O2_21 
REMARK   12  A    between atoms: C23_28  and  C24_29 
REMARK       I    between atoms: C24_29  and  N2_31 
REMARK   13  A    between atoms: N2_31  and  C25_33 
REMARK   14  A    between atoms: C25_33  and  C26_34 
REMARK   15  A    between atoms: C26_34  and  C27_35 
REMARK   16  A    between atoms: C30_38  and  O4_39 
REMARK   17  A    between atoms: C31_41  and  O5_42 
ROOT
HETATM    1  C8  UNL     1      -6.669  17.578  27.191  1.00  0.00     0.015 C 
HETATM    2  C11 UNL     1      -7.753  16.740  27.864  1.00  0.00    -0.039 A 
HETATM    3  C12 UNL     1      -7.966  16.949  29.203  1.00  0.00     0.024 A 
HETATM    4  C13 UNL     1      -8.954  16.244  29.949  1.00  0.00     0.015 A 
HETATM    5  C20 UNL     1      -9.704  15.333  29.297  1.00  0.00     0.016 A 
HETATM    6  C21 UNL     1      -9.476  15.131  27.929  1.00  0.00     0.009 A 
HETATM    7  C22 UNL     1      -8.514  15.825  27.227  1.00  0.00    -0.035 A 
HETATM    8  C23 UNL     1      -8.384  15.469  25.791  1.00  0.00     0.142 C 
HETATM    9  C30 UNL     1      -7.001  15.793  25.389  1.00  0.00     0.165 C 
HETATM   10  C31 UNL     1      -6.490  17.124  25.733  1.00  0.00     0.161 C 
ENDROOT
BRANCH   4  11
HETATM   11  C14 UNL     1      -9.043  16.514  31.355  1.00  0.00     0.148 C 
BRANCH  11  12
HETATM   12  O1  UNL     1      -8.352  17.557  31.810  1.00  0.00    -0.346 OA
ATOM     13  H1  UNL     1      -8.851  18.330  32.048  1.00  0.00     0.219 HD
ENDBRANCH  11  12
BRANCH  11  14
HETATM   14  N1  UNL     1      -9.756  15.845  32.342  1.00  0.00    -0.361 N 
HETATM   15  C15 UNL     1      -9.412  15.713  33.717  1.00  0.00     0.127 C 
HETATM   16  C16 UNL     1     -10.204  14.523  34.306  1.00  0.00     0.051 C 
HETATM   17  C17 UNL     1     -11.666  14.862  34.305  1.00  0.00     0.121 C 
HETATM   18  C18 UNL     1     -12.048  15.576  33.010  1.00  0.00     0.051 C 
HETATM   19  C19 UNL     1     -11.045  15.185  31.957  1.00  0.00     0.127 C 
BRANCH  17  20
HETATM   20  O2  UNL     1     -11.898  15.737  35.358  1.00  0.00    -0.395 OA
ATOM     21  H2  UNL     1     -11.669  16.611  35.065  1.00  0.00     0.210 HD
ENDBRANCH  17  20
ENDBRANCH  11  14
ENDBRANCH   4  11
BRANCH   1  22
HETATM   22  C7  UNL     1      -5.453  17.302  27.965  1.00  0.00     0.017 C 
BRANCH  22  23
HETATM   23  C6  UNL     1      -4.154  17.037  27.335  1.00  0.00     0.001 C 
BRANCH  23  24
HETATM   24  C5  UNL     1      -3.304  18.119  26.818  1.00  0.00     0.000 C 
BRANCH  24  25
HETATM   25  C4  UNL     1      -3.353  18.057  25.282  1.00  0.00     0.000 C 
BRANCH  25  26
HETATM   26  C3  UNL     1      -3.066  16.704  24.739  1.00  0.00    -0.000 C 
BRANCH  26  27
HETATM   27  C2  UNL     1      -1.890  16.658  23.815  1.00  0.00    -0.005 C 
HETATM   28  C1  UNL     1      -1.405  18.085  23.539  1.00  0.00     0.005 C 
ENDBRANCH  26  27
ENDBRANCH  25  26
ENDBRANCH  24  25
ENDBRANCH  23  24
ENDBRANCH  22  23
ENDBRANCH   1  22
BRANCH   1  29
HETATM   29  C9  UNL     1      -7.251  18.930  27.069  1.00  0.00     0.012 C 
HETATM   30  C10 UNL     1      -6.520  20.143  27.448  1.00  0.00     0.006 C 
ENDBRANCH   1  29
BRANCH  10  31
HETATM   31  O5  UNL     1      -6.913  18.068  24.812  1.00  0.00    -0.392 OA
ATOM     32  H5  UNL     1      -6.632  17.878  23.925  1.00  0.00     0.210 HD
ENDBRANCH  10  31
BRANCH   8  33
HETATM   33  C24 UNL     1      -9.480  16.062  25.035  1.00  0.00     0.228 C 
HETATM   34  O3  UNL     1      -9.951  17.203  25.392  1.00  0.00    -0.273 OA
HETATM   35  N2  UNL     1     -10.093  15.467  23.905  1.00  0.00    -0.360 N 
ATOM     36  H2  UNL     1      -9.776  14.561  23.561  1.00  0.00     0.162 HD
BRANCH  35  37
HETATM   37  C25 UNL     1     -11.175  16.164  23.247  1.00  0.00     0.123 C 
BRANCH  37  38
HETATM   38  C26 UNL     1     -10.910  16.247  21.756  1.00  0.00     0.024 C 
BRANCH  38  39
HETATM   39  C27 UNL     1      -9.477  16.047  21.389  1.00  0.00    -0.013 A 
HETATM   40  C28 UNL     1      -8.724  17.003  20.580  1.00  0.00     0.005 A 
HETATM   41  C29 UNL     1      -9.215  15.724  19.926  1.00  0.00     0.005 A 
ENDBRANCH  38  39
ENDBRANCH  37  38
ENDBRANCH  35  37
ENDBRANCH   8  33
BRANCH   9  42
HETATM   42  O4  UNL     1      -6.882  15.637  23.998  1.00  0.00    -0.392 OA
ATOM     43  H4  UNL     1      -7.726  15.385  23.643  1.00  0.00     0.210 HD
ENDBRANCH   9  42
TORSDOF 17
ENDMDL
