MODEL 1
REMARK VINA RESULT: -7.683866761      0.000      0.000
REMARK  5 active torsions:
REMARK  status: ('A' for Active; 'I' for Inactive)
REMARK    1  A    between atoms: C3_3  and  C4_4 
REMARK    2  A    between atoms: C5_5  and  C6_6 
REMARK    3  A    between atoms: C7_7  and  C8_8 
REMARK    4  A    between atoms: C8_8  and  C11_11 
REMARK    5  A    between atoms: C18_27  and  N5_28 
ROOT
HETATM    1  C1  UNL     1      14.850  -5.096  -6.010  1.00  0.00     0.112 C 
HETATM    2  C2  UNL     1      14.144  -4.326  -4.977  1.00  0.00    -0.105 C 
HETATM    3  C3  UNL     1      13.554  -3.687  -4.139  1.00  0.00    -0.062 C 
ENDROOT
BRANCH   3   4
HETATM    4  C4  UNL     1      12.832  -2.927  -3.156  1.00  0.00     0.080 A 
HETATM    5  C5  UNL     1      13.466  -2.443  -2.025  1.00  0.00     0.061 A 
HETATM    6  C16 UNL     1      12.819  -1.714  -1.061  1.00  0.00     0.027 A 
HETATM    7  C17 UNL     1      13.545  -1.216   0.137  1.00  0.00     0.070 C 
HETATM    8  N4  UNL     1      11.513  -1.460  -1.225  1.00  0.00    -0.343 N 
HETATM    9  C18 UNL     1      10.844  -1.902  -2.300  1.00  0.00     0.140 A 
ATOM     10  H4  UNL     1      11.017  -0.918  -0.516  1.00  0.00     0.167 HD
HETATM   11  C19 UNL     1      11.484  -2.639  -3.281  1.00  0.00     0.179 A 
HETATM   12  F1  UNL     1      10.823  -3.093  -4.371  1.00  0.00    -0.201 F 
BRANCH   5  13
HETATM   13  C6  UNL     1      14.876  -2.751  -1.905  1.00  0.00    -0.062 C 
HETATM   14  C7  UNL     1      16.058  -2.994  -1.822  1.00  0.00    -0.085 C 
BRANCH  14  15
HETATM   15  C8  UNL     1      17.490  -3.262  -1.726  1.00  0.00     0.061 C 
HETATM   16  C9  UNL     1      18.251  -2.101  -1.140  1.00  0.00     0.035 C 
HETATM   17  C10 UNL     1      17.647  -4.417  -0.737  1.00  0.00     0.035 C 
BRANCH  15  18
HETATM   18  C11 UNL     1      17.986  -3.686  -3.031  1.00  0.00     0.060 A 
HETATM   19  N1  UNL     1      18.808  -4.730  -3.120  1.00  0.00    -0.352 N 
HETATM   20  C12 UNL     1      19.343  -5.238  -4.228  1.00  0.00     0.181 A 
ATOM     21  H1  UNL     1      19.054  -5.191  -2.244  1.00  0.00     0.166 HD
HETATM   22  N2  UNL     1      19.007  -4.615  -5.384  1.00  0.00    -0.345 N 
HETATM   23  C13 UNL     1      18.167  -3.532  -5.378  1.00  0.00     0.105 A 
ATOM     24  H2  UNL     1      19.384  -4.955  -6.268  1.00  0.00     0.167 HD
HETATM   25  S1  UNL     1      17.503  -2.481  -6.556  1.00  0.00    -0.065 SA
HETATM   26  C15 UNL     1      17.626  -3.023  -4.228  1.00  0.00     0.091 A 
HETATM   27  C14 UNL     1      16.586  -1.470  -5.522  1.00  0.00     0.140 A 
HETATM   28  N3  UNL     1      16.842  -1.995  -4.335  1.00  0.00    -0.356 N 
ATOM     29  H3  UNL     1      16.420  -1.590  -3.499  1.00  0.00     0.166 HD
ENDBRANCH  15  18
ENDBRANCH  14  15
ENDBRANCH   5  13
BRANCH   9  30
HETATM   30  N5  UNL     1       9.588  -1.674  -2.485  1.00  0.00    -0.383 N 
ATOM     31  H52 UNL     1       8.948  -2.419  -2.211  1.00  0.00     0.157 HD
ATOM     32  H51 UNL     1       9.238  -0.802  -2.882  1.00  0.00     0.157 HD
ENDBRANCH   9  30
ENDBRANCH   3   4
TORSDOF 5
ENDMDL
MODEL 2
REMARK VINA RESULT: -7.597697746      2.484      3.802
REMARK  5 active torsions:
REMARK  status: ('A' for Active; 'I' for Inactive)
REMARK    1  A    between atoms: C3_3  and  C4_4 
REMARK    2  A    between atoms: C5_5  and  C6_6 
REMARK    3  A    between atoms: C7_7  and  C8_8 
REMARK    4  A    between atoms: C8_8  and  C11_11 
REMARK    5  A    between atoms: C18_27  and  N5_28 
ROOT
HETATM    1  C1  UNL     1      11.871  -3.081  -0.252  1.00  0.00     0.112 C 
HETATM    2  C2  UNL     1      11.974  -3.754  -1.554  1.00  0.00    -0.105 C 
HETATM    3  C3  UNL     1      12.051  -4.295  -2.631  1.00  0.00    -0.062 C 
ENDROOT
BRANCH   3   4
HETATM    4  C4  UNL     1      12.144  -4.917  -3.923  1.00  0.00     0.080 A 
HETATM    5  C5  UNL     1      13.275  -4.766  -4.706  1.00  0.00     0.061 A 
HETATM    6  C16 UNL     1      13.408  -5.340  -5.943  1.00  0.00     0.027 A 
HETATM    7  C17 UNL     1      14.645  -5.148  -6.747  1.00  0.00     0.070 C 
HETATM    8  N4  UNL     1      12.395  -6.082  -6.414  1.00  0.00    -0.343 N 
HETATM    9  C18 UNL     1      11.274  -6.265  -5.701  1.00  0.00     0.140 A 
ATOM     10  H4  UNL     1      12.480  -6.516  -7.333  1.00  0.00     0.167 HD
HETATM   11  C19 UNL     1      11.125  -5.691  -4.450  1.00  0.00     0.179 A 
HETATM   12  F1  UNL     1      10.000  -5.866  -3.721  1.00  0.00    -0.201 F 
BRANCH   5  13
HETATM   13  C6  UNL     1      14.334  -3.954  -4.143  1.00  0.00    -0.062 C 
HETATM   14  C7  UNL     1      15.221  -3.291  -3.657  1.00  0.00    -0.085 C 
BRANCH  14  15
HETATM   15  C8  UNL     1      16.305  -2.512  -3.065  1.00  0.00     0.061 C 
HETATM   16  C9  UNL     1      15.946  -1.056  -2.914  1.00  0.00     0.035 C 
HETATM   17  C10 UNL     1      16.503  -3.051  -1.649  1.00  0.00     0.035 C 
BRANCH  15  18
HETATM   18  C11 UNL     1      17.527  -2.735  -3.831  1.00  0.00     0.060 A 
HETATM   19  N1  UNL     1      18.533  -3.418  -3.288  1.00  0.00    -0.352 N 
HETATM   20  C12 UNL     1      19.704  -3.705  -3.852  1.00  0.00     0.181 A 
ATOM     21  H1  UNL     1      18.391  -3.758  -2.338  1.00  0.00     0.166 HD
HETATM   22  N2  UNL     1      19.879  -3.245  -5.116  1.00  0.00    -0.345 N 
HETATM   23  C13 UNL     1      18.892  -2.533  -5.745  1.00  0.00     0.105 A 
ATOM     24  H2  UNL     1      20.754  -3.432  -5.604  1.00  0.00     0.167 HD
HETATM   25  S1  UNL     1      18.692  -1.790  -7.275  1.00  0.00    -0.065 SA
HETATM   26  C15 UNL     1      17.693  -2.247  -5.148  1.00  0.00     0.091 A 
HETATM   27  C14 UNL     1      17.111  -1.169  -7.063  1.00  0.00     0.140 A 
HETATM   28  N3  UNL     1      16.828  -1.566  -5.834  1.00  0.00    -0.356 N 
ATOM     29  H3  UNL     1      15.923  -1.334  -5.422  1.00  0.00     0.166 HD
ENDBRANCH  15  18
ENDBRANCH  14  15
ENDBRANCH   5  13
BRANCH   9  30
HETATM   30  N5  UNL     1      10.283  -6.972  -6.127  1.00  0.00    -0.383 N 
ATOM     31  H52 UNL     1      10.439  -7.978  -6.187  1.00  0.00     0.157 HD
ATOM     32  H51 UNL     1       9.387  -6.564  -6.394  1.00  0.00     0.157 HD
ENDBRANCH   9  30
ENDBRANCH   3   4
TORSDOF 5
ENDMDL
MODEL 3
REMARK VINA RESULT: -7.566352451      2.935      6.394
REMARK  5 active torsions:
REMARK  status: ('A' for Active; 'I' for Inactive)
REMARK    1  A    between atoms: C3_3  and  C4_4 
REMARK    2  A    between atoms: C5_5  and  C6_6 
REMARK    3  A    between atoms: C7_7  and  C8_8 
REMARK    4  A    between atoms: C8_8  and  C11_11 
REMARK    5  A    between atoms: C18_27  and  N5_28 
ROOT
HETATM    1  C1  UNL     1      14.321  -0.609  -7.281  1.00  0.00     0.112 C 
HETATM    2  C2  UNL     1      15.472  -1.260  -6.641  1.00  0.00    -0.105 C 
HETATM    3  C3  UNL     1      16.409  -1.808  -6.114  1.00  0.00    -0.062 C 
ENDROOT
BRANCH   3   4
HETATM    4  C4  UNL     1      17.518  -2.482  -5.494  1.00  0.00     0.080 A 
HETATM    5  C5  UNL     1      17.419  -2.973  -4.204  1.00  0.00     0.061 A 
HETATM    6  C16 UNL     1      18.448  -3.623  -3.572  1.00  0.00     0.027 A 
HETATM    7  C17 UNL     1      18.294  -4.133  -2.184  1.00  0.00     0.070 C 
HETATM    8  N4  UNL     1      19.601  -3.789  -4.238  1.00  0.00    -0.343 N 
HETATM    9  C18 UNL     1      19.755  -3.335  -5.490  1.00  0.00     0.140 A 
ATOM     10  H4  UNL     1      20.376  -4.270  -3.781  1.00  0.00     0.167 HD
HETATM   11  C19 UNL     1      18.725  -2.677  -6.140  1.00  0.00     0.179 A 
HETATM   12  F1  UNL     1      18.867  -2.213  -7.403  1.00  0.00    -0.201 F 
BRANCH   5  13
HETATM   13  C6  UNL     1      16.151  -2.763  -3.538  1.00  0.00    -0.062 C 
HETATM   14  C7  UNL     1      15.083  -2.579  -3.001  1.00  0.00    -0.085 C 
BRANCH  14  15
HETATM   15  C8  UNL     1      13.782  -2.365  -2.373  1.00  0.00     0.061 C 
HETATM   16  C9  UNL     1      13.905  -1.908  -0.943  1.00  0.00     0.035 C 
HETATM   17  C10 UNL     1      13.120  -1.215  -3.132  1.00  0.00     0.035 C 
BRANCH  15  18
HETATM   18  C11 UNL     1      12.970  -3.567  -2.534  1.00  0.00     0.060 A 
HETATM   19  N1  UNL     1      12.561  -4.238  -1.459  1.00  0.00    -0.352 N 
HETATM   20  C12 UNL     1      11.819  -5.343  -1.437  1.00  0.00     0.181 A 
ATOM     21  H1  UNL     1      12.847  -3.864  -0.554  1.00  0.00     0.166 HD
HETATM   22  N2  UNL     1      11.448  -5.828  -2.648  1.00  0.00    -0.345 N 
HETATM   23  C13 UNL     1      11.828  -5.196  -3.802  1.00  0.00     0.105 A 
ATOM     24  H2  UNL     1      10.879  -6.672  -2.699  1.00  0.00     0.167 HD
HETATM   25  S1  UNL     1      11.595  -5.449  -5.480  1.00  0.00    -0.065 SA
HETATM   26  C15 UNL     1      12.592  -4.059  -3.805  1.00  0.00     0.091 A 
HETATM   27  C14 UNL     1      12.475  -4.106  -6.074  1.00  0.00     0.140 A 
HETATM   28  N3  UNL     1      12.896  -3.541  -4.955  1.00  0.00    -0.356 N 
ATOM     29  H3  UNL     1      13.463  -2.694  -4.996  1.00  0.00     0.166 HD
ENDBRANCH  15  18
ENDBRANCH  14  15
ENDBRANCH   5  13
BRANCH   9  30
HETATM   30  N5  UNL     1      20.851  -3.479  -6.155  1.00  0.00    -0.383 N 
ATOM     31  H52 UNL     1      20.818  -4.121  -6.947  1.00  0.00     0.157 HD
ATOM     32  H51 UNL     1      21.712  -2.985  -5.916  1.00  0.00     0.157 HD
ENDBRANCH   9  30
ENDBRANCH   3   4
TORSDOF 5
ENDMDL
MODEL 4
REMARK VINA RESULT: -7.518489952      1.833      4.106
REMARK  5 active torsions:
REMARK  status: ('A' for Active; 'I' for Inactive)
REMARK    1  A    between atoms: C3_3  and  C4_4 
REMARK    2  A    between atoms: C5_5  and  C6_6 
REMARK    3  A    between atoms: C7_7  and  C8_8 
REMARK    4  A    between atoms: C8_8  and  C11_11 
REMARK    5  A    between atoms: C18_27  and  N5_28 
ROOT
HETATM    1  C1  UNL     1      17.545  -2.737  -1.812  1.00  0.00     0.112 C 
HETATM    2  C2  UNL     1      16.083  -2.603  -1.880  1.00  0.00    -0.105 C 
HETATM    3  C3  UNL     1      14.882  -2.496  -1.922  1.00  0.00    -0.062 C 
ENDROOT
BRANCH   3   4
HETATM    4  C4  UNL     1      13.451  -2.361  -1.948  1.00  0.00     0.080 A 
HETATM    5  C5  UNL     1      12.735  -2.606  -3.107  1.00  0.00     0.061 A 
HETATM    6  C16 UNL     1      11.371  -2.491  -3.179  1.00  0.00     0.027 A 
HETATM    7  C17 UNL     1      10.646  -2.764  -4.449  1.00  0.00     0.070 C 
HETATM    8  N4  UNL     1      10.703  -2.125  -2.075  1.00  0.00    -0.343 N 
HETATM    9  C18 UNL     1      11.342  -1.875  -0.923  1.00  0.00     0.140 A 
ATOM     10  H4  UNL     1       9.687  -2.035  -2.113  1.00  0.00     0.167 HD
HETATM   11  C19 UNL     1      12.719  -1.987  -0.835  1.00  0.00     0.179 A 
HETATM   12  F1  UNL     1      13.377  -1.737   0.319  1.00  0.00    -0.201 F 
BRANCH   5  13
HETATM   13  C6  UNL     1      13.512  -2.997  -4.265  1.00  0.00    -0.062 C 
HETATM   14  C7  UNL     1      14.143  -3.335  -5.239  1.00  0.00    -0.085 C 
BRANCH  14  15
HETATM   15  C8  UNL     1      14.885  -3.739  -6.430  1.00  0.00     0.061 C 
HETATM   16  C9  UNL     1      15.109  -5.228  -6.486  1.00  0.00     0.035 C 
HETATM   17  C10 UNL     1      14.001  -3.396  -7.628  1.00  0.00     0.035 C 
BRANCH  15  18
HETATM   18  C11 UNL     1      16.117  -2.960  -6.513  1.00  0.00     0.060 A 
HETATM   19  N1  UNL     1      16.137  -1.825  -7.208  1.00  0.00    -0.352 N 
HETATM   20  C12 UNL     1      17.172  -1.006  -7.378  1.00  0.00     0.181 A 
ATOM     21  H1  UNL     1      15.263  -1.552  -7.659  1.00  0.00     0.166 HD
HETATM   22  N2  UNL     1      18.326  -1.381  -6.773  1.00  0.00    -0.345 N 
HETATM   23  C13 UNL     1      18.389  -2.537  -6.040  1.00  0.00     0.105 A 
ATOM     24  H2  UNL     1      19.157  -0.797  -6.865  1.00  0.00     0.167 HD
HETATM   25  S1  UNL     1      19.591  -3.363  -5.142  1.00  0.00    -0.065 SA
HETATM   26  C15 UNL     1      17.313  -3.367  -5.876  1.00  0.00     0.091 A 
HETATM   27  C14 UNL     1      18.658  -4.700  -4.619  1.00  0.00     0.140 A 
HETATM   28  N3  UNL     1      17.481  -4.437  -5.162  1.00  0.00    -0.356 N 
ATOM     29  H3  UNL     1      16.701  -5.079  -5.018  1.00  0.00     0.166 HD
ENDBRANCH  15  18
ENDBRANCH  14  15
ENDBRANCH   5  13
BRANCH   9  30
HETATM   30  N5  UNL     1      10.727  -1.521   0.154  1.00  0.00    -0.383 N 
ATOM     31  H52 UNL     1       9.727  -1.343   0.066  1.00  0.00     0.157 HD
ATOM     32  H51 UNL     1      11.200  -1.421   1.053  1.00  0.00     0.157 HD
ENDBRANCH   9  30
ENDBRANCH   3   4
TORSDOF 5
ENDMDL
MODEL 5
REMARK VINA RESULT: -7.402040043      2.371      2.943
REMARK  5 active torsions:
REMARK  status: ('A' for Active; 'I' for Inactive)
REMARK    1  A    between atoms: C3_3  and  C4_4 
REMARK    2  A    between atoms: C5_5  and  C6_6 
REMARK    3  A    between atoms: C7_7  and  C8_8 
REMARK    4  A    between atoms: C8_8  and  C11_11 
REMARK    5  A    between atoms: C18_27  and  N5_28 
ROOT
HETATM    1  C1  UNL     1      15.294  -4.166  -8.023  1.00  0.00     0.112 C 
HETATM    2  C2  UNL     1      14.349  -4.507  -6.951  1.00  0.00    -0.105 C 
HETATM    3  C3  UNL     1      13.563  -4.791  -6.081  1.00  0.00    -0.062 C 
ENDROOT
BRANCH   3   4
HETATM    4  C4  UNL     1      12.615  -5.145  -5.059  1.00  0.00     0.080 A 
HETATM    5  C5  UNL     1      12.759  -4.680  -3.764  1.00  0.00     0.061 A 
HETATM    6  C16 UNL     1      11.881  -4.990  -2.758  1.00  0.00     0.027 A 
HETATM    7  C17 UNL     1      12.079  -4.465  -1.381  1.00  0.00     0.070 C 
HETATM    8  N4  UNL     1      10.836  -5.780  -3.045  1.00  0.00    -0.343 N 
HETATM    9  C18 UNL     1      10.644  -6.261  -4.283  1.00  0.00     0.140 A 
ATOM     10  H4  UNL     1      10.174  -6.020  -2.307  1.00  0.00     0.167 HD
HETATM   11  C19 UNL     1      11.522  -5.956  -5.308  1.00  0.00     0.179 A 
HETATM   12  F1  UNL     1      11.342  -6.435  -6.560  1.00  0.00    -0.201 F 
BRANCH   5  13
HETATM   13  C6  UNL     1      13.907  -3.832  -3.516  1.00  0.00    -0.062 C 
HETATM   14  C7  UNL     1      14.856  -3.117  -3.290  1.00  0.00    -0.085 C 
BRANCH  14  15
HETATM   15  C8  UNL     1      16.002  -2.263  -2.992  1.00  0.00     0.061 C 
HETATM   16  C9  UNL     1      15.615  -0.814  -2.853  1.00  0.00     0.035 C 
HETATM   17  C10 UNL     1      16.522  -2.699  -1.622  1.00  0.00     0.035 C 
BRANCH  15  18
HETATM   18  C11 UNL     1      17.043  -2.496  -3.989  1.00  0.00     0.060 A 
HETATM   19  N1  UNL     1      18.075  -3.284  -3.696  1.00  0.00    -0.352 N 
HETATM   20  C12 UNL     1      19.098  -3.595  -4.489  1.00  0.00     0.181 A 
ATOM     21  H1  UNL     1      18.084  -3.695  -2.762  1.00  0.00     0.166 HD
HETATM   22  N2  UNL     1      19.074  -3.041  -5.726  1.00  0.00    -0.345 N 
HETATM   23  C13 UNL     1      18.046  -2.218  -6.105  1.00  0.00     0.105 A 
ATOM     24  H2  UNL     1      19.828  -3.240  -6.383  1.00  0.00     0.167 HD
HETATM   25  S1  UNL     1      17.628  -1.336  -7.513  1.00  0.00    -0.065 SA
HETATM   26  C15 UNL     1      17.002  -1.909  -5.275  1.00  0.00     0.091 A 
HETATM   27  C14 UNL     1      16.165  -0.638  -6.963  1.00  0.00     0.140 A 
HETATM   28  N3  UNL     1      16.081  -1.119  -5.734  1.00  0.00    -0.356 N 
ATOM     29  H3  UNL     1      15.288  -0.868  -5.144  1.00  0.00     0.166 HD
ENDBRANCH  15  18
ENDBRANCH  14  15
ENDBRANCH   5  13
BRANCH   9  30
HETATM   30  N5  UNL     1       9.650  -7.023  -4.589  1.00  0.00    -0.383 N 
ATOM     31  H52 UNL     1       9.183  -7.491  -3.813  1.00  0.00     0.157 HD
ATOM     32  H51 UNL     1       9.334  -7.160  -5.550  1.00  0.00     0.157 HD
ENDBRANCH   9  30
ENDBRANCH   3   4
TORSDOF 5
ENDMDL
