MODEL 1
REMARK VINA RESULT: -6.171205309      0.000      0.000
REMARK  2 active torsions:
REMARK  status: ('A' for Active; 'I' for Inactive)
REMARK       I    between atoms: N3_16  and  C10_17 
REMARK    1  A    between atoms: C10_17  and  O2_19 
REMARK    2  A    between atoms: O2_19  and  C11_20 
ROOT
HETATM    1  C1  UNL     1      18.052  -3.679  -1.930  1.00  0.00     0.022 C 
HETATM    2  C2  UNL     1      17.695  -3.046  -3.266  1.00  0.00     0.056 C 
HETATM    3  C3  UNL     1      18.844  -3.412  -4.216  1.00  0.00     0.043 C 
HETATM    4  C4  UNL     1      18.263  -3.289  -5.620  1.00  0.00     0.233 C 
HETATM    5  N1  UNL     1      17.606  -2.004  -5.672  1.00  0.00    -0.075 N 
ATOM      6  H11 UNL     1      18.014  -1.362  -4.992  1.00  0.00     0.277 HD
ATOM      7  H12 UNL     1      16.659  -2.068  -5.298  1.00  0.00     0.277 HD
HETATM    8  C5  UNL     1      17.596  -1.418  -6.983  1.00  0.00     0.233 C 
HETATM    9  C6  UNL     1      17.174  -2.371  -8.060  1.00  0.00     0.055 C 
HETATM   10  C7  UNL     1      15.738  -2.796  -7.946  1.00  0.00     0.234 C 
HETATM   11  N2  UNL     1      14.810  -1.710  -7.890  1.00  0.00    -0.074 N 
ATOM     12  H21 UNL     1      14.389  -1.537  -8.802  1.00  0.00     0.277 HD
ATOM     13  H22 UNL     1      15.290  -0.819  -7.762  1.00  0.00     0.277 HD
HETATM   14  C8  UNL     1      13.798  -1.909  -6.875  1.00  0.00     0.252 C 
HETATM   15  C9  UNL     1      13.808  -0.801  -5.845  1.00  0.00     0.156 C 
HETATM   16  N3  UNL     1      13.212  -1.216  -4.596  1.00  0.00    -0.317 N 
HETATM   17  C10 UNL     1      11.823  -1.493  -4.565  1.00  0.00     0.364 C 
HETATM   18  O1  UNL     1      11.106  -1.384  -5.597  1.00  0.00    -0.238 OA
HETATM   19  C15 UNL     1      14.038  -1.332  -3.438  1.00  0.00     0.214 C 
HETATM   20  S1  UNL     1      14.442  -3.046  -3.027  1.00  0.00    -0.077 SA
HETATM   21  S2  UNL     1      16.192  -3.728  -3.965  1.00  0.00    -0.091 SA
ENDROOT
BRANCH  17  22
HETATM   22  O2  UNL     1      11.162  -1.898  -3.409  1.00  0.00    -0.294 OA
BRANCH  22  23
HETATM   23  C11 UNL     1      10.382  -0.999  -2.642  1.00  0.00     0.061 C 
HETATM   24  C12 UNL     1      10.750   0.442  -2.895  1.00  0.00     0.046 C 
HETATM   25  C13 UNL     1      10.712  -1.268  -1.167  1.00  0.00     0.046 C 
HETATM   26  C14 UNL     1       8.909  -1.209  -2.799  1.00  0.00     0.046 C 
ENDBRANCH  22  23
ENDBRANCH  17  22
TORSDOF 2
ENDMDL
MODEL 2
REMARK VINA RESULT: -6.146283396      1.431      1.856
REMARK  2 active torsions:
REMARK  status: ('A' for Active; 'I' for Inactive)
REMARK       I    between atoms: N3_16  and  C10_17 
REMARK    1  A    between atoms: C10_17  and  O2_19 
REMARK    2  A    between atoms: O2_19  and  C11_20 
ROOT
HETATM    1  C1  UNL     1      19.078  -3.157  -2.394  1.00  0.00     0.022 C 
HETATM    2  C2  UNL     1      18.216  -3.000  -3.638  1.00  0.00     0.056 C 
HETATM    3  C3  UNL     1      18.844  -3.919  -4.694  1.00  0.00     0.043 C 
HETATM    4  C4  UNL     1      17.731  -4.202  -5.697  1.00  0.00     0.233 C 
HETATM    5  N1  UNL     1      17.162  -2.919  -6.038  1.00  0.00    -0.075 N 
ATOM      6  H11 UNL     1      17.841  -2.173  -5.894  1.00  0.00     0.277 HD
ATOM      7  H12 UNL     1      16.458  -2.643  -5.352  1.00  0.00     0.277 HD
HETATM    8  C5  UNL     1      16.623  -2.867  -7.368  1.00  0.00     0.233 C 
HETATM    9  C6  UNL     1      15.751  -4.039  -7.706  1.00  0.00     0.055 C 
HETATM   10  C7  UNL     1      14.483  -4.085  -6.905  1.00  0.00     0.234 C 
HETATM   11  N2  UNL     1      13.705  -2.886  -6.973  1.00  0.00    -0.074 N 
ATOM     12  H21 UNL     1      12.946  -2.977  -7.648  1.00  0.00     0.277 HD
ATOM     13  H22 UNL     1      14.228  -2.132  -7.418  1.00  0.00     0.277 HD
HETATM   14  C8  UNL     1      13.207  -2.484  -5.675  1.00  0.00     0.252 C 
HETATM   15  C9  UNL     1      13.691  -1.103  -5.291  1.00  0.00     0.156 C 
HETATM   16  N3  UNL     1      13.661  -0.897  -3.861  1.00  0.00    -0.317 N 
HETATM   17  C10 UNL     1      12.405  -0.848  -3.208  1.00  0.00     0.364 C 
HETATM   18  O1  UNL     1      11.325  -0.980  -3.845  1.00  0.00    -0.238 OA
HETATM   19  C15 UNL     1      14.893  -0.749  -3.155  1.00  0.00     0.214 C 
HETATM   20  S1  UNL     1      15.368  -2.236  -2.243  1.00  0.00    -0.077 SA
HETATM   21  S2  UNL     1      16.534  -3.563  -3.378  1.00  0.00    -0.091 SA
ENDROOT
BRANCH  17  22
HETATM   22  O2  UNL     1      12.277  -0.654  -1.835  1.00  0.00    -0.294 OA
BRANCH  22  23
HETATM   23  C11 UNL     1      11.875  -1.698  -0.968  1.00  0.00     0.061 C 
HETATM   24  C12 UNL     1      10.446  -1.545  -0.507  1.00  0.00     0.046 C 
HETATM   25  C13 UNL     1      12.742  -1.590   0.294  1.00  0.00     0.046 C 
HETATM   26  C14 UNL     1      12.108  -3.064  -1.536  1.00  0.00     0.046 C 
ENDBRANCH  22  23
ENDBRANCH  17  22
TORSDOF 2
ENDMDL
MODEL 3
REMARK VINA RESULT: -6.076333448      2.761      6.659
REMARK  2 active torsions:
REMARK  status: ('A' for Active; 'I' for Inactive)
REMARK       I    between atoms: N3_16  and  C10_17 
REMARK    1  A    between atoms: C10_17  and  O2_19 
REMARK    2  A    between atoms: O2_19  and  C11_20 
ROOT
HETATM    1  C1  UNL     1      12.994  -1.193   0.365  1.00  0.00     0.022 C 
HETATM    2  C2  UNL     1      12.552  -1.825  -0.946  1.00  0.00     0.056 C 
HETATM    3  C3  UNL     1      11.051  -1.530  -1.062  1.00  0.00     0.043 C 
HETATM    4  C4  UNL     1      10.729  -1.643  -2.547  1.00  0.00     0.233 C 
HETATM    5  N1  UNL     1      11.300  -2.894  -2.988  1.00  0.00    -0.075 N 
ATOM      6  H11 UNL     1      11.386  -3.546  -2.208  1.00  0.00     0.277 HD
ATOM      7  H12 UNL     1      12.286  -2.778  -3.222  1.00  0.00     0.277 HD
HETATM    8  C5  UNL     1      10.586  -3.498  -4.078  1.00  0.00     0.233 C 
HETATM    9  C6  UNL     1      10.270  -2.539  -5.187  1.00  0.00     0.055 C 
HETATM   10  C7  UNL     1      11.489  -2.042  -5.907  1.00  0.00     0.234 C 
HETATM   11  N2  UNL     1      12.334  -3.080  -6.411  1.00  0.00    -0.074 N 
ATOM     12  H21 UNL     1      12.165  -3.244  -7.403  1.00  0.00     0.277 HD
ATOM     13  H22 UNL     1      12.057  -3.991  -6.047  1.00  0.00     0.277 HD
HETATM   14  C8  UNL     1      13.734  -2.816  -6.155  1.00  0.00     0.252 C 
HETATM   15  C9  UNL     1      14.368  -3.910  -5.323  1.00  0.00     0.156 C 
HETATM   16  N3  UNL     1      15.551  -3.449  -4.633  1.00  0.00    -0.317 N 
HETATM   17  C10 UNL     1      16.692  -3.103  -5.397  1.00  0.00     0.364 C 
HETATM   18  O1  UNL     1      16.695  -3.189  -6.655  1.00  0.00    -0.238 OA
HETATM   19  C15 UNL     1      15.531  -3.357  -3.209  1.00  0.00     0.214 C 
HETATM   20  S1  UNL     1      15.353  -1.660  -2.611  1.00  0.00    -0.077 SA
HETATM   21  S2  UNL     1      13.350  -1.079  -2.367  1.00  0.00    -0.091 SA
ENDROOT
BRANCH  17  22
HETATM   22  O2  UNL     1      17.876  -2.649  -4.820  1.00  0.00    -0.294 OA
BRANCH  22  23
HETATM   23  C11 UNL     1      19.008  -3.487  -4.686  1.00  0.00     0.061 C 
HETATM   24  C12 UNL     1      18.640  -4.950  -4.636  1.00  0.00     0.046 C 
HETATM   25  C13 UNL     1      19.645  -3.164  -3.327  1.00  0.00     0.046 C 
HETATM   26  C14 UNL     1      20.058  -3.237  -5.724  1.00  0.00     0.046 C 
ENDBRANCH  22  23
ENDBRANCH  17  22
TORSDOF 2
ENDMDL
MODEL 4
REMARK VINA RESULT: -6.026880429      3.003      7.071
REMARK  2 active torsions:
REMARK  status: ('A' for Active; 'I' for Inactive)
REMARK       I    between atoms: N3_16  and  C10_17 
REMARK    1  A    between atoms: C10_17  and  O2_19 
REMARK    2  A    between atoms: O2_19  and  C11_20 
ROOT
HETATM    1  C1  UNL     1      12.210  -3.605  -7.898  1.00  0.00     0.022 C 
HETATM    2  C2  UNL     1      12.296  -2.683  -6.691  1.00  0.00     0.056 C 
HETATM    3  C3  UNL     1      10.892  -2.084  -6.527  1.00  0.00     0.043 C 
HETATM    4  C4  UNL     1      10.810  -1.637  -5.072  1.00  0.00     0.233 C 
HETATM    5  N1  UNL     1      12.006  -0.867  -4.820  1.00  0.00    -0.075 N 
ATOM      6  H11 UNL     1      12.368  -0.469  -5.686  1.00  0.00     0.277 HD
ATOM      7  H12 UNL     1      12.784  -1.480  -4.576  1.00  0.00     0.277 HD
HETATM    8  C5  UNL     1      11.831   0.154  -3.825  1.00  0.00     0.233 C 
HETATM    9  C6  UNL     1      11.136  -0.331  -2.588  1.00  0.00     0.055 C 
HETATM   10  C7  UNL     1      11.941  -1.330  -1.809  1.00  0.00     0.234 C 
HETATM   11  N2  UNL     1      13.254  -0.880  -1.464  1.00  0.00    -0.074 N 
ATOM     12  H21 UNL     1      13.286  -0.534  -0.505  1.00  0.00     0.277 HD
ATOM     13  H22 UNL     1      13.490  -0.018  -1.955  1.00  0.00     0.277 HD
HETATM   14  C8  UNL     1      14.256  -1.901  -1.685  1.00  0.00     0.252 C 
HETATM   15  C9  UNL     1      15.312  -1.448  -2.668  1.00  0.00     0.156 C 
HETATM   16  N3  UNL     1      15.989  -2.563  -3.290  1.00  0.00    -0.317 N 
HETATM   17  C10 UNL     1      16.815  -3.389  -2.488  1.00  0.00     0.364 C 
HETATM   18  O1  UNL     1      16.969  -3.169  -1.256  1.00  0.00    -0.238 OA
HETATM   19  C15 UNL     1      15.804  -2.796  -4.686  1.00  0.00     0.214 C 
HETATM   20  S1  UNL     1      14.679  -4.169  -5.030  1.00  0.00    -0.077 SA
HETATM   21  S2  UNL     1      12.672  -3.571  -5.179  1.00  0.00    -0.091 SA
ENDROOT
BRANCH  17  22
HETATM   22  O2  UNL     1      17.506  -4.485  -2.998  1.00  0.00    -0.294 OA
BRANCH  22  23
HETATM   23  C11 UNL     1      18.863  -4.394  -3.391  1.00  0.00     0.061 C 
HETATM   24  C12 UNL     1      19.045  -4.572  -4.878  1.00  0.00     0.046 C 
HETATM   25  C13 UNL     1      19.598  -5.568  -2.730  1.00  0.00     0.046 C 
HETATM   26  C14 UNL     1      19.535  -3.143  -2.918  1.00  0.00     0.046 C 
ENDBRANCH  22  23
ENDBRANCH  17  22
TORSDOF 2
ENDMDL
MODEL 5
REMARK VINA RESULT: -5.978288675      2.805      6.335
REMARK  2 active torsions:
REMARK  status: ('A' for Active; 'I' for Inactive)
REMARK       I    between atoms: N3_16  and  C10_17 
REMARK    1  A    between atoms: C10_17  and  O2_19 
REMARK    2  A    between atoms: O2_19  and  C11_20 
ROOT
HETATM    1  C1  UNL     1      15.488  -0.960  -9.521  1.00  0.00     0.022 C 
HETATM    2  C2  UNL     1      14.549  -0.707  -8.351  1.00  0.00     0.056 C 
HETATM    3  C3  UNL     1      13.205  -0.314  -8.978  1.00  0.00     0.043 C 
HETATM    4  C4  UNL     1      12.159  -0.603  -7.907  1.00  0.00     0.233 C 
HETATM    5  N1  UNL     1      12.647   0.009  -6.694  1.00  0.00    -0.075 N 
ATOM      6  H11 UNL     1      13.279   0.781  -6.907  1.00  0.00     0.277 HD
ATOM      7  H12 UNL     1      13.296  -0.613  -6.212  1.00  0.00     0.277 HD
HETATM    8  C5  UNL     1      11.601   0.439  -5.808  1.00  0.00     0.233 C 
HETATM    9  C6  UNL     1      10.539  -0.597  -5.593  1.00  0.00     0.055 C 
HETATM   10  C7  UNL     1      11.032  -1.809  -4.857  1.00  0.00     0.234 C 
HETATM   11  N2  UNL     1      11.663  -1.518  -3.608  1.00  0.00    -0.074 N 
ATOM     12  H21 UNL     1      11.021  -1.659  -2.828  1.00  0.00     0.277 HD
ATOM     13  H22 UNL     1      11.829  -0.517  -3.502  1.00  0.00     0.277 HD
HETATM   14  C8  UNL     1      12.884  -2.273  -3.424  1.00  0.00     0.252 C 
HETATM   15  C9  UNL     1      14.082  -1.368  -3.238  1.00  0.00     0.156 C 
HETATM   16  N3  UNL     1      15.321  -2.034  -3.570  1.00  0.00    -0.317 N 
HETATM   17  C10 UNL     1      15.759  -3.103  -2.749  1.00  0.00     0.364 C 
HETATM   18  O1  UNL     1      15.094  -3.479  -1.746  1.00  0.00    -0.238 OA
HETATM   19  C15 UNL     1      16.061  -1.595  -4.709  1.00  0.00     0.214 C 
HETATM   20  S1  UNL     1      15.882  -2.694  -6.134  1.00  0.00    -0.077 SA
HETATM   21  S2  UNL     1      14.266  -2.182  -7.372  1.00  0.00    -0.091 SA
ENDROOT
BRANCH  17  22
HETATM   22  O2  UNL     1      16.938  -3.803  -2.991  1.00  0.00    -0.294 OA
BRANCH  22  23
HETATM   23  C11 UNL     1      18.066  -3.677  -2.145  1.00  0.00     0.061 C 
HETATM   24  C12 UNL     1      18.031  -2.412  -1.323  1.00  0.00     0.046 C 
HETATM   25  C13 UNL     1      19.296  -3.558  -3.055  1.00  0.00     0.046 C 
HETATM   26  C14 UNL     1      18.289  -4.873  -1.272  1.00  0.00     0.046 C 
ENDBRANCH  22  23
ENDBRANCH  17  22
TORSDOF 2
ENDMDL
