MODEL 1
REMARK VINA RESULT: -7.620155641      0.000      0.000
REMARK  13 active torsions:
REMARK  status: ('A' for Active; 'I' for Inactive)
REMARK    1  A    between atoms: C3_3  and  C4_4 
REMARK    2  A    between atoms: C4_4  and  N1_5 
REMARK    3  A    between atoms: N1_5  and  C5_6 
REMARK    4  A    between atoms: C6_7  and  O1_8 
REMARK    5  A    between atoms: C6_7  and  N2_10 
REMARK    6  A    between atoms: N2_10  and  N3_12 
REMARK       I    between atoms: N3_12  and  C7_14 
REMARK    7  A    between atoms: C7_14  and  C8_16 
REMARK    8  A    between atoms: C8_16  and  C9_17 
REMARK    9  A    between atoms: C8_16  and  N5_24 
REMARK   10  A    between atoms: C9_17  and  C10_18 
REMARK   11  A    between atoms: C10_18  and  C11_19 
REMARK   12  A    between atoms: C11_19  and  N4_21 
REMARK       I    between atoms: N5_24  and  C14_25 
REMARK   13  A    between atoms: C17_29  and  N6_30 
REMARK       I    between atoms: N6_30  and  C18_31 
ROOT
HETATM    1  C1  UNL     1      20.075 -12.839  18.156  1.00  0.00     0.112 C 
HETATM    2  C2  UNL     1      19.964 -13.324  19.538  1.00  0.00    -0.109 C 
HETATM    3  C3  UNL     1      19.922 -13.714  20.661  1.00  0.00    -0.076 C 
ENDROOT
BRANCH   3   4
HETATM    4  C4  UNL     1      19.944 -14.190  22.043  1.00  0.00     0.364 C 
BRANCH   4   5
HETATM    5  N1  UNL     1      19.238 -15.447  22.246  1.00  0.00     0.054 N 
HETATM    6  C16 UNL     1      18.987 -15.697  23.642  1.00  0.00     0.321 C 
HETATM    7  C17 UNL     1      20.270 -16.386  24.166  1.00  0.00     0.288 C 
HETATM    8  C20 UNL     1      20.807 -17.009  22.948  1.00  0.00     0.279 C 
HETATM    9  O5  UNL     1      21.740 -17.865  22.886  1.00  0.00    -0.268 OA
HETATM   10  N7  UNL     1      20.093 -16.501  21.843  1.00  0.00    -0.177 N 
ATOM     11  H7  UNL     1      20.180 -16.845  20.886  1.00  0.00     0.197 HD
BRANCH   5  12
HETATM   12  C5  UNL     1      18.064 -15.447  21.425  1.00  0.00     0.287 C 
HETATM   13  C6  UNL     1      17.172 -16.586  21.429  1.00  0.00     0.181 C 
BRANCH  13  14
HETATM   14  O1  UNL     1      17.539 -17.601  22.216  1.00  0.00    -0.344 OA
ATOM     15  H1  UNL     1      18.259 -18.129  21.892  1.00  0.00     0.219 HD
ENDBRANCH  13  14
BRANCH  13  16
HETATM   16  N2  UNL     1      16.032 -16.781  20.701  1.00  0.00    -0.276 N 
ATOM     17  H2  UNL     1      15.959 -17.723  20.318  1.00  0.00     0.189 HD
BRANCH  16  18
HETATM   18  N3  UNL     1      15.004 -16.014  20.388  1.00  0.00    -0.265 N 
HETATM   19  C7  UNL     1      13.640 -15.887  20.712  1.00  0.00     0.272 C 
HETATM   20  O2  UNL     1      13.071 -16.664  21.496  1.00  0.00    -0.268 OA
ATOM     21  H3  UNL     1      15.281 -15.303  19.710  1.00  0.00     0.190 HD
BRANCH  19  22
HETATM   22  C8  UNL     1      12.898 -14.737  20.069  1.00  0.00     0.260 C 
BRANCH  22  23
HETATM   23  C9  UNL     1      12.117 -14.008  21.175  1.00  0.00     0.056 C 
BRANCH  23  24
HETATM   24  C10 UNL     1      13.236 -13.320  22.041  1.00  0.00     0.073 C 
BRANCH  24  25
HETATM   25  C11 UNL     1      12.551 -12.109  22.580  1.00  0.00     0.074 C 
HETATM   26  S1  UNL     1      11.326 -12.360  23.662  1.00  0.00    -0.066 SA
BRANCH  25  27
HETATM   27  N4  UNL     1      12.891 -10.806  22.248  1.00  0.00    -0.384 N 
HETATM   28  C12 UNL     1      12.864  -9.766  23.286  1.00  0.00     0.149 C 
HETATM   29  C13 UNL     1      13.282 -10.390  20.931  1.00  0.00     0.149 C 
ENDBRANCH  25  27
ENDBRANCH  24  25
ENDBRANCH  23  24
ENDBRANCH  22  23
BRANCH  22  30
HETATM   30  N5  UNL     1      13.744 -13.881  19.393  1.00  0.00    -0.400 NA
HETATM   31  C14 UNL     1      14.574 -13.036  18.725  1.00  0.00     0.283 C 
HETATM   32  C15 UNL     1      15.999 -12.854  19.307  1.00  0.00     0.134 C 
HETATM   33  O3  UNL     1      14.403 -12.365  17.698  1.00  0.00    -0.258 OA
ENDBRANCH  22  30
ENDBRANCH  19  22
ENDBRANCH  16  18
ENDBRANCH  13  16
ENDBRANCH   5  12
BRANCH   7  34
HETATM   34  N6  UNL     1      21.118 -15.426  24.777  1.00  0.00    -0.398 NA
HETATM   35  C18 UNL     1      21.967 -14.557  25.290  1.00  0.00     0.283 C 
HETATM   36  C19 UNL     1      21.348 -13.838  26.610  1.00  0.00     0.134 C 
HETATM   37  O4  UNL     1      23.088 -14.071  25.150  1.00  0.00    -0.258 OA
ENDBRANCH   7  34
ENDBRANCH   4   5
ENDBRANCH   3   4
TORSDOF 13
ENDMDL
MODEL 2
REMARK VINA RESULT: -7.615550647      1.385      1.598
REMARK  13 active torsions:
REMARK  status: ('A' for Active; 'I' for Inactive)
REMARK    1  A    between atoms: C3_3  and  C4_4 
REMARK    2  A    between atoms: C4_4  and  N1_5 
REMARK    3  A    between atoms: N1_5  and  C5_6 
REMARK    4  A    between atoms: C6_7  and  O1_8 
REMARK    5  A    between atoms: C6_7  and  N2_10 
REMARK    6  A    between atoms: N2_10  and  N3_12 
REMARK       I    between atoms: N3_12  and  C7_14 
REMARK    7  A    between atoms: C7_14  and  C8_16 
REMARK    8  A    between atoms: C8_16  and  C9_17 
REMARK    9  A    between atoms: C8_16  and  N5_24 
REMARK   10  A    between atoms: C9_17  and  C10_18 
REMARK   11  A    between atoms: C10_18  and  C11_19 
REMARK   12  A    between atoms: C11_19  and  N4_21 
REMARK       I    between atoms: N5_24  and  C14_25 
REMARK   13  A    between atoms: C17_29  and  N6_30 
REMARK       I    between atoms: N6_30  and  C18_31 
ROOT
HETATM    1  C1  UNL     1      19.959 -13.043  18.689  1.00  0.00     0.112 C 
HETATM    2  C2  UNL     1      20.110 -13.576  20.049  1.00  0.00    -0.109 C 
HETATM    3  C3  UNL     1      20.194 -13.983  21.165  1.00  0.00    -0.076 C 
ENDROOT
BRANCH   3   4
HETATM    4  C4  UNL     1      20.236 -14.442  22.552  1.00  0.00     0.364 C 
BRANCH   4   5
HETATM    5  N1  UNL     1      19.527 -15.693  22.780  1.00  0.00     0.054 N 
HETATM    6  C16 UNL     1      19.880 -16.282  24.047  1.00  0.00     0.321 C 
HETATM    7  C17 UNL     1      21.157 -17.109  23.766  1.00  0.00     0.288 C 
HETATM    8  C20 UNL     1      21.018 -17.418  22.335  1.00  0.00     0.279 C 
HETATM    9  O5  UNL     1      21.706 -18.252  21.672  1.00  0.00    -0.268 OA
HETATM   10  N7  UNL     1      19.969 -16.631  21.816  1.00  0.00    -0.177 N 
ATOM     11  H7  UNL     1      19.582 -16.725  20.877  1.00  0.00     0.197 HD
BRANCH   5  12
HETATM   12  C5  UNL     1      18.124 -15.459  22.608  1.00  0.00     0.287 C 
HETATM   13  C6  UNL     1      17.180 -16.546  22.755  1.00  0.00     0.181 C 
BRANCH  13  14
HETATM   14  O1  UNL     1      17.716 -17.739  23.033  1.00  0.00    -0.344 OA
ATOM     15  H1  UNL     1      17.387 -18.464  22.516  1.00  0.00     0.219 HD
ENDBRANCH  13  14
BRANCH  13  16
HETATM   16  N2  UNL     1      15.823 -16.525  22.603  1.00  0.00    -0.276 N 
ATOM     17  H2  UNL     1      15.346 -17.226  23.170  1.00  0.00     0.189 HD
BRANCH  16  18
HETATM   18  N3  UNL     1      14.995 -15.794  21.880  1.00  0.00    -0.265 N 
HETATM   19  C7  UNL     1      13.612 -15.695  21.630  1.00  0.00     0.272 C 
HETATM   20  O2  UNL     1      12.789 -16.468  22.149  1.00  0.00    -0.268 OA
ATOM     21  H3  UNL     1      15.508 -15.093  21.346  1.00  0.00     0.190 HD
BRANCH  19  22
HETATM   22  C8  UNL     1      13.171 -14.582  20.707  1.00  0.00     0.260 C 
BRANCH  22  23
HETATM   23  C9  UNL     1      12.224 -13.666  21.498  1.00  0.00     0.056 C 
BRANCH  23  24
HETATM   24  C10 UNL     1      13.164 -12.956  22.542  1.00  0.00     0.073 C 
BRANCH  24  25
HETATM   25  C11 UNL     1      12.561 -11.597  22.672  1.00  0.00     0.074 C 
HETATM   26  S1  UNL     1      12.722 -10.580  21.378  1.00  0.00    -0.066 SA
BRANCH  25  27
HETATM   27  N4  UNL     1      11.867 -11.154  23.788  1.00  0.00    -0.384 N 
HETATM   28  C12 UNL     1      11.987  -9.749  24.201  1.00  0.00     0.149 C 
HETATM   29  C13 UNL     1      11.015 -11.988  24.586  1.00  0.00     0.149 C 
ENDBRANCH  25  27
ENDBRANCH  24  25
ENDBRANCH  23  24
ENDBRANCH  22  23
BRANCH  22  30
HETATM   30  N5  UNL     1      14.240 -13.881  20.185  1.00  0.00    -0.400 NA
HETATM   31  C14 UNL     1      15.291 -13.186  19.672  1.00  0.00     0.283 C 
HETATM   32  C15 UNL     1      16.474 -14.020  19.118  1.00  0.00     0.134 C 
HETATM   33  O3  UNL     1      15.486 -11.968  19.554  1.00  0.00    -0.258 OA
ENDBRANCH  22  30
ENDBRANCH  19  22
ENDBRANCH  16  18
ENDBRANCH  13  16
ENDBRANCH   5  12
BRANCH   7  34
HETATM   34  N6  UNL     1      22.307 -16.354  24.111  1.00  0.00    -0.398 NA
HETATM   35  C18 UNL     1      23.423 -15.725  24.428  1.00  0.00     0.283 C 
HETATM   36  C19 UNL     1      23.131 -14.175  24.826  1.00  0.00     0.134 C 
HETATM   37  O4  UNL     1      24.638 -15.868  24.547  1.00  0.00    -0.258 OA
ENDBRANCH   7  34
ENDBRANCH   4   5
ENDBRANCH   3   4
TORSDOF 13
ENDMDL
MODEL 3
REMARK VINA RESULT: -7.553035455      2.565      4.426
REMARK  13 active torsions:
REMARK  status: ('A' for Active; 'I' for Inactive)
REMARK    1  A    between atoms: C3_3  and  C4_4 
REMARK    2  A    between atoms: C4_4  and  N1_5 
REMARK    3  A    between atoms: N1_5  and  C5_6 
REMARK    4  A    between atoms: C6_7  and  O1_8 
REMARK    5  A    between atoms: C6_7  and  N2_10 
REMARK    6  A    between atoms: N2_10  and  N3_12 
REMARK       I    between atoms: N3_12  and  C7_14 
REMARK    7  A    between atoms: C7_14  and  C8_16 
REMARK    8  A    between atoms: C8_16  and  C9_17 
REMARK    9  A    between atoms: C8_16  and  N5_24 
REMARK   10  A    between atoms: C9_17  and  C10_18 
REMARK   11  A    between atoms: C10_18  and  C11_19 
REMARK   12  A    between atoms: C11_19  and  N4_21 
REMARK       I    between atoms: N5_24  and  C14_25 
REMARK   13  A    between atoms: C17_29  and  N6_30 
REMARK       I    between atoms: N6_30  and  C18_31 
ROOT
HETATM    1  C1  UNL     1      20.952 -13.732  27.176  1.00  0.00     0.112 C 
HETATM    2  C2  UNL     1      20.900 -13.919  25.720  1.00  0.00    -0.109 C 
HETATM    3  C3  UNL     1      20.874 -14.115  24.546  1.00  0.00    -0.076 C 
ENDROOT
BRANCH   3   4
HETATM    4  C4  UNL     1      20.869 -14.424  23.118  1.00  0.00     0.364 C 
BRANCH   4   5
HETATM    5  N1  UNL     1      19.695 -15.165  22.680  1.00  0.00     0.054 N 
HETATM    6  C16 UNL     1      19.389 -16.254  23.573  1.00  0.00     0.321 C 
HETATM    7  C17 UNL     1      20.261 -17.435  23.084  1.00  0.00     0.288 C 
HETATM    8  C20 UNL     1      20.453 -17.111  21.663  1.00  0.00     0.279 C 
HETATM    9  O5  UNL     1      20.926 -17.879  20.770  1.00  0.00    -0.268 OA
HETATM   10  N7  UNL     1      20.005 -15.792  21.448  1.00  0.00    -0.177 N 
ATOM     11  H7  UNL     1      19.916 -15.349  20.533  1.00  0.00     0.197 HD
BRANCH   5  12
HETATM   12  C5  UNL     1      18.618 -14.240  22.485  1.00  0.00     0.287 C 
HETATM   13  C6  UNL     1      18.694 -13.242  21.441  1.00  0.00     0.181 C 
BRANCH  13  14
HETATM   14  O1  UNL     1      19.820 -13.248  20.721  1.00  0.00    -0.344 OA
ATOM     15  H1  UNL     1      19.707 -13.379  19.787  1.00  0.00     0.219 HD
ENDBRANCH  13  14
BRANCH  13  16
HETATM   16  N2  UNL     1      17.792 -12.266  21.124  1.00  0.00    -0.276 N 
ATOM     17  H2  UNL     1      18.231 -11.372  20.906  1.00  0.00     0.189 HD
BRANCH  16  18
HETATM   18  N3  UNL     1      16.475 -12.232  21.039  1.00  0.00    -0.265 N 
HETATM   19  C7  UNL     1      15.358 -12.817  21.665  1.00  0.00     0.272 C 
HETATM   20  O2  UNL     1      15.472 -13.655  22.574  1.00  0.00    -0.268 OA
ATOM     21  H3  UNL     1      16.180 -11.592  20.301  1.00  0.00     0.190 HD
BRANCH  19  22
HETATM   22  C8  UNL     1      13.999 -12.359  21.185  1.00  0.00     0.260 C 
BRANCH  22  23
HETATM   23  C9  UNL     1      13.147 -13.613  20.927  1.00  0.00     0.056 C 
BRANCH  23  24
HETATM   24  C10 UNL     1      13.751 -14.218  19.605  1.00  0.00     0.073 C 
BRANCH  24  25
HETATM   25  C11 UNL     1      13.766 -15.685  19.880  1.00  0.00     0.074 C 
HETATM   26  S1  UNL     1      12.621 -16.601  19.118  1.00  0.00    -0.066 SA
BRANCH  25  27
HETATM   27  N4  UNL     1      14.684 -16.315  20.707  1.00  0.00    -0.384 N 
HETATM   28  C12 UNL     1      14.208 -17.043  21.891  1.00  0.00     0.149 C 
HETATM   29  C13 UNL     1      16.102 -16.310  20.482  1.00  0.00     0.149 C 
ENDBRANCH  25  27
ENDBRANCH  24  25
ENDBRANCH  23  24
ENDBRANCH  22  23
BRANCH  22  30
HETATM   30  N5  UNL     1      13.388 -11.504  22.081  1.00  0.00    -0.400 NA
HETATM   31  C14 UNL     1      12.791 -10.659  22.963  1.00  0.00     0.283 C 
HETATM   32  C15 UNL     1      11.413 -11.095  23.522  1.00  0.00     0.134 C 
HETATM   33  O3  UNL     1      13.155  -9.569  23.426  1.00  0.00    -0.258 OA
ENDBRANCH  22  30
ENDBRANCH  19  22
ENDBRANCH  16  18
ENDBRANCH  13  16
ENDBRANCH   5  12
BRANCH   7  34
HETATM   34  N6  UNL     1      21.451 -17.506  23.853  1.00  0.00    -0.398 NA
HETATM   35  C18 UNL     1      22.599 -17.597  24.497  1.00  0.00     0.283 C 
HETATM   36  C19 UNL     1      22.401 -17.350  26.091  1.00  0.00     0.134 C 
HETATM   37  O4  UNL     1      23.801 -17.813  24.348  1.00  0.00    -0.258 OA
ENDBRANCH   7  34
ENDBRANCH   4   5
ENDBRANCH   3   4
TORSDOF 13
ENDMDL
MODEL 4
REMARK VINA RESULT: -7.544984054      2.554      4.571
REMARK  13 active torsions:
REMARK  status: ('A' for Active; 'I' for Inactive)
REMARK    1  A    between atoms: C3_3  and  C4_4 
REMARK    2  A    between atoms: C4_4  and  N1_5 
REMARK    3  A    between atoms: N1_5  and  C5_6 
REMARK    4  A    between atoms: C6_7  and  O1_8 
REMARK    5  A    between atoms: C6_7  and  N2_10 
REMARK    6  A    between atoms: N2_10  and  N3_12 
REMARK       I    between atoms: N3_12  and  C7_14 
REMARK    7  A    between atoms: C7_14  and  C8_16 
REMARK    8  A    between atoms: C8_16  and  C9_17 
REMARK    9  A    between atoms: C8_16  and  N5_24 
REMARK   10  A    between atoms: C9_17  and  C10_18 
REMARK   11  A    between atoms: C10_18  and  C11_19 
REMARK   12  A    between atoms: C11_19  and  N4_21 
REMARK       I    between atoms: N5_24  and  C14_25 
REMARK   13  A    between atoms: C17_29  and  N6_30 
REMARK       I    between atoms: N6_30  and  C18_31 
ROOT
HETATM    1  C1  UNL     1      20.971 -13.721  27.097  1.00  0.00     0.112 C 
HETATM    2  C2  UNL     1      20.765 -13.903  25.654  1.00  0.00    -0.109 C 
HETATM    3  C3  UNL     1      20.639 -14.077  24.483  1.00  0.00    -0.076 C 
ENDROOT
BRANCH   3   4
HETATM    4  C4  UNL     1      20.547 -14.330  23.047  1.00  0.00     0.364 C 
BRANCH   4   5
HETATM    5  N1  UNL     1      19.454 -15.216  22.674  1.00  0.00     0.054 N 
HETATM    6  C16 UNL     1      19.343 -16.334  23.576  1.00  0.00     0.321 C 
HETATM    7  C17 UNL     1      20.329 -17.394  23.028  1.00  0.00     0.288 C 
HETATM    8  C20 UNL     1      20.393 -17.049  21.600  1.00  0.00     0.279 C 
HETATM    9  O5  UNL     1      20.907 -17.750  20.676  1.00  0.00    -0.268 OA
HETATM   10  N7  UNL     1      19.768 -15.798  21.422  1.00  0.00    -0.177 N 
ATOM     11  H7  UNL     1      19.569 -15.371  20.516  1.00  0.00     0.197 HD
BRANCH   5  12
HETATM   12  C5  UNL     1      18.258 -14.437  22.550  1.00  0.00     0.287 C 
HETATM   13  C6  UNL     1      18.199 -13.336  21.612  1.00  0.00     0.181 C 
BRANCH  13  14
HETATM   14  O1  UNL     1      19.319 -13.111  20.919  1.00  0.00    -0.344 OA
ATOM     15  H1  UNL     1      19.941 -12.522  21.329  1.00  0.00     0.219 HD
ENDBRANCH  13  14
BRANCH  13  16
HETATM   16  N2  UNL     1      17.169 -12.471  21.375  1.00  0.00    -0.276 N 
ATOM     17  H2  UNL     1      17.478 -11.578  20.991  1.00  0.00     0.189 HD
BRANCH  16  18
HETATM   18  N3  UNL     1      15.860 -12.540  21.534  1.00  0.00    -0.265 N 
HETATM   19  C7  UNL     1      14.689 -12.282  20.797  1.00  0.00     0.272 C 
HETATM   20  O2  UNL     1      14.721 -11.829  19.641  1.00  0.00    -0.268 OA
ATOM     21  H3  UNL     1      15.630 -12.881  22.468  1.00  0.00     0.190 HD
BRANCH  19  22
HETATM   22  C8  UNL     1      13.378 -12.603  21.479  1.00  0.00     0.260 C 
BRANCH  22  23
HETATM   23  C9  UNL     1      13.537 -13.962  22.181  1.00  0.00     0.056 C 
BRANCH  23  24
HETATM   24  C10 UNL     1      12.623 -14.933  21.343  1.00  0.00     0.073 C 
BRANCH  24  25
HETATM   25  C11 UNL     1      13.383 -16.217  21.367  1.00  0.00     0.074 C 
HETATM   26  S1  UNL     1      15.032 -16.111  21.424  1.00  0.00    -0.066 SA
BRANCH  25  27
HETATM   27  N4  UNL     1      12.794 -17.472  21.365  1.00  0.00    -0.384 N 
HETATM   28  C12 UNL     1      11.421 -17.625  20.864  1.00  0.00     0.149 C 
HETATM   29  C13 UNL     1      13.446 -18.665  21.826  1.00  0.00     0.149 C 
ENDBRANCH  25  27
ENDBRANCH  24  25
ENDBRANCH  23  24
ENDBRANCH  22  23
BRANCH  22  30
HETATM   30  N5  UNL     1      12.992 -11.615  22.363  1.00  0.00    -0.400 NA
HETATM   31  C14 UNL     1      12.616 -10.640  23.232  1.00  0.00     0.283 C 
HETATM   32  C15 UNL     1      11.319 -10.890  24.042  1.00  0.00     0.134 C 
HETATM   33  O3  UNL     1      13.136  -9.551  23.514  1.00  0.00    -0.258 OA
ENDBRANCH  22  30
ENDBRANCH  19  22
ENDBRANCH  16  18
ENDBRANCH  13  16
ENDBRANCH   5  12
BRANCH   7  34
HETATM   34  N6  UNL     1      21.562 -17.311  23.725  1.00  0.00    -0.398 NA
HETATM   35  C18 UNL     1      22.749 -17.239  24.297  1.00  0.00     0.283 C 
HETATM   36  C19 UNL     1      22.624 -17.283  25.917  1.00  0.00     0.134 C 
HETATM   37  O4  UNL     1      23.953 -17.156  24.065  1.00  0.00    -0.258 OA
ENDBRANCH   7  34
ENDBRANCH   4   5
ENDBRANCH   3   4
TORSDOF 13
ENDMDL
MODEL 5
REMARK VINA RESULT: -7.536959909      1.768      2.294
REMARK  13 active torsions:
REMARK  status: ('A' for Active; 'I' for Inactive)
REMARK    1  A    between atoms: C3_3  and  C4_4 
REMARK    2  A    between atoms: C4_4  and  N1_5 
REMARK    3  A    between atoms: N1_5  and  C5_6 
REMARK    4  A    between atoms: C6_7  and  O1_8 
REMARK    5  A    between atoms: C6_7  and  N2_10 
REMARK    6  A    between atoms: N2_10  and  N3_12 
REMARK       I    between atoms: N3_12  and  C7_14 
REMARK    7  A    between atoms: C7_14  and  C8_16 
REMARK    8  A    between atoms: C8_16  and  C9_17 
REMARK    9  A    between atoms: C8_16  and  N5_24 
REMARK   10  A    between atoms: C9_17  and  C10_18 
REMARK   11  A    between atoms: C10_18  and  C11_19 
REMARK   12  A    between atoms: C11_19  and  N4_21 
REMARK       I    between atoms: N5_24  and  C14_25 
REMARK   13  A    between atoms: C17_29  and  N6_30 
REMARK       I    between atoms: N6_30  and  C18_31 
ROOT
HETATM    1  C1  UNL     1      19.979 -12.940  18.077  1.00  0.00     0.112 C 
HETATM    2  C2  UNL     1      19.999 -13.374  19.481  1.00  0.00    -0.109 C 
HETATM    3  C3  UNL     1      19.967 -13.720  20.619  1.00  0.00    -0.076 C 
ENDROOT
BRANCH   3   4
HETATM    4  C4  UNL     1      19.854 -14.137  22.015  1.00  0.00     0.364 C 
BRANCH   4   5
HETATM    5  N1  UNL     1      19.166 -15.407  22.197  1.00  0.00     0.054 N 
HETATM    6  C16 UNL     1      18.858 -15.652  23.583  1.00  0.00     0.321 C 
HETATM    7  C17 UNL     1      20.130 -16.309  24.169  1.00  0.00     0.288 C 
HETATM    8  C20 UNL     1      20.735 -16.930  22.982  1.00  0.00     0.279 C 
HETATM    9  O5  UNL     1      21.688 -17.766  22.969  1.00  0.00    -0.268 OA
HETATM   10  N7  UNL     1      20.060 -16.446  21.842  1.00  0.00    -0.177 N 
ATOM     11  H7  UNL     1      20.197 -16.796  20.893  1.00  0.00     0.197 HD
BRANCH   5  12
HETATM   12  C5  UNL     1      18.030 -15.439  21.325  1.00  0.00     0.287 C 
HETATM   13  C6  UNL     1      17.172 -16.603  21.287  1.00  0.00     0.181 C 
BRANCH  13  14
HETATM   14  O1  UNL     1      17.533 -17.609  22.090  1.00  0.00    -0.344 OA
ATOM     15  H1  UNL     1      17.279 -17.517  23.000  1.00  0.00     0.219 HD
ENDBRANCH  13  14
BRANCH  13  16
HETATM   16  N2  UNL     1      16.071 -16.829  20.510  1.00  0.00    -0.276 N 
ATOM     17  H2  UNL     1      16.282 -17.359  19.664  1.00  0.00     0.189 HD
BRANCH  16  18
HETATM   18  N3  UNL     1      14.795 -16.510  20.617  1.00  0.00    -0.265 N 
HETATM   19  C7  UNL     1      13.753 -16.612  21.559  1.00  0.00     0.272 C 
HETATM   20  O2  UNL     1      13.911 -17.160  22.662  1.00  0.00    -0.268 OA
ATOM     21  H3  UNL     1      14.466 -16.055  19.765  1.00  0.00     0.190 HD
BRANCH  19  22
HETATM   22  C8  UNL     1      12.426 -16.002  21.166  1.00  0.00     0.260 C 
BRANCH  22  23
HETATM   23  C9  UNL     1      12.671 -14.519  20.844  1.00  0.00     0.056 C 
BRANCH  23  24
HETATM   24  C10 UNL     1      12.818 -13.841  22.257  1.00  0.00     0.073 C 
BRANCH  24  25
HETATM   25  C11 UNL     1      13.615 -12.614  21.963  1.00  0.00     0.074 C 
HETATM   26  S1  UNL     1      15.187 -12.835  21.499  1.00  0.00    -0.066 SA
BRANCH  25  27
HETATM   27  N4  UNL     1      13.115 -11.323  22.034  1.00  0.00    -0.384 N 
HETATM   28  C12 UNL     1      13.270 -10.424  20.882  1.00  0.00     0.149 C 
HETATM   29  C13 UNL     1      12.436 -10.787  23.179  1.00  0.00     0.149 C 
ENDBRANCH  25  27
ENDBRANCH  24  25
ENDBRANCH  23  24
ENDBRANCH  22  23
BRANCH  22  30
HETATM   30  N5  UNL     1      11.839 -16.664  20.107  1.00  0.00    -0.400 NA
HETATM   31  C14 UNL     1      11.258 -17.313  19.063  1.00  0.00     0.283 C 
HETATM   32  C15 UNL     1      12.031 -18.520  18.474  1.00  0.00     0.134 C 
HETATM   33  O3  UNL     1      10.184 -17.119  18.475  1.00  0.00    -0.258 OA
ENDBRANCH  22  30
ENDBRANCH  19  22
ENDBRANCH  16  18
ENDBRANCH  13  16
ENDBRANCH   5  12
BRANCH   7  34
HETATM   34  N6  UNL     1      20.929 -15.326  24.809  1.00  0.00    -0.398 NA
HETATM   35  C18 UNL     1      21.735 -14.430  25.347  1.00  0.00     0.283 C 
HETATM   36  C19 UNL     1      21.088 -13.793  26.696  1.00  0.00     0.134 C 
HETATM   37  O4  UNL     1      22.827 -13.880  25.219  1.00  0.00    -0.258 OA
ENDBRANCH   7  34
ENDBRANCH   4   5
ENDBRANCH   3   4
TORSDOF 13
ENDMDL
