MODEL 1
REMARK VINA RESULT: -8.521596672      0.000      0.000
REMARK  10 active torsions:
REMARK  status: ('A' for Active; 'I' for Inactive)
REMARK    1  A    between atoms: C3_3  and  C4_4 
REMARK    2  A    between atoms: C4_4  and  C5_5 
REMARK    3  A    between atoms: C5_5  and  N1_7 
REMARK    4  A    between atoms: N1_7  and  C7_10 
REMARK    5  A    between atoms: C7_10  and  C8_11 
REMARK    6  A    between atoms: C11_17  and  C12_18 
REMARK       I    between atoms: C12_18  and  N3_20 
REMARK    7  A    between atoms: N3_20  and  C13_22 
REMARK    8  A    between atoms: C13_22  and  C15_24 
REMARK       I    between atoms: C15_24  and  N4_26 
REMARK    9  A    between atoms: N4_26  and  C16_28 
REMARK   10  A    between atoms: C16_28  and  C17_29 
ROOT
HETATM    1  C1  UNL     1      20.319 -12.963  19.522  1.00  0.00     0.027 C 
HETATM    2  C2  UNL     1      20.427 -13.405  20.635  1.00  0.00    -0.026 C 
HETATM    3  C3  UNL     1      20.565 -13.950  21.951  1.00  0.00    -0.014 C 
ENDROOT
BRANCH   3   4
HETATM    4  C4  UNL     1      20.699 -14.407  23.071  1.00  0.00    -0.060 C 
BRANCH   4   5
HETATM    5  C5  UNL     1      20.834 -15.002  24.410  1.00  0.00     0.261 C 
HETATM    6  C6  UNL     1      20.583 -13.889  25.411  1.00  0.00     0.054 C 
BRANCH   5   7
HETATM    7  N1  UNL     1      19.897 -16.119  24.609  1.00  0.00    -0.059 N 
ATOM      8  H12 UNL     1      20.041 -16.871  23.934  1.00  0.00     0.278 HD
ATOM      9  H11 UNL     1      20.098 -16.649  25.458  1.00  0.00     0.278 HD
BRANCH   7  10
HETATM   10  C7  UNL     1      18.574 -15.620  24.586  1.00  0.00     0.266 C 
BRANCH  10  11
HETATM   11  C8  UNL     1      17.693 -16.316  23.569  1.00  0.00     0.180 C 
HETATM   12  N2  UNL     1      18.425 -17.373  22.894  1.00  0.00    -0.348 N 
HETATM   13  C9  UNL     1      17.771 -18.055  21.832  1.00  0.00     0.219 C 
ATOM     14  H2  UNL     1      19.375 -17.617  23.172  1.00  0.00     0.163 HD
HETATM   15  O1  UNL     1      17.985 -19.247  21.532  1.00  0.00    -0.274 OA
HETATM   16  C10 UNL     1      16.765 -17.234  21.072  1.00  0.00     0.124 C 
HETATM   17  C11 UNL     1      17.347 -15.822  21.098  1.00  0.00     0.158 C 
HETATM   18  C22 UNL     1      17.173 -15.358  22.531  1.00  0.00     0.164 C 
HETATM   19  O6  UNL     1      16.664 -14.311  22.732  1.00  0.00    -0.295 OA
BRANCH  17  20
HETATM   20  C12 UNL     1      16.571 -14.973  20.137  1.00  0.00     0.234 C 
HETATM   21  O2  UNL     1      15.430 -15.371  19.761  1.00  0.00    -0.272 OA
HETATM   22  N3  UNL     1      17.073 -13.769  19.659  1.00  0.00    -0.326 N 
ATOM     23  H3  UNL     1      18.005 -13.572  20.025  1.00  0.00     0.168 HD
BRANCH  22  24
HETATM   24  C13 UNL     1      16.627 -12.768  18.811  1.00  0.00     0.076 C 
HETATM   25  C14 UNL     1      17.277 -12.746  17.442  1.00  0.00     0.074 C 
BRANCH  24  26
HETATM   26  C15 UNL     1      15.217 -12.389  18.688  1.00  0.00     0.264 C 
HETATM   27  O3  UNL     1      14.646 -12.314  17.594  1.00  0.00    -0.266 OA
HETATM   28  N4  UNL     1      14.524 -12.129  19.893  1.00  0.00    -0.351 N 
ATOM     29  H4  UNL     1      15.068 -12.144  20.756  1.00  0.00     0.163 HD
BRANCH  28  30
HETATM   30  C16 UNL     1      13.123 -11.849  20.006  1.00  0.00     0.169 C 
BRANCH  30  31
HETATM   31  C17 UNL     1      12.727 -11.840  21.441  1.00  0.00     0.050 A 
HETATM   32  C18 UNL     1      12.038 -12.947  21.945  1.00  0.00     0.023 A 
HETATM   33  C19 UNL     1      12.164 -14.203  21.127  1.00  0.00     0.069 C 
HETATM   34  N5  UNL     1      11.473 -12.980  23.147  1.00  0.00    -0.312 N 
HETATM   35  C20 UNL     1      11.579 -11.878  23.905  1.00  0.00     0.327 A 
ATOM     36  H5  UNL     1      10.978 -13.807  23.479  1.00  0.00     0.170 HD
HETATM   37  O4  UNL     1      11.068 -11.858  25.032  1.00  0.00    -0.247 OA
HETATM   38  N6  UNL     1      12.240 -10.757  23.485  1.00  0.00    -0.275 N 
HETATM   39  C21 UNL     1      12.806 -10.744  22.269  1.00  0.00     0.259 A 
ATOM     40  H6  UNL     1      12.303  -9.938  24.091  1.00  0.00     0.173 HD
HETATM   41  O5  UNL     1      13.427  -9.699  21.887  1.00  0.00    -0.267 OA
ENDBRANCH  30  31
ENDBRANCH  28  30
ENDBRANCH  24  26
ENDBRANCH  22  24
ENDBRANCH  17  20
ENDBRANCH  10  11
ENDBRANCH   7  10
ENDBRANCH   5   7
ENDBRANCH   4   5
ENDBRANCH   3   4
TORSDOF 10
ENDMDL
MODEL 2
REMARK VINA RESULT: -8.475630863      1.349      1.827
REMARK  10 active torsions:
REMARK  status: ('A' for Active; 'I' for Inactive)
REMARK    1  A    between atoms: C3_3  and  C4_4 
REMARK    2  A    between atoms: C4_4  and  C5_5 
REMARK    3  A    between atoms: C5_5  and  N1_7 
REMARK    4  A    between atoms: N1_7  and  C7_10 
REMARK    5  A    between atoms: C7_10  and  C8_11 
REMARK    6  A    between atoms: C11_17  and  C12_18 
REMARK       I    between atoms: C12_18  and  N3_20 
REMARK    7  A    between atoms: N3_20  and  C13_22 
REMARK    8  A    between atoms: C13_22  and  C15_24 
REMARK       I    between atoms: C15_24  and  N4_26 
REMARK    9  A    between atoms: N4_26  and  C16_28 
REMARK   10  A    between atoms: C16_28  and  C17_29 
ROOT
HETATM    1  C1  UNL     1      19.780 -12.937  19.004  1.00  0.00     0.027 C 
HETATM    2  C2  UNL     1      20.039 -13.412  20.078  1.00  0.00    -0.026 C 
HETATM    3  C3  UNL     1      20.341 -13.958  21.366  1.00  0.00    -0.014 C 
ENDROOT
BRANCH   3   4
HETATM    4  C4  UNL     1      20.580 -14.426  22.464  1.00  0.00    -0.060 C 
BRANCH   4   5
HETATM    5  C5  UNL     1      20.914 -15.014  23.771  1.00  0.00     0.261 C 
HETATM    6  C6  UNL     1      20.455 -14.023  24.826  1.00  0.00     0.054 C 
BRANCH   5   7
HETATM    7  N1  UNL     1      20.277 -16.327  23.959  1.00  0.00    -0.059 N 
ATOM      8  H12 UNL     1      19.956 -16.732  23.080  1.00  0.00     0.278 HD
ATOM      9  H11 UNL     1      20.948 -17.052  24.215  1.00  0.00     0.278 HD
BRANCH   7  10
HETATM   10  C7  UNL     1      19.233 -16.201  24.906  1.00  0.00     0.266 C 
BRANCH  10  11
HETATM   11  C8  UNL     1      17.905 -16.725  24.401  1.00  0.00     0.180 C 
HETATM   12  N2  UNL     1      18.048 -18.075  23.888  1.00  0.00    -0.348 N 
HETATM   13  C9  UNL     1      16.912 -18.673  23.277  1.00  0.00     0.219 C 
ATOM     14  H2  UNL     1      18.932 -18.577  23.962  1.00  0.00     0.163 HD
HETATM   15  O1  UNL     1      16.680 -19.899  23.284  1.00  0.00    -0.274 OA
HETATM   16  C10 UNL     1      15.968 -17.710  22.607  1.00  0.00     0.124 C 
HETATM   17  C11 UNL     1      16.883 -16.609  22.074  1.00  0.00     0.158 C 
HETATM   18  C22 UNL     1      17.342 -15.856  23.308  1.00  0.00     0.164 C 
HETATM   19  O6  UNL     1      17.235 -14.680  23.328  1.00  0.00    -0.295 OA
BRANCH  17  20
HETATM   20  C12 UNL     1      16.086 -15.738  21.151  1.00  0.00     0.234 C 
HETATM   21  O2  UNL     1      14.823 -15.768  21.229  1.00  0.00    -0.272 OA
HETATM   22  N3  UNL     1      16.700 -14.905  20.224  1.00  0.00    -0.326 N 
ATOM     23  H3  UNL     1      17.716 -14.986  20.253  1.00  0.00     0.168 HD
BRANCH  22  24
HETATM   24  C13 UNL     1      16.279 -13.991  19.272  1.00  0.00     0.076 C 
HETATM   25  C14 UNL     1      15.572 -14.589  18.072  1.00  0.00     0.074 C 
BRANCH  24  26
HETATM   26  C15 UNL     1      15.664 -12.704  19.610  1.00  0.00     0.264 C 
HETATM   27  O3  UNL     1      16.283 -11.636  19.532  1.00  0.00    -0.266 OA
HETATM   28  N4  UNL     1      14.310 -12.736  20.013  1.00  0.00    -0.351 N 
ATOM     29  H4  UNL     1      13.877 -13.653  20.121  1.00  0.00     0.163 HD
BRANCH  28  30
HETATM   30  C16 UNL     1      13.493 -11.589  20.283  1.00  0.00     0.169 C 
BRANCH  30  31
HETATM   31  C17 UNL     1      12.627 -11.857  21.464  1.00  0.00     0.050 A 
HETATM   32  C18 UNL     1      12.619 -10.924  22.505  1.00  0.00     0.023 A 
HETATM   33  C19 UNL     1      13.121  -9.554  22.138  1.00  0.00     0.069 C 
HETATM   34  N5  UNL     1      12.039 -11.136  23.681  1.00  0.00    -0.312 N 
HETATM   35  C20 UNL     1      11.430 -12.318  23.861  1.00  0.00     0.327 A 
ATOM     36  H5  UNL     1      12.054 -10.430  24.417  1.00  0.00     0.170 HD
HETATM   37  O4  UNL     1      10.877 -12.564  24.940  1.00  0.00    -0.247 OA
HETATM   38  N6  UNL     1      11.391 -13.281  22.890  1.00  0.00    -0.275 N 
HETATM   39  C21 UNL     1      11.982 -13.047  21.710  1.00  0.00     0.259 A 
ATOM     40  H6  UNL     1      10.917 -14.168  23.063  1.00  0.00     0.173 HD
HETATM   41  O5  UNL     1      11.934 -13.945  20.806  1.00  0.00    -0.267 OA
ENDBRANCH  30  31
ENDBRANCH  28  30
ENDBRANCH  24  26
ENDBRANCH  22  24
ENDBRANCH  17  20
ENDBRANCH  10  11
ENDBRANCH   7  10
ENDBRANCH   5   7
ENDBRANCH   4   5
ENDBRANCH   3   4
TORSDOF 10
ENDMDL
MODEL 3
REMARK VINA RESULT: -8.369551528      1.682      3.132
REMARK  10 active torsions:
REMARK  status: ('A' for Active; 'I' for Inactive)
REMARK    1  A    between atoms: C3_3  and  C4_4 
REMARK    2  A    between atoms: C4_4  and  C5_5 
REMARK    3  A    between atoms: C5_5  and  N1_7 
REMARK    4  A    between atoms: N1_7  and  C7_10 
REMARK    5  A    between atoms: C7_10  and  C8_11 
REMARK    6  A    between atoms: C11_17  and  C12_18 
REMARK       I    between atoms: C12_18  and  N3_20 
REMARK    7  A    between atoms: N3_20  and  C13_22 
REMARK    8  A    between atoms: C13_22  and  C15_24 
REMARK       I    between atoms: C15_24  and  N4_26 
REMARK    9  A    between atoms: N4_26  and  C16_28 
REMARK   10  A    between atoms: C16_28  and  C17_29 
ROOT
HETATM    1  C1  UNL     1      21.012 -13.746  27.214  1.00  0.00     0.027 C 
HETATM    2  C2  UNL     1      20.458 -14.722  26.782  1.00  0.00    -0.026 C 
HETATM    3  C3  UNL     1      19.801 -15.875  26.246  1.00  0.00    -0.014 C 
ENDROOT
BRANCH   3   4
HETATM    4  C4  UNL     1      19.259 -16.864  25.789  1.00  0.00    -0.060 C 
BRANCH   4   5
HETATM    5  C5  UNL     1      18.649 -18.071  25.208  1.00  0.00     0.261 C 
HETATM    6  C6  UNL     1      17.515 -18.476  26.133  1.00  0.00     0.054 C 
BRANCH   5   7
HETATM    7  N1  UNL     1      18.161 -17.833  23.840  1.00  0.00    -0.059 N 
ATOM      8  H12 UNL     1      17.331 -18.384  23.623  1.00  0.00     0.278 HD
ATOM      9  H11 UNL     1      17.750 -16.905  23.731  1.00  0.00     0.278 HD
BRANCH   7  10
HETATM   10  C7  UNL     1      19.216 -18.065  22.927  1.00  0.00     0.266 C 
BRANCH  10  11
HETATM   11  C8  UNL     1      19.694 -16.806  22.236  1.00  0.00     0.180 C 
HETATM   12  N2  UNL     1      20.473 -15.985  23.146  1.00  0.00    -0.348 N 
HETATM   13  C9  UNL     1      20.907 -14.714  22.683  1.00  0.00     0.219 C 
ATOM     14  H2  UNL     1      20.701 -16.310  24.086  1.00  0.00     0.163 HD
HETATM   15  O1  UNL     1      21.958 -14.154  23.059  1.00  0.00    -0.274 OA
HETATM   16  C10 UNL     1      20.003 -14.063  21.671  1.00  0.00     0.124 C 
HETATM   17  C11 UNL     1      18.603 -14.513  22.084  1.00  0.00     0.158 C 
HETATM   18  C22 UNL     1      18.545 -15.982  21.718  1.00  0.00     0.164 C 
HETATM   19  O6  UNL     1      17.633 -16.373  21.076  1.00  0.00    -0.295 OA
BRANCH  17  20
HETATM   20  C12 UNL     1      17.601 -13.705  21.317  1.00  0.00     0.234 C 
HETATM   21  O2  UNL     1      16.613 -13.214  21.939  1.00  0.00    -0.272 OA
HETATM   22  N3  UNL     1      17.734 -13.484  19.952  1.00  0.00    -0.326 N 
ATOM     23  H3  UNL     1      18.559 -13.946  19.570  1.00  0.00     0.168 HD
BRANCH  22  24
HETATM   24  C13 UNL     1      17.028 -12.795  18.979  1.00  0.00     0.076 C 
HETATM   25  C14 UNL     1      17.697 -12.731  17.621  1.00  0.00     0.074 C 
BRANCH  24  26
HETATM   26  C15 UNL     1      15.578 -12.913  18.805  1.00  0.00     0.264 C 
HETATM   27  O3  UNL     1      15.073 -13.626  17.930  1.00  0.00    -0.266 OA
HETATM   28  N4  UNL     1      14.770 -12.182  19.707  1.00  0.00    -0.351 N 
ATOM     29  H4  UNL     1      15.247 -11.561  20.362  1.00  0.00     0.163 HD
BRANCH  28  30
HETATM   30  C16 UNL     1      13.340 -12.238  19.780  1.00  0.00     0.169 C 
BRANCH  30  31
HETATM   31  C17 UNL     1      12.901 -12.036  21.188  1.00  0.00     0.050 A 
HETATM   32  C18 UNL     1      12.228 -13.081  21.828  1.00  0.00     0.023 A 
HETATM   33  C19 UNL     1      12.414 -14.437  21.203  1.00  0.00     0.069 C 
HETATM   34  N5  UNL     1      11.628 -12.960  23.007  1.00  0.00    -0.312 N 
HETATM   35  C20 UNL     1      11.681 -11.759  23.602  1.00  0.00     0.327 A 
ATOM     36  H5  UNL     1      11.147 -13.747  23.442  1.00  0.00     0.170 HD
HETATM   37  O4  UNL     1      11.136 -11.594  24.700  1.00  0.00    -0.247 OA
HETATM   38  N6  UNL     1      12.323 -10.688  23.042  1.00  0.00    -0.275 N 
HETATM   39  C21 UNL     1      12.924 -10.832  21.851  1.00  0.00     0.259 A 
ATOM     40  H6  UNL     1      12.344  -9.790  23.525  1.00  0.00     0.173 HD
HETATM   41  O5  UNL     1      13.528  -9.833  21.340  1.00  0.00    -0.267 OA
ENDBRANCH  30  31
ENDBRANCH  28  30
ENDBRANCH  24  26
ENDBRANCH  22  24
ENDBRANCH  17  20
ENDBRANCH  10  11
ENDBRANCH   7  10
ENDBRANCH   5   7
ENDBRANCH   4   5
ENDBRANCH   3   4
TORSDOF 10
ENDMDL
MODEL 4
REMARK VINA RESULT: -8.197296081      2.744      8.544
REMARK  10 active torsions:
REMARK  status: ('A' for Active; 'I' for Inactive)
REMARK    1  A    between atoms: C3_3  and  C4_4 
REMARK    2  A    between atoms: C4_4  and  C5_5 
REMARK    3  A    between atoms: C5_5  and  N1_7 
REMARK    4  A    between atoms: N1_7  and  C7_10 
REMARK    5  A    between atoms: C7_10  and  C8_11 
REMARK    6  A    between atoms: C11_17  and  C12_18 
REMARK       I    between atoms: C12_18  and  N3_20 
REMARK    7  A    between atoms: N3_20  and  C13_22 
REMARK    8  A    between atoms: C13_22  and  C15_24 
REMARK       I    between atoms: C15_24  and  N4_26 
REMARK    9  A    between atoms: N4_26  and  C16_28 
REMARK   10  A    between atoms: C16_28  and  C17_29 
ROOT
HETATM    1  C1  UNL     1      11.556  -8.887  24.830  1.00  0.00     0.027 C 
HETATM    2  C2  UNL     1      12.060  -9.681  24.081  1.00  0.00    -0.026 C 
HETATM    3  C3  UNL     1      12.655 -10.612  23.172  1.00  0.00    -0.014 C 
ENDROOT
BRANCH   3   4
HETATM    4  C4  UNL     1      13.178 -11.395  22.400  1.00  0.00    -0.060 C 
BRANCH   4   5
HETATM    5  C5  UNL     1      13.853 -12.343  21.499  1.00  0.00     0.261 C 
HETATM    6  C6  UNL     1      13.505 -11.924  20.082  1.00  0.00     0.054 C 
BRANCH   5   7
HETATM    7  N1  UNL     1      15.309 -12.354  21.709  1.00  0.00    -0.059 N 
ATOM      8  H12 UNL     1      15.626 -11.567  22.275  1.00  0.00     0.278 HD
ATOM      9  H11 UNL     1      15.606 -13.107  22.331  1.00  0.00     0.278 HD
BRANCH   7  10
HETATM   10  C7  UNL     1      15.956 -12.407  20.452  1.00  0.00     0.266 C 
BRANCH  10  11
HETATM   11  C8  UNL     1      17.434 -12.717  20.556  1.00  0.00     0.180 C 
HETATM   12  N2  UNL     1      18.040 -12.779  19.238  1.00  0.00    -0.348 N 
HETATM   13  C9  UNL     1      19.405 -13.166  19.154  1.00  0.00     0.219 C 
ATOM     14  H2  UNL     1      17.504 -12.552  18.400  1.00  0.00     0.163 HD
HETATM   15  O1  UNL     1      20.190 -12.772  18.268  1.00  0.00    -0.274 OA
HETATM   16  C10 UNL     1      19.867 -14.102  20.238  1.00  0.00     0.124 C 
HETATM   17  C11 UNL     1      18.638 -14.958  20.535  1.00  0.00     0.158 C 
HETATM   18  C22 UNL     1      17.683 -14.027  21.256  1.00  0.00     0.164 C 
HETATM   19  O6  UNL     1      17.209 -14.379  22.279  1.00  0.00    -0.295 OA
BRANCH  17  20
HETATM   20  C12 UNL     1      19.059 -16.107  21.401  1.00  0.00     0.234 C 
HETATM   21  O2  UNL     1      20.277 -16.202  21.733  1.00  0.00    -0.272 OA
HETATM   22  N3  UNL     1      18.148 -17.058  21.844  1.00  0.00    -0.326 N 
ATOM     23  H3  UNL     1      17.207 -16.877  21.495  1.00  0.00     0.168 HD
BRANCH  22  24
HETATM   24  C13 UNL     1      18.196 -18.189  22.642  1.00  0.00     0.076 C 
HETATM   25  C14 UNL     1      18.603 -19.464  21.930  1.00  0.00     0.074 C 
BRANCH  24  26
HETATM   26  C15 UNL     1      18.746 -18.192  24.000  1.00  0.00     0.264 C 
HETATM   27  O3  UNL     1      18.621 -19.159  24.761  1.00  0.00    -0.266 OA
HETATM   28  N4  UNL     1      19.453 -17.035  24.399  1.00  0.00    -0.351 N 
ATOM     29  H4  UNL     1      19.464 -16.248  23.750  1.00  0.00     0.163 HD
BRANCH  28  30
HETATM   30  C16 UNL     1      20.157 -16.873  25.637  1.00  0.00     0.169 C 
BRANCH  30  31
HETATM   31  C17 UNL     1      21.387 -16.063  25.413  1.00  0.00     0.050 A 
HETATM   32  C18 UNL     1      21.433 -14.770  25.943  1.00  0.00     0.023 A 
HETATM   33  C19 UNL     1      20.450 -14.497  27.048  1.00  0.00     0.069 C 
HETATM   34  N5  UNL     1      22.386 -13.890  25.657  1.00  0.00    -0.312 N 
HETATM   35  C20 UNL     1      23.350 -14.283  24.811  1.00  0.00     0.327 A 
ATOM     36  H5  UNL     1      22.386 -12.955  26.065  1.00  0.00     0.170 HD
HETATM   37  O4  UNL     1      24.259 -13.499  24.512  1.00  0.00    -0.247 OA
HETATM   38  N6  UNL     1      23.377 -15.532  24.254  1.00  0.00    -0.275 N 
HETATM   39  C21 UNL     1      22.406 -16.406  24.556  1.00  0.00     0.259 A 
ATOM     40  H6  UNL     1      24.127 -15.795  23.615  1.00  0.00     0.173 HD
HETATM   41  O5  UNL     1      22.441 -17.571  24.040  1.00  0.00    -0.267 OA
ENDBRANCH  30  31
ENDBRANCH  28  30
ENDBRANCH  24  26
ENDBRANCH  22  24
ENDBRANCH  17  20
ENDBRANCH  10  11
ENDBRANCH   7  10
ENDBRANCH   5   7
ENDBRANCH   4   5
ENDBRANCH   3   4
TORSDOF 10
ENDMDL
MODEL 5
REMARK VINA RESULT: -8.164698418      4.143     10.099
REMARK  10 active torsions:
REMARK  status: ('A' for Active; 'I' for Inactive)
REMARK    1  A    between atoms: C3_3  and  C4_4 
REMARK    2  A    between atoms: C4_4  and  C5_5 
REMARK    3  A    between atoms: C5_5  and  N1_7 
REMARK    4  A    between atoms: N1_7  and  C7_10 
REMARK    5  A    between atoms: C7_10  and  C8_11 
REMARK    6  A    between atoms: C11_17  and  C12_18 
REMARK       I    between atoms: C12_18  and  N3_20 
REMARK    7  A    between atoms: N3_20  and  C13_22 
REMARK    8  A    between atoms: C13_22  and  C15_24 
REMARK       I    between atoms: C15_24  and  N4_26 
REMARK    9  A    between atoms: N4_26  and  C16_28 
REMARK   10  A    between atoms: C16_28  and  C17_29 
ROOT
HETATM    1  C1  UNL     1      11.418  -9.609  24.621  1.00  0.00     0.027 C 
HETATM    2  C2  UNL     1      12.031 -10.286  23.839  1.00  0.00    -0.026 C 
HETATM    3  C3  UNL     1      12.777 -11.093  22.924  1.00  0.00    -0.014 C 
ENDROOT
BRANCH   3   4
HETATM    4  C4  UNL     1      13.404 -11.796  22.152  1.00  0.00    -0.060 C 
BRANCH   4   5
HETATM    5  C5  UNL     1      14.204 -12.612  21.225  1.00  0.00     0.261 C 
HETATM    6  C6  UNL     1      13.297 -12.964  20.059  1.00  0.00     0.054 C 
BRANCH   5   7
HETATM    7  N1  UNL     1      15.407 -11.899  20.767  1.00  0.00    -0.059 N 
ATOM      8  H12 UNL     1      15.193 -10.970  20.403  1.00  0.00     0.278 HD
ATOM      9  H11 UNL     1      16.008 -11.614  21.541  1.00  0.00     0.278 HD
BRANCH   7  10
HETATM   10  C7  UNL     1      16.089 -12.702  19.823  1.00  0.00     0.266 C 
BRANCH  10  11
HETATM   11  C8  UNL     1      17.595 -12.589  19.923  1.00  0.00     0.180 C 
HETATM   12  N2  UNL     1      18.219 -12.908  18.651  1.00  0.00    -0.348 N 
HETATM   13  C9  UNL     1      19.639 -12.952  18.604  1.00  0.00     0.219 C 
ATOM     14  H2  UNL     1      17.658 -13.094  17.821  1.00  0.00     0.163 HD
HETATM   15  O1  UNL     1      20.313 -12.674  17.592  1.00  0.00    -0.274 OA
HETATM   16  C10 UNL     1      20.306 -13.357  19.891  1.00  0.00     0.124 C 
HETATM   17  C11 UNL     1      19.330 -14.353  20.514  1.00  0.00     0.158 C 
HETATM   18  C22 UNL     1      18.157 -13.510  20.973  1.00  0.00     0.164 C 
HETATM   19  O6  UNL     1      17.770 -13.629  22.084  1.00  0.00    -0.295 OA
BRANCH  17  20
HETATM   20  C12 UNL     1      20.014 -15.032  21.662  1.00  0.00     0.234 C 
HETATM   21  O2  UNL     1      20.288 -16.264  21.563  1.00  0.00    -0.272 OA
HETATM   22  N3  UNL     1      20.354 -14.341  22.819  1.00  0.00    -0.326 N 
ATOM     23  H3  UNL     1      20.065 -13.364  22.779  1.00  0.00     0.168 HD
BRANCH  22  24
HETATM   24  C13 UNL     1      20.986 -14.646  24.014  1.00  0.00     0.076 C 
HETATM   25  C14 UNL     1      20.472 -13.894  25.225  1.00  0.00     0.074 C 
BRANCH  24  26
HETATM   26  C15 UNL     1      21.350 -16.011  24.404  1.00  0.00     0.264 C 
HETATM   27  O3  UNL     1      20.692 -16.661  25.225  1.00  0.00    -0.266 OA
HETATM   28  N4  UNL     1      22.489 -16.567  23.776  1.00  0.00    -0.351 N 
ATOM     29  H4  UNL     1      23.025 -15.956  23.160  1.00  0.00     0.163 HD
BRANCH  28  30
HETATM   30  C16 UNL     1      22.953 -17.913  23.932  1.00  0.00     0.169 C 
BRANCH  30  31
HETATM   31  C17 UNL     1      24.336 -18.033  23.392  1.00  0.00     0.050 A 
HETATM   32  C18 UNL     1      24.647 -19.152  22.613  1.00  0.00     0.023 A 
HETATM   33  C19 UNL     1      23.463 -19.874  22.031  1.00  0.00     0.069 C 
HETATM   34  N5  UNL     1      25.881 -19.465  22.233  1.00  0.00    -0.312 N 
HETATM   35  C20 UNL     1      26.870 -18.649  22.627  1.00  0.00     0.327 A 
ATOM     36  H5  UNL     1      26.068 -20.290  21.664  1.00  0.00     0.170 HD
HETATM   37  O4  UNL     1      28.037 -18.899  22.300  1.00  0.00    -0.247 OA
HETATM   38  N6  UNL     1      26.646 -17.534  23.387  1.00  0.00    -0.275 N 
HETATM   39  C21 UNL     1      25.393 -17.235  23.760  1.00  0.00     0.259 A 
ATOM     40  H6  UNL     1      27.424 -16.937  23.667  1.00  0.00     0.173 HD
HETATM   41  O5  UNL     1      25.190 -16.189  24.460  1.00  0.00    -0.267 OA
ENDBRANCH  30  31
ENDBRANCH  28  30
ENDBRANCH  24  26
ENDBRANCH  22  24
ENDBRANCH  17  20
ENDBRANCH  10  11
ENDBRANCH   7  10
ENDBRANCH   5   7
ENDBRANCH   4   5
ENDBRANCH   3   4
TORSDOF 10
ENDMDL
