MODEL 1
REMARK VINA RESULT: -7.993599138      0.000      0.000
REMARK  9 active torsions:
REMARK  status: ('A' for Active; 'I' for Inactive)
REMARK    1  A    between atoms: C2_2  and  C4_4 
REMARK    2  A    between atoms: C4_4  and  N1_5 
REMARK    3  A    between atoms: C4_4  and  C5_9 
REMARK       I    between atoms: C5_9  and  N2_11 
REMARK    4  A    between atoms: C9_15  and  C10_16 
REMARK    5  A    between atoms: C10_16  and  N3_17 
REMARK    6  A    between atoms: C10_16  and  C19_39 
REMARK    7  A    between atoms: C11_19  and  C12_20 
REMARK    8  A    between atoms: C11_19  and  C18_36 
REMARK    9  A    between atoms: C12_20  and  N5_24 
REMARK       I    between atoms: N6_27  and  C15_28 
REMARK       I    between atoms: C15_28  and  N7_30 
ROOT
HETATM    1  N3  UNL     1      18.741 -15.867  23.786  1.00  0.00    -0.350 N 
ATOM      2  H3  UNL     1      18.334 -15.273  24.509  1.00  0.00     0.166 HD
HETATM    3  C11 UNL     1      19.554 -15.125  23.010  1.00  0.00     0.142 C 
ENDROOT
BRANCH   1   4
HETATM    4  C10 UNL     1      18.253 -17.202  23.946  1.00  0.00     0.034 C 
BRANCH   4   5
HETATM    5  C9  UNL     1      17.311 -17.370  22.845  1.00  0.00     0.137 C 
HETATM    6  N2  UNL     1      16.175 -18.211  22.797  1.00  0.00    -0.340 N 
HETATM    7  C5  UNL     1      14.759 -17.927  22.689  1.00  0.00     0.251 C 
HETATM    8  C6  UNL     1      16.649 -19.570  22.939  1.00  0.00     0.127 C 
HETATM    9  O1  UNL     1      13.856 -18.627  23.095  1.00  0.00    -0.271 OA
HETATM   10  C7  UNL     1      17.803 -19.564  21.930  1.00  0.00     0.022 C 
HETATM   11  C8  UNL     1      18.028 -18.119  21.660  1.00  0.00     0.033 C 
BRANCH   7  12
HETATM   12  C4  UNL     1      14.372 -16.650  21.977  1.00  0.00     0.278 C 
BRANCH  12  13
HETATM   13  C2  UNL     1      14.009 -17.125  20.538  1.00  0.00     0.017 C 
HETATM   14  C1  UNL     1      12.777 -16.465  20.033  1.00  0.00     0.012 C 
HETATM   15  C3  UNL     1      15.150 -16.939  19.589  1.00  0.00     0.012 C 
ENDBRANCH  12  13
BRANCH  12  16
HETATM   16  N1  UNL     1      13.192 -16.072  22.518  1.00  0.00    -0.066 N 
ATOM     17  H13 UNL     1      12.359 -16.643  22.372  1.00  0.00     0.275 HD
ATOM     18  H12 UNL     1      13.171 -16.076  23.538  1.00  0.00     0.275 HD
ATOM     19  H11 UNL     1      13.119 -15.138  22.115  1.00  0.00     0.275 HD
ENDBRANCH  12  16
ENDBRANCH   7  12
ENDBRANCH   4   5
BRANCH   4  20
HETATM   20  C19 UNL     1      18.113 -17.521  25.363  1.00  0.00    -0.063 C 
HETATM   21  C20 UNL     1      18.153 -16.563  26.478  1.00  0.00     0.045 C 
HETATM   22  C21 UNL     1      18.801 -18.826  25.788  1.00  0.00     0.045 C 
ENDBRANCH   4  20
ENDBRANCH   1   4
BRANCH   3  23
HETATM   23  C12 UNL     1      19.293 -14.658  21.680  1.00  0.00     0.130 C 
HETATM   24  N4  UNL     1      20.233 -14.439  20.785  1.00  0.00    -0.384 N 
ATOM     25  H42 UNL     1      21.152 -14.712  21.132  1.00  0.00     0.157 HD
ATOM     26  H41 UNL     1      20.048 -14.107  19.839  1.00  0.00     0.157 HD
BRANCH  23  27
HETATM   27  N5  UNL     1      18.004 -14.275  21.191  1.00  0.00    -0.348 N 
HETATM   28  C13 UNL     1      17.775 -13.712  19.876  1.00  0.00     0.146 C 
HETATM   29  C14 UNL     1      16.894 -12.514  20.298  1.00  0.00     0.149 C 
HETATM   30  N6  UNL     1      16.044 -13.103  21.299  1.00  0.00    -0.316 N 
HETATM   31  C15 UNL     1      14.767 -12.624  21.699  1.00  0.00     0.325 C 
HETATM   32  C17 UNL     1      16.691 -14.300  21.813  1.00  0.00     0.255 C 
HETATM   33  O2  UNL     1      14.168 -13.262  22.641  1.00  0.00    -0.247 OA
HETATM   34  N7  UNL     1      14.162 -11.539  21.130  1.00  0.00    -0.285 N 
HETATM   35  C16 UNL     1      13.397 -10.626  21.415  1.00  0.00     0.204 C 
ATOM     36  H7  UNL     1      14.437 -11.465  20.151  1.00  0.00     0.172 HD
HETATM   37  N8  UNL     1      12.788 -10.400  22.699  1.00  0.00    -0.066 NA
HETATM   38  N9  UNL     1      13.071  -9.690  20.369  1.00  0.00    -0.066 NA
ENDBRANCH  23  27
ENDBRANCH   3  23
BRANCH   3  39
HETATM   39  C18 UNL     1      20.512 -14.433  23.899  1.00  0.00     0.285 C 
HETATM   40  N10 UNL     1      21.916 -14.400  23.561  1.00  0.00    -0.056 NA
HETATM   41  O3  UNL     1      20.249 -13.809  24.969  1.00  0.00    -0.269 OA
ENDBRANCH   3  39
TORSDOF 9
ENDMDL
MODEL 2
REMARK VINA RESULT: -7.846125537      2.283      6.873
REMARK  9 active torsions:
REMARK  status: ('A' for Active; 'I' for Inactive)
REMARK    1  A    between atoms: C2_2  and  C4_4 
REMARK    2  A    between atoms: C4_4  and  N1_5 
REMARK    3  A    between atoms: C4_4  and  C5_9 
REMARK       I    between atoms: C5_9  and  N2_11 
REMARK    4  A    between atoms: C9_15  and  C10_16 
REMARK    5  A    between atoms: C10_16  and  N3_17 
REMARK    6  A    between atoms: C10_16  and  C19_39 
REMARK    7  A    between atoms: C11_19  and  C12_20 
REMARK    8  A    between atoms: C11_19  and  C18_36 
REMARK    9  A    between atoms: C12_20  and  N5_24 
REMARK       I    between atoms: N6_27  and  C15_28 
REMARK       I    between atoms: C15_28  and  N7_30 
ROOT
HETATM    1  N3  UNL     1      17.033 -13.947  20.224  1.00  0.00    -0.350 N 
ATOM      2  H3  UNL     1      16.614 -13.796  21.141  1.00  0.00     0.166 HD
HETATM    3  C11 UNL     1      16.096 -13.769  19.274  1.00  0.00     0.142 C 
ENDROOT
BRANCH   1   4
HETATM    4  C10 UNL     1      18.416 -14.276  20.388  1.00  0.00     0.034 C 
BRANCH   4   5
HETATM    5  C9  UNL     1      18.492 -14.831  21.735  1.00  0.00     0.137 C 
HETATM    6  N2  UNL     1      19.495 -15.673  22.269  1.00  0.00    -0.340 N 
HETATM    7  C5  UNL     1      20.456 -15.484  23.336  1.00  0.00     0.251 C 
HETATM    8  C6  UNL     1      19.483 -16.892  21.490  1.00  0.00     0.127 C 
HETATM    9  O1  UNL     1      21.532 -16.033  23.435  1.00  0.00    -0.271 OA
HETATM   10  C7  UNL     1      17.980 -17.189  21.470  1.00  0.00     0.022 C 
HETATM   11  C8  UNL     1      17.361 -15.911  21.914  1.00  0.00     0.033 C 
BRANCH   7  12
HETATM   12  C4  UNL     1      20.067 -14.530  24.444  1.00  0.00     0.278 C 
BRANCH  12  13
HETATM   13  C2  UNL     1      19.701 -15.473  25.630  1.00  0.00     0.017 C 
HETATM   14  C1  UNL     1      20.152 -14.920  26.933  1.00  0.00     0.012 C 
HETATM   15  C3  UNL     1      18.241 -15.792  25.654  1.00  0.00     0.012 C 
ENDBRANCH  12  13
BRANCH  12  16
HETATM   16  N1  UNL     1      21.164 -13.742  24.882  1.00  0.00    -0.066 N 
ATOM     17  H13 UNL     1      21.774 -13.440  24.121  1.00  0.00     0.275 HD
ATOM     18  H12 UNL     1      20.892 -12.812  25.201  1.00  0.00     0.275 HD
ATOM     19  H11 UNL     1      21.646 -14.289  25.594  1.00  0.00     0.275 HD
ENDBRANCH  12  16
ENDBRANCH   7  12
ENDBRANCH   4   5
BRANCH   4  20
HETATM   20  C19 UNL     1      19.252 -13.276  19.731  1.00  0.00    -0.063 C 
HETATM   21  C20 UNL     1      19.506 -13.168  18.287  1.00  0.00     0.045 C 
HETATM   22  C21 UNL     1      20.531 -12.918  20.501  1.00  0.00     0.045 C 
ENDBRANCH   4  20
ENDBRANCH   1   4
BRANCH   3  23
HETATM   23  C12 UNL     1      15.432 -14.784  18.509  1.00  0.00     0.130 C 
HETATM   24  N4  UNL     1      15.315 -14.753  17.199  1.00  0.00    -0.384 N 
ATOM     25  H42 UNL     1      15.814 -13.959  16.797  1.00  0.00     0.157 HD
ATOM     26  H41 UNL     1      14.843 -15.475  16.655  1.00  0.00     0.157 HD
BRANCH  23  27
HETATM   27  N5  UNL     1      14.731 -15.897  19.073  1.00  0.00    -0.348 N 
HETATM   28  C13 UNL     1      13.481 -15.781  19.795  1.00  0.00     0.146 C 
HETATM   29  C14 UNL     1      13.852 -16.639  21.024  1.00  0.00     0.149 C 
HETATM   30  N6  UNL     1      14.565 -17.735  20.422  1.00  0.00    -0.316 N 
HETATM   31  C15 UNL     1      14.740 -19.030  20.984  1.00  0.00     0.325 C 
HETATM   32  C17 UNL     1      15.049 -17.315  19.117  1.00  0.00     0.255 C 
HETATM   33  O2  UNL     1      15.443 -19.872  20.314  1.00  0.00    -0.247 OA
HETATM   34  N7  UNL     1      14.198 -19.405  22.181  1.00  0.00    -0.285 N 
HETATM   35  C16 UNL     1      14.426 -20.143  23.131  1.00  0.00     0.204 C 
ATOM     36  H7  UNL     1      13.318 -18.912  22.330  1.00  0.00     0.172 HD
HETATM   37  N8  UNL     1      15.567 -21.005  23.280  1.00  0.00    -0.066 NA
HETATM   38  N9  UNL     1      13.462 -20.152  24.203  1.00  0.00    -0.066 NA
ENDBRANCH  23  27
ENDBRANCH   3  23
BRANCH   3  39
HETATM   39  C18 UNL     1      15.481 -12.443  19.497  1.00  0.00     0.285 C 
HETATM   40  N10 UNL     1      14.076 -12.242  19.223  1.00  0.00    -0.056 NA
HETATM   41  O3  UNL     1      16.047 -11.402  19.944  1.00  0.00    -0.269 OA
ENDBRANCH   3  39
TORSDOF 9
ENDMDL
MODEL 3
REMARK VINA RESULT: -7.681620198      2.562      7.105
REMARK  9 active torsions:
REMARK  status: ('A' for Active; 'I' for Inactive)
REMARK    1  A    between atoms: C2_2  and  C4_4 
REMARK    2  A    between atoms: C4_4  and  N1_5 
REMARK    3  A    between atoms: C4_4  and  C5_9 
REMARK       I    between atoms: C5_9  and  N2_11 
REMARK    4  A    between atoms: C9_15  and  C10_16 
REMARK    5  A    between atoms: C10_16  and  N3_17 
REMARK    6  A    between atoms: C10_16  and  C19_39 
REMARK    7  A    between atoms: C11_19  and  C12_20 
REMARK    8  A    between atoms: C11_19  and  C18_36 
REMARK    9  A    between atoms: C12_20  and  N5_24 
REMARK       I    between atoms: N6_27  and  C15_28 
REMARK       I    between atoms: C15_28  and  N7_30 
ROOT
HETATM    1  N3  UNL     1      15.947 -13.420  21.794  1.00  0.00    -0.350 N 
ATOM      2  H3  UNL     1      16.159 -12.852  22.614  1.00  0.00     0.166 HD
HETATM    3  C11 UNL     1      14.613 -13.471  21.623  1.00  0.00     0.142 C 
ENDROOT
BRANCH   1   4
HETATM    4  C10 UNL     1      17.171 -13.888  21.219  1.00  0.00     0.034 C 
BRANCH   4   5
HETATM    5  C9  UNL     1      17.832 -14.590  22.313  1.00  0.00     0.137 C 
HETATM    6  N2  UNL     1      19.191 -14.971  22.401  1.00  0.00    -0.340 N 
HETATM    7  C5  UNL     1      20.256 -14.573  23.297  1.00  0.00     0.251 C 
HETATM    8  C6  UNL     1      19.443 -15.893  21.316  1.00  0.00     0.127 C 
HETATM    9  O1  UNL     1      21.443 -14.584  23.048  1.00  0.00    -0.271 OA
HETATM   10  C7  UNL     1      18.238 -16.828  21.466  1.00  0.00     0.022 C 
HETATM   11  C8  UNL     1      17.317 -16.077  22.359  1.00  0.00     0.033 C 
BRANCH   7  12
HETATM   12  C4  UNL     1      19.850 -14.124  24.684  1.00  0.00     0.278 C 
BRANCH  12  13
HETATM   13  C2  UNL     1      19.720 -15.459  25.479  1.00  0.00     0.017 C 
HETATM   14  C1  UNL     1      20.610 -15.481  26.668  1.00  0.00     0.012 C 
HETATM   15  C3  UNL     1      18.302 -15.742  25.859  1.00  0.00     0.012 C 
ENDBRANCH  12  13
BRANCH  12  16
HETATM   16  N1  UNL     1      20.870 -13.373  25.325  1.00  0.00    -0.066 N 
ATOM     17  H13 UNL     1      20.512 -12.588  25.870  1.00  0.00     0.275 HD
ATOM     18  H12 UNL     1      21.315 -13.871  26.097  1.00  0.00     0.275 HD
ATOM     19  H11 UNL     1      21.524 -13.093  24.594  1.00  0.00     0.275 HD
ENDBRANCH  12  16
ENDBRANCH   7  12
ENDBRANCH   4   5
BRANCH   4  20
HETATM   20  C19 UNL     1      17.694 -12.903  20.277  1.00  0.00    -0.063 C 
HETATM   21  C20 UNL     1      17.662 -12.998  18.811  1.00  0.00     0.045 C 
HETATM   22  C21 UNL     1      19.012 -12.248  20.716  1.00  0.00     0.045 C 
ENDBRANCH   4  20
ENDBRANCH   1   4
BRANCH   3  23
HETATM   23  C12 UNL     1      13.744 -14.575  21.906  1.00  0.00     0.130 C 
HETATM   24  N4  UNL     1      12.818 -14.556  22.842  1.00  0.00    -0.384 N 
ATOM     25  H42 UNL     1      12.752 -13.639  23.284  1.00  0.00     0.157 HD
ATOM     26  H41 UNL     1      12.200 -15.341  23.043  1.00  0.00     0.157 HD
BRANCH  23  27
HETATM   27  N5  UNL     1      13.837 -15.862  21.287  1.00  0.00    -0.348 N 
HETATM   28  C13 UNL     1      14.387 -16.081  19.964  1.00  0.00     0.146 C 
HETATM   29  C14 UNL     1      13.256 -16.969  19.397  1.00  0.00     0.149 C 
HETATM   30  N6  UNL     1      12.957 -17.825  20.514  1.00  0.00    -0.316 N 
HETATM   31  C15 UNL     1      12.346 -19.108  20.446  1.00  0.00     0.325 C 
HETATM   32  C17 UNL     1      13.419 -17.180  21.733  1.00  0.00     0.255 C 
HETATM   33  O2  UNL     1      12.121 -19.712  21.558  1.00  0.00    -0.247 OA
HETATM   34  N7  UNL     1      12.000 -19.710  19.270  1.00  0.00    -0.285 N 
HETATM   35  C16 UNL     1      11.166 -20.480  18.812  1.00  0.00     0.204 C 
ATOM     36  H7  UNL     1      12.648 -19.427  18.535  1.00  0.00     0.172 HD
HETATM   37  N8  UNL     1      10.093 -21.100  19.544  1.00  0.00    -0.066 NA
HETATM   38  N9  UNL     1      11.263 -20.800  17.410  1.00  0.00    -0.066 NA
ENDBRANCH  23  27
ENDBRANCH   3  23
BRANCH   3  39
HETATM   39  C18 UNL     1      14.112 -12.080  21.598  1.00  0.00     0.285 C 
HETATM   40  N10 UNL     1      14.290 -11.268  20.416  1.00  0.00    -0.056 NA
HETATM   41  O3  UNL     1      13.489 -11.474  22.520  1.00  0.00    -0.269 OA
ENDBRANCH   3  39
TORSDOF 9
ENDMDL
MODEL 4
REMARK VINA RESULT: -7.623786175      2.535      7.201
REMARK  9 active torsions:
REMARK  status: ('A' for Active; 'I' for Inactive)
REMARK    1  A    between atoms: C2_2  and  C4_4 
REMARK    2  A    between atoms: C4_4  and  N1_5 
REMARK    3  A    between atoms: C4_4  and  C5_9 
REMARK       I    between atoms: C5_9  and  N2_11 
REMARK    4  A    between atoms: C9_15  and  C10_16 
REMARK    5  A    between atoms: C10_16  and  N3_17 
REMARK    6  A    between atoms: C10_16  and  C19_39 
REMARK    7  A    between atoms: C11_19  and  C12_20 
REMARK    8  A    between atoms: C11_19  and  C18_36 
REMARK    9  A    between atoms: C12_20  and  N5_24 
REMARK       I    between atoms: N6_27  and  C15_28 
REMARK       I    between atoms: C15_28  and  N7_30 
ROOT
HETATM    1  N3  UNL     1      15.745 -13.437  21.744  1.00  0.00    -0.350 N 
ATOM      2  H3  UNL     1      15.966 -12.885  22.572  1.00  0.00     0.166 HD
HETATM    3  C11 UNL     1      14.413 -13.427  21.547  1.00  0.00     0.142 C 
ENDROOT
BRANCH   1   4
HETATM    4  C10 UNL     1      16.957 -13.957  21.189  1.00  0.00     0.034 C 
BRANCH   4   5
HETATM    5  C9  UNL     1      17.576 -14.675  22.297  1.00  0.00     0.137 C 
HETATM    6  N2  UNL     1      18.903 -15.156  22.384  1.00  0.00    -0.340 N 
HETATM    7  C5  UNL     1      20.006 -14.813  23.258  1.00  0.00     0.251 C 
HETATM    8  C6  UNL     1      19.073 -16.125  21.324  1.00  0.00     0.127 C 
HETATM    9  O1  UNL     1      21.185 -14.922  22.999  1.00  0.00    -0.271 OA
HETATM   10  C7  UNL     1      17.803 -16.961  21.512  1.00  0.00     0.022 C 
HETATM   11  C8  UNL     1      16.951 -16.117  22.392  1.00  0.00     0.033 C 
BRANCH   7  12
HETATM   12  C4  UNL     1      19.650 -14.296  24.635  1.00  0.00     0.278 C 
BRANCH  12  13
HETATM   13  C2  UNL     1      19.580 -15.586  25.507  1.00  0.00     0.017 C 
HETATM   14  C1  UNL     1      20.416 -15.471  26.730  1.00  0.00     0.012 C 
HETATM   15  C3  UNL     1      18.171 -15.950  25.846  1.00  0.00     0.012 C 
ENDBRANCH  12  13
BRANCH  12  16
HETATM   16  N1  UNL     1      20.682 -13.493  25.189  1.00  0.00    -0.066 N 
ATOM     17  H13 UNL     1      20.670 -13.466  26.208  1.00  0.00     0.275 HD
ATOM     18  H12 UNL     1      21.612 -13.900  25.084  1.00  0.00     0.275 HD
ATOM     19  H11 UNL     1      20.593 -12.573  24.759  1.00  0.00     0.275 HD
ENDBRANCH  12  16
ENDBRANCH   7  12
ENDBRANCH   4   5
BRANCH   4  20
HETATM   20  C19 UNL     1      17.531 -13.000  20.248  1.00  0.00    -0.063 C 
HETATM   21  C20 UNL     1      17.568 -13.135  18.784  1.00  0.00     0.045 C 
HETATM   22  C21 UNL     1      18.830 -12.340  20.731  1.00  0.00     0.045 C 
ENDBRANCH   4  20
ENDBRANCH   1   4
BRANCH   3  23
HETATM   23  C12 UNL     1      13.490 -14.493  21.806  1.00  0.00     0.130 C 
HETATM   24  N4  UNL     1      12.783 -14.595  22.911  1.00  0.00    -0.384 N 
ATOM     25  H42 UNL     1      12.921 -13.788  23.520  1.00  0.00     0.157 HD
ATOM     26  H41 UNL     1      12.126 -15.352  23.095  1.00  0.00     0.157 HD
BRANCH  23  27
HETATM   27  N5  UNL     1      13.296 -15.624  20.952  1.00  0.00    -0.348 N 
HETATM   28  C13 UNL     1      12.416 -15.623  19.800  1.00  0.00     0.146 C 
HETATM   29  C14 UNL     1      11.664 -16.941  20.093  1.00  0.00     0.149 C 
HETATM   30  N6  UNL     1      12.728 -17.800  20.542  1.00  0.00    -0.316 N 
HETATM   31  C15 UNL     1      12.724 -19.222  20.512  1.00  0.00     0.325 C 
HETATM   32  C17 UNL     1      13.832 -16.974  21.001  1.00  0.00     0.255 C 
HETATM   33  O2  UNL     1      13.753 -19.823  20.994  1.00  0.00    -0.247 OA
HETATM   34  N7  UNL     1      11.694 -19.957  19.997  1.00  0.00    -0.285 N 
HETATM   35  C16 UNL     1      11.133 -21.034  20.151  1.00  0.00     0.204 C 
ATOM     36  H7  UNL     1      11.249 -19.442  19.238  1.00  0.00     0.172 HD
HETATM   37  N8  UNL     1      11.480 -22.041  21.118  1.00  0.00    -0.066 NA
HETATM   38  N9  UNL     1      10.020 -21.327  19.282  1.00  0.00    -0.066 NA
ENDBRANCH  23  27
ENDBRANCH   3  23
BRANCH   3  39
HETATM   39  C18 UNL     1      13.976 -12.014  21.522  1.00  0.00     0.285 C 
HETATM   40  N10 UNL     1      13.227 -11.470  22.631  1.00  0.00    -0.056 NA
HETATM   41  O3  UNL     1      14.203 -11.158  20.616  1.00  0.00    -0.269 OA
ENDBRANCH   3  39
TORSDOF 9
ENDMDL
MODEL 5
REMARK VINA RESULT: -7.545634271      2.582      7.073
REMARK  9 active torsions:
REMARK  status: ('A' for Active; 'I' for Inactive)
REMARK    1  A    between atoms: C2_2  and  C4_4 
REMARK    2  A    between atoms: C4_4  and  N1_5 
REMARK    3  A    between atoms: C4_4  and  C5_9 
REMARK       I    between atoms: C5_9  and  N2_11 
REMARK    4  A    between atoms: C9_15  and  C10_16 
REMARK    5  A    between atoms: C10_16  and  N3_17 
REMARK    6  A    between atoms: C10_16  and  C19_39 
REMARK    7  A    between atoms: C11_19  and  C12_20 
REMARK    8  A    between atoms: C11_19  and  C18_36 
REMARK    9  A    between atoms: C12_20  and  N5_24 
REMARK       I    between atoms: N6_27  and  C15_28 
REMARK       I    between atoms: C15_28  and  N7_30 
ROOT
HETATM    1  N3  UNL     1      16.813 -13.405  21.059  1.00  0.00    -0.350 N 
ATOM      2  H3  UNL     1      16.927 -12.634  21.717  1.00  0.00     0.166 HD
HETATM    3  C11 UNL     1      15.519 -13.492  20.699  1.00  0.00     0.142 C 
ENDROOT
BRANCH   1   4
HETATM    4  C10 UNL     1      18.084 -14.023  20.834  1.00  0.00     0.034 C 
BRANCH   4   5
HETATM    5  C9  UNL     1      18.407 -14.646  22.113  1.00  0.00     0.137 C 
HETATM    6  N2  UNL     1      19.624 -15.256  22.497  1.00  0.00    -0.340 N 
HETATM    7  C5  UNL     1      20.601 -14.922  23.511  1.00  0.00     0.251 C 
HETATM    8  C6  UNL     1      19.834 -16.376  21.606  1.00  0.00     0.127 C 
HETATM    9  O1  UNL     1      21.782 -15.198  23.486  1.00  0.00    -0.271 OA
HETATM   10  C7  UNL     1      18.449 -17.029  21.656  1.00  0.00     0.022 C 
HETATM   11  C8  UNL     1      17.585 -15.981  22.260  1.00  0.00     0.033 C 
BRANCH   7  12
HETATM   12  C4  UNL     1      20.095 -14.182  24.730  1.00  0.00     0.278 C 
BRANCH  12  13
HETATM   13  C2  UNL     1      19.781 -15.320  25.748  1.00  0.00     0.017 C 
HETATM   14  C1  UNL     1      20.258 -14.984  27.114  1.00  0.00     0.012 C 
HETATM   15  C3  UNL     1      18.328 -15.673  25.753  1.00  0.00     0.012 C 
ENDBRANCH  12  13
BRANCH  12  16
HETATM   16  N1  UNL     1      21.103 -13.378  25.325  1.00  0.00    -0.066 N 
ATOM     17  H13 UNL     1      22.032 -13.543  24.940  1.00  0.00     0.275 HD
ATOM     18  H12 UNL     1      21.035 -12.391  25.073  1.00  0.00     0.275 HD
ATOM     19  H11 UNL     1      21.046 -13.543  26.330  1.00  0.00     0.275 HD
ENDBRANCH  12  16
ENDBRANCH   7  12
ENDBRANCH   4   5
BRANCH   4  20
HETATM   20  C19 UNL     1      18.901 -13.190  19.958  1.00  0.00    -0.063 C 
HETATM   21  C20 UNL     1      18.771 -13.074  18.498  1.00  0.00     0.045 C 
HETATM   22  C21 UNL     1      20.387 -13.137  20.342  1.00  0.00     0.045 C 
ENDBRANCH   4  20
ENDBRANCH   1   4
BRANCH   3  23
HETATM   23  C12 UNL     1      14.562 -14.468  21.131  1.00  0.00     0.130 C 
HETATM   24  N4  UNL     1      13.974 -14.444  22.309  1.00  0.00    -0.384 N 
ATOM     25  H42 UNL     1      14.230 -13.611  22.839  1.00  0.00     0.157 HD
ATOM     26  H41 UNL     1      13.293 -15.138  22.616  1.00  0.00     0.157 HD
BRANCH  23  27
HETATM   27  N5  UNL     1      14.202 -15.636  20.388  1.00  0.00    -0.348 N 
HETATM   28  C13 UNL     1      13.284 -15.628  19.267  1.00  0.00     0.146 C 
HETATM   29  C14 UNL     1      12.395 -16.815  19.698  1.00  0.00     0.149 C 
HETATM   30  N6  UNL     1      13.366 -17.755  20.192  1.00  0.00    -0.316 N 
HETATM   31  C15 UNL     1      13.194 -19.163  20.291  1.00  0.00     0.325 C 
HETATM   32  C17 UNL     1      14.578 -17.031  20.544  1.00  0.00     0.255 C 
HETATM   33  O2  UNL     1      14.163 -19.840  20.795  1.00  0.00    -0.247 OA
HETATM   34  N7  UNL     1      12.065 -19.810  19.873  1.00  0.00    -0.285 N 
HETATM   35  C16 UNL     1      11.387 -20.794  20.140  1.00  0.00     0.204 C 
ATOM     36  H7  UNL     1      11.655 -19.312  19.084  1.00  0.00     0.172 HD
HETATM   37  N8  UNL     1      11.651 -21.748  21.183  1.00  0.00    -0.066 NA
HETATM   38  N9  UNL     1      10.215 -21.024  19.333  1.00  0.00    -0.066 NA
ENDBRANCH  23  27
ENDBRANCH   3  23
BRANCH   3  39
HETATM   39  C18 UNL     1      15.099 -12.158  20.217  1.00  0.00     0.285 C 
HETATM   40  N10 UNL     1      13.695 -11.829  20.132  1.00  0.00    -0.056 NA
HETATM   41  O3  UNL     1      15.850 -11.198  19.870  1.00  0.00    -0.269 OA
ENDBRANCH   3  39
TORSDOF 9
ENDMDL
