MODEL 1
REMARK VINA RESULT: -6.081522493      0.000      0.000
REMARK  4 active torsions:
REMARK  status: ('A' for Active; 'I' for Inactive)
REMARK    1  A    between atoms: N1_2  and  C3_4 
REMARK    2  A    between atoms: C3_4  and  C4_5 
REMARK    3  A    between atoms: C4_5  and  C5_6 
REMARK    4  A    between atoms: C5_6  and  C6_7 
ROOT
HETATM    1  C6  UNL     1      -1.085  16.284  18.144  1.00  0.00    -0.006 A 
HETATM    2  C7  UNL     1      -1.283  17.362  17.310  1.00  0.00     0.088 A 
HETATM    3 BR1  UNL     1      -0.806  19.197  17.639  1.00  0.00    -0.031 Br
HETATM    4  N2  UNL     1      -1.922  16.970  16.193  1.00  0.00    -0.334 N 
ATOM      5  H2  UNL     1      -2.182  17.585  15.421  1.00  0.00     0.168 HD
HETATM    6  C8  UNL     1      -2.169  15.650  16.242  1.00  0.00     0.135 A 
HETATM    7  N3  UNL     1      -2.722  14.605  15.566  1.00  0.00    -0.283 N 
ATOM      8  H3  UNL     1      -3.173  14.641  14.652  1.00  0.00     0.188 HD
HETATM    9  N4  UNL     1      -2.563  13.538  16.320  1.00  0.00    -0.283 N 
ATOM     10  H4  UNL     1      -2.877  12.599  16.075  1.00  0.00     0.188 HD
HETATM   11  C9  UNL     1      -1.919  13.869  17.471  1.00  0.00     0.128 A 
HETATM   12  N5  UNL     1      -1.612  13.059  18.411  1.00  0.00    -0.384 N 
ATOM     13  H51 UNL     1      -1.129  13.307  19.275  1.00  0.00     0.157 HD
ATOM     14  H52 UNL     1      -1.807  12.058  18.428  1.00  0.00     0.157 HD
HETATM   15  C10 UNL     1      -1.655  15.213  17.448  1.00  0.00     0.063 A 
ENDROOT
BRANCH   1  16
HETATM   16  C5  UNL     1      -0.387  16.226  19.450  1.00  0.00     0.047 C 
BRANCH  16  17
HETATM   17  C4  UNL     1      -1.180  16.855  20.537  1.00  0.00     0.049 C 
BRANCH  17  18
HETATM   18  C3  UNL     1      -0.494  17.967  21.209  1.00  0.00     0.057 C 
BRANCH  18  19
HETATM   19  N1  UNL     1      -0.795  18.256  22.413  1.00  0.00    -0.402 N 
HETATM   20  C1  UNL     1      -0.093  19.352  23.041  1.00  0.00     0.148 C 
HETATM   21  C2  UNL     1      -1.782  17.508  23.096  1.00  0.00     0.148 C 
ENDBRANCH  18  19
ENDBRANCH  17  18
ENDBRANCH  16  17
ENDBRANCH   1  16
TORSDOF 4
ENDMDL
MODEL 2
REMARK VINA RESULT: -5.918512093      1.308      1.648
REMARK  4 active torsions:
REMARK  status: ('A' for Active; 'I' for Inactive)
REMARK    1  A    between atoms: N1_2  and  C3_4 
REMARK    2  A    between atoms: C3_4  and  C4_5 
REMARK    3  A    between atoms: C4_5  and  C5_6 
REMARK    4  A    between atoms: C5_6  and  C6_7 
ROOT
HETATM    1  C6  UNL     1      -0.609  17.249  19.041  1.00  0.00    -0.006 A 
HETATM    2  C7  UNL     1      -0.733  18.087  17.954  1.00  0.00     0.088 A 
HETATM    3 BR1  UNL     1      -0.315  19.963  17.873  1.00  0.00    -0.031 Br
HETATM    4  N2  UNL     1      -1.249  17.414  16.910  1.00  0.00    -0.334 N 
ATOM      5  H2  UNL     1      -1.435  17.816  15.991  1.00  0.00     0.168 HD
HETATM    6  C8  UNL     1      -1.484  16.137  17.254  1.00  0.00     0.135 A 
HETATM    7  N3  UNL     1      -1.951  14.940  16.802  1.00  0.00    -0.283 N 
ATOM      8  H3  UNL     1      -2.306  14.739  15.867  1.00  0.00     0.188 HD
HETATM    9  N4  UNL     1      -1.857  14.092  17.804  1.00  0.00    -0.283 N 
ATOM     10  H4  UNL     1      -2.132  13.111  17.765  1.00  0.00     0.188 HD
HETATM   11  C9  UNL     1      -1.339  14.714  18.897  1.00  0.00     0.128 A 
HETATM   12  N5  UNL     1      -1.121  14.165  20.031  1.00  0.00    -0.384 N 
ATOM     13  H51 UNL     1      -0.733  14.631  20.851  1.00  0.00     0.157 HD
ATOM     14  H52 UNL     1      -1.305  13.191  20.271  1.00  0.00     0.157 HD
HETATM   15  C10 UNL     1      -1.091  16.022  18.573  1.00  0.00     0.063 A 
ENDROOT
BRANCH   1  16
HETATM   16  C5  UNL     1      -0.049  17.532  20.383  1.00  0.00     0.047 C 
BRANCH  16  17
HETATM   17  C4  UNL     1      -1.107  17.848  21.376  1.00  0.00     0.049 C 
BRANCH  17  18
HETATM   18  C3  UNL     1      -0.591  18.325  22.666  1.00  0.00     0.057 C 
BRANCH  18  19
HETATM   19  N1  UNL     1      -1.210  18.029  23.740  1.00  0.00    -0.402 N 
HETATM   20  C1  UNL     1      -2.645  18.192  23.760  1.00  0.00     0.148 C 
HETATM   21  C2  UNL     1      -0.492  17.564  24.867  1.00  0.00     0.148 C 
ENDBRANCH  18  19
ENDBRANCH  17  18
ENDBRANCH  16  17
ENDBRANCH   1  16
TORSDOF 4
ENDMDL
MODEL 3
REMARK VINA RESULT: -5.817377289      2.631      3.027
REMARK  4 active torsions:
REMARK  status: ('A' for Active; 'I' for Inactive)
REMARK    1  A    between atoms: N1_2  and  C3_4 
REMARK    2  A    between atoms: C3_4  and  C4_5 
REMARK    3  A    between atoms: C4_5  and  C5_6 
REMARK    4  A    between atoms: C5_6  and  C6_7 
ROOT
HETATM    1  C6  UNL     1      -0.389  17.343  18.665  1.00  0.00    -0.006 A 
HETATM    2  C7  UNL     1      -0.922  18.112  17.653  1.00  0.00     0.088 A 
HETATM    3 BR1  UNL     1      -0.855  20.027  17.482  1.00  0.00    -0.031 Br
HETATM    4  N2  UNL     1      -1.567  17.328  16.770  1.00  0.00    -0.334 N 
ATOM      5  H2  UNL     1      -2.043  17.663  15.932  1.00  0.00     0.168 HD
HETATM    6  C8  UNL     1      -1.492  16.043  17.152  1.00  0.00     0.135 A 
HETATM    7  N3  UNL     1      -1.854  14.771  16.825  1.00  0.00    -0.283 N 
ATOM      8  H3  UNL     1      -2.395  14.483  16.010  1.00  0.00     0.188 HD
HETATM    9  N4  UNL     1      -1.370  13.985  17.763  1.00  0.00    -0.283 N 
ATOM     10  H4  UNL     1      -1.480  12.971  17.788  1.00  0.00     0.188 HD
HETATM   11  C9  UNL     1      -0.702  14.720  18.692  1.00  0.00     0.128 A 
HETATM   12  N5  UNL     1      -0.116  14.253  19.728  1.00  0.00    -0.384 N 
ATOM     13  H51 UNL     1       0.384  14.804  20.426  1.00  0.00     0.157 HD
ATOM     14  H52 UNL     1      -0.070  13.271  20.000  1.00  0.00     0.157 HD
HETATM   15  C10 UNL     1      -0.764  16.039  18.326  1.00  0.00     0.063 A 
ENDROOT
BRANCH   1  16
HETATM   16  C5  UNL     1       0.437  17.760  19.822  1.00  0.00     0.047 C 
BRANCH  16  17
HETATM   17  C4  UNL     1       1.718  18.382  19.400  1.00  0.00     0.049 C 
BRANCH  17  18
HETATM   18  C3  UNL     1       2.363  19.188  20.445  1.00  0.00     0.057 C 
BRANCH  18  19
HETATM   19  N1  UNL     1       3.105  20.170  20.114  1.00  0.00    -0.402 N 
HETATM   20  C1  UNL     1       4.131  20.586  21.043  1.00  0.00     0.148 C 
HETATM   21  C2  UNL     1       2.905  20.824  18.876  1.00  0.00     0.148 C 
ENDBRANCH  18  19
ENDBRANCH  17  18
ENDBRANCH  16  17
ENDBRANCH   1  16
TORSDOF 4
ENDMDL
MODEL 4
REMARK VINA RESULT: -5.700604746      3.397      4.703
REMARK  4 active torsions:
REMARK  status: ('A' for Active; 'I' for Inactive)
REMARK    1  A    between atoms: N1_2  and  C3_4 
REMARK    2  A    between atoms: C3_4  and  C4_5 
REMARK    3  A    between atoms: C4_5  and  C5_6 
REMARK    4  A    between atoms: C5_6  and  C6_7 
ROOT
HETATM    1  C6  UNL     1      -0.185  17.919  18.284  1.00  0.00    -0.006 A 
HETATM    2  C7  UNL     1       0.521  17.695  19.446  1.00  0.00     0.088 A 
HETATM    3 BR1  UNL     1       1.727  18.906  20.330  1.00  0.00    -0.031 Br
HETATM    4  N2  UNL     1       0.290  16.448  19.892  1.00  0.00    -0.334 N 
ATOM      5  H2  UNL     1       0.698  16.045  20.737  1.00  0.00     0.168 HD
HETATM    6  C8  UNL     1      -0.555  15.810  19.066  1.00  0.00     0.135 A 
HETATM    7  N3  UNL     1      -1.211  14.636  18.848  1.00  0.00    -0.283 N 
ATOM      8  H3  UNL     1      -1.171  13.799  19.430  1.00  0.00     0.188 HD
HETATM    9  N4  UNL     1      -1.908  14.790  17.743  1.00  0.00    -0.283 N 
ATOM     10  H4  UNL     1      -2.505  14.076  17.326  1.00  0.00     0.188 HD
HETATM   11  C9  UNL     1      -1.717  16.037  17.238  1.00  0.00     0.128 A 
HETATM   12  N5  UNL     1      -2.254  16.500  16.173  1.00  0.00    -0.384 N 
ATOM     13  H51 UNL     1      -2.111  17.435  15.794  1.00  0.00     0.157 HD
ATOM     14  H52 UNL     1      -2.896  15.998  15.559  1.00  0.00     0.157 HD
HETATM   15  C10 UNL     1      -0.856  16.712  18.063  1.00  0.00     0.063 A 
ENDROOT
BRANCH   1  16
HETATM   16  C5  UNL     1      -0.279  19.151  17.467  1.00  0.00     0.047 C 
BRANCH  16  17
HETATM   17  C4  UNL     1       0.979  19.432  16.730  1.00  0.00     0.049 C 
BRANCH  17  18
HETATM   18  C3  UNL     1       1.533  20.770  16.982  1.00  0.00     0.057 C 
BRANCH  18  19
HETATM   19  N1  UNL     1       2.792  20.954  16.907  1.00  0.00    -0.402 N 
HETATM   20  C1  UNL     1       3.474  20.491  15.720  1.00  0.00     0.148 C 
HETATM   21  C2  UNL     1       3.480  21.588  17.968  1.00  0.00     0.148 C 
ENDBRANCH  18  19
ENDBRANCH  17  18
ENDBRANCH  16  17
ENDBRANCH   1  16
TORSDOF 4
ENDMDL
MODEL 5
REMARK VINA RESULT: -5.679662424      3.428      5.315
REMARK  4 active torsions:
REMARK  status: ('A' for Active; 'I' for Inactive)
REMARK    1  A    between atoms: N1_2  and  C3_4 
REMARK    2  A    between atoms: C3_4  and  C4_5 
REMARK    3  A    between atoms: C4_5  and  C5_6 
REMARK    4  A    between atoms: C5_6  and  C6_7 
ROOT
HETATM    1  C6  UNL     1       0.048  18.073  18.257  1.00  0.00    -0.006 A 
HETATM    2  C7  UNL     1       0.749  17.869  19.426  1.00  0.00     0.088 A 
HETATM    3 BR1  UNL     1       2.053  19.037  20.224  1.00  0.00    -0.031 Br
HETATM    4  N2  UNL     1       0.429  16.673  19.953  1.00  0.00    -0.334 N 
ATOM      5  H2  UNL     1       0.815  16.294  20.818  1.00  0.00     0.168 HD
HETATM    6  C8  UNL     1      -0.471  16.051  19.173  1.00  0.00     0.135 A 
HETATM    7  N3  UNL     1      -1.217  14.920  19.035  1.00  0.00    -0.283 N 
ATOM      8  H3  UNL     1      -1.233  14.121  19.669  1.00  0.00     0.188 HD
HETATM    9  N4  UNL     1      -1.913  15.057  17.927  1.00  0.00    -0.283 N 
ATOM     10  H4  UNL     1      -2.567  14.366  17.560  1.00  0.00     0.188 HD
HETATM   11  C9  UNL     1      -1.634  16.252  17.342  1.00  0.00     0.128 A 
HETATM   12  N5  UNL     1      -2.147  16.686  16.254  1.00  0.00    -0.384 N 
ATOM     13  H51 UNL     1      -1.937  17.583  15.816  1.00  0.00     0.157 HD
ATOM     14  H52 UNL     1      -2.831  16.198  15.677  1.00  0.00     0.157 HD
HETATM   15  C10 UNL     1      -0.715  16.909  18.118  1.00  0.00     0.063 A 
ENDROOT
BRANCH   1  16
HETATM   16  C5  UNL     1       0.039  19.255  17.365  1.00  0.00     0.047 C 
BRANCH  16  17
HETATM   17  C4  UNL     1       1.349  19.465  16.698  1.00  0.00     0.049 C 
BRANCH  17  18
HETATM   18  C3  UNL     1       1.399  20.655  15.838  1.00  0.00     0.057 C 
BRANCH  18  19
HETATM   19  N1  UNL     1       2.258  20.718  14.899  1.00  0.00    -0.402 N 
HETATM   20  C1  UNL     1       3.657  20.723  15.262  1.00  0.00     0.148 C 
HETATM   21  C2  UNL     1       1.833  20.789  13.552  1.00  0.00     0.148 C 
ENDBRANCH  18  19
ENDBRANCH  17  18
ENDBRANCH  16  17
ENDBRANCH   1  16
TORSDOF 4
ENDMDL
