MODEL 1
REMARK VINA RESULT: -6.367134178      0.000      0.000
REMARK  6 active torsions:
REMARK  status: ('A' for Active; 'I' for Inactive)
REMARK       I    between atoms: C1_4  and  N3_6 
REMARK    1  A    between atoms: C2_8  and  C3_9 
REMARK    2  A    between atoms: C2_8  and  N4_20 
REMARK    3  A    between atoms: C3_9  and  C4_10 
REMARK    4  A    between atoms: C5_11  and  C6_12 
REMARK    5  A    between atoms: C6_12  and  C7_13 
REMARK    6  A    between atoms: C7_13  and  C8_14 
ROOT
HETATM    1  N1  UNL     1       0.167  15.777  19.622  1.00  0.00    -0.373 N 
ATOM      2  H11 UNL     1       0.310  15.477  18.657  1.00  0.00     0.158 HD
ATOM      3  H12 UNL     1       0.255  15.103  20.383  1.00  0.00     0.158 HD
HETATM    4  C1  UNL     1      -0.123  16.997  19.882  1.00  0.00     0.187 C 
HETATM    5  N2  UNL     1      -0.320  17.412  21.216  1.00  0.00    -0.064 NA
HETATM    6  N3  UNL     1      -0.244  17.930  18.828  1.00  0.00    -0.320 N 
ATOM      7  H3  UNL     1      -1.139  18.010  18.347  1.00  0.00     0.169 HD
HETATM    8  C2  UNL     1       0.730  18.682  18.450  1.00  0.00     0.096 C 
ENDROOT
BRANCH   8   9
HETATM    9  C3  UNL     1       0.514  19.629  17.339  1.00  0.00     0.170 C 
BRANCH   9  10
HETATM   10  C4  UNL     1       1.770  19.907  16.659  1.00  0.00    -0.099 C 
HETATM   11  C5  UNL     1       2.838  20.142  16.106  1.00  0.00    -0.106 C 
BRANCH  11  12
HETATM   12  C6  UNL     1       4.123  20.423  15.467  1.00  0.00     0.094 C 
BRANCH  12  13
HETATM   13  C7  UNL     1       3.886  21.229  14.214  1.00  0.00     0.017 C 
BRANCH  13  14
HETATM   14  C8  UNL     1       5.072  21.181  13.274  1.00  0.00    -0.014 C 
HETATM   15  C9  UNL     1       5.599  22.561  13.013  1.00  0.00     0.005 C 
HETATM   16  C10 UNL     1       6.971  22.609  12.458  1.00  0.00     0.000 C 
HETATM   17  C11 UNL     1       7.924  21.602  12.998  1.00  0.00     0.000 C 
HETATM   18  C12 UNL     1       7.315  20.216  13.109  1.00  0.00     0.000 C 
HETATM   19  C13 UNL     1       6.120  20.344  14.006  1.00  0.00     0.005 C 
ENDBRANCH  13  14
ENDBRANCH  12  13
ENDBRANCH  11  12
ENDBRANCH   9  10
ENDBRANCH   8   9
BRANCH   8  20
HETATM   20  N4  UNL     1       1.968  18.550  19.134  1.00  0.00    -0.322 N 
HETATM   21  C14 UNL     1       2.317  19.332  20.078  1.00  0.00     0.202 C 
HETATM   22  N5  UNL     1       3.596  19.090  20.688  1.00  0.00    -0.066 NA
HETATM   23  N6  UNL     1       1.523  20.406  20.548  1.00  0.00    -0.066 NA
ATOM     24  H4  UNL     1       2.603  17.801  18.858  1.00  0.00     0.169 HD
ENDBRANCH   8  20
TORSDOF 6
ENDMDL
MODEL 2
REMARK VINA RESULT: -6.204169744      0.634      1.317
REMARK  6 active torsions:
REMARK  status: ('A' for Active; 'I' for Inactive)
REMARK       I    between atoms: C1_4  and  N3_6 
REMARK    1  A    between atoms: C2_8  and  C3_9 
REMARK    2  A    between atoms: C2_8  and  N4_20 
REMARK    3  A    between atoms: C3_9  and  C4_10 
REMARK    4  A    between atoms: C5_11  and  C6_12 
REMARK    5  A    between atoms: C6_12  and  C7_13 
REMARK    6  A    between atoms: C7_13  and  C8_14 
ROOT
HETATM    1  N1  UNL     1       0.175  15.860  19.642  1.00  0.00    -0.373 N 
ATOM      2  H11 UNL     1       0.256  15.588  18.662  1.00  0.00     0.158 HD
ATOM      3  H12 UNL     1       0.318  15.165  20.376  1.00  0.00     0.158 HD
HETATM    4  C1  UNL     1      -0.105  17.069  19.955  1.00  0.00     0.187 C 
HETATM    5  N2  UNL     1      -0.216  17.445  21.311  1.00  0.00    -0.064 NA
HETATM    6  N3  UNL     1      -0.301  18.031  18.939  1.00  0.00    -0.320 N 
ATOM      7  H3  UNL     1      -1.226  18.118  18.521  1.00  0.00     0.169 HD
HETATM    8  C2  UNL     1       0.641  18.801  18.520  1.00  0.00     0.096 C 
ENDROOT
BRANCH   8   9
HETATM    9  C3  UNL     1       0.347  19.777  17.454  1.00  0.00     0.170 C 
BRANCH   9  10
HETATM   10  C4  UNL     1       1.529  20.008  16.637  1.00  0.00    -0.099 C 
HETATM   11  C5  UNL     1       2.513  20.194  15.932  1.00  0.00    -0.106 C 
BRANCH  11  12
HETATM   12  C6  UNL     1       3.676  20.409  15.072  1.00  0.00     0.094 C 
BRANCH  12  13
HETATM   13  C7  UNL     1       4.616  21.378  15.744  1.00  0.00     0.017 C 
BRANCH  13  14
HETATM   14  C8  UNL     1       5.974  21.410  15.075  1.00  0.00    -0.014 C 
HETATM   15  C9  UNL     1       6.274  20.096  14.417  1.00  0.00     0.005 C 
HETATM   16  C10 UNL     1       7.356  20.137  13.407  1.00  0.00     0.000 C 
HETATM   17  C11 UNL     1       7.401  21.356  12.555  1.00  0.00     0.000 C 
HETATM   18  C12 UNL     1       7.201  22.635  13.348  1.00  0.00     0.000 C 
HETATM   19  C13 UNL     1       5.868  22.516  14.025  1.00  0.00     0.005 C 
ENDBRANCH  13  14
ENDBRANCH  12  13
ENDBRANCH  11  12
ENDBRANCH   9  10
ENDBRANCH   8   9
BRANCH   8  20
HETATM   20  N4  UNL     1       1.922  18.660  19.117  1.00  0.00    -0.322 N 
HETATM   21  C14 UNL     1       2.334  19.427  20.049  1.00  0.00     0.202 C 
HETATM   22  N5  UNL     1       3.651  19.177  20.567  1.00  0.00    -0.066 NA
HETATM   23  N6  UNL     1       1.573  20.492  20.588  1.00  0.00    -0.066 NA
ATOM     24  H4  UNL     1       2.538  17.916  18.787  1.00  0.00     0.169 HD
ENDBRANCH   8  20
TORSDOF 6
ENDMDL
MODEL 3
REMARK VINA RESULT: -6.195624095      1.448      2.153
REMARK  6 active torsions:
REMARK  status: ('A' for Active; 'I' for Inactive)
REMARK       I    between atoms: C1_4  and  N3_6 
REMARK    1  A    between atoms: C2_8  and  C3_9 
REMARK    2  A    between atoms: C2_8  and  N4_20 
REMARK    3  A    between atoms: C3_9  and  C4_10 
REMARK    4  A    between atoms: C5_11  and  C6_12 
REMARK    5  A    between atoms: C6_12  and  C7_13 
REMARK    6  A    between atoms: C7_13  and  C8_14 
ROOT
HETATM    1  N1  UNL     1      -0.125  15.332  18.526  1.00  0.00    -0.373 N 
ATOM      2  H11 UNL     1       0.814  15.704  18.384  1.00  0.00     0.158 HD
ATOM      3  H12 UNL     1      -0.248  14.387  18.890  1.00  0.00     0.158 HD
HETATM    4  C1  UNL     1      -1.151  16.047  18.249  1.00  0.00     0.187 C 
HETATM    5  N2  UNL     1      -2.450  15.532  18.445  1.00  0.00    -0.064 NA
HETATM    6  N3  UNL     1      -0.980  17.355  17.746  1.00  0.00    -0.320 N 
ATOM      7  H3  UNL     1      -0.849  17.480  16.742  1.00  0.00     0.169 HD
HETATM    8  C2  UNL     1      -0.982  18.397  18.502  1.00  0.00     0.096 C 
ENDROOT
BRANCH   8   9
HETATM    9  C3  UNL     1      -0.796  19.727  17.891  1.00  0.00     0.170 C 
BRANCH   9  10
HETATM   10  C4  UNL     1       0.528  19.831  17.297  1.00  0.00    -0.099 C 
HETATM   11  C5  UNL     1       1.643  19.941  16.800  1.00  0.00    -0.106 C 
BRANCH  11  12
HETATM   12  C6  UNL     1       2.973  20.095  16.213  1.00  0.00     0.094 C 
BRANCH  12  13
HETATM   13  C7  UNL     1       2.893  21.058  15.055  1.00  0.00     0.017 C 
BRANCH  13  14
HETATM   14  C8  UNL     1       4.072  20.917  14.115  1.00  0.00    -0.014 C 
HETATM   15  C9  UNL     1       4.457  22.248  13.541  1.00  0.00     0.005 C 
HETATM   16  C10 UNL     1       5.814  22.304  12.951  1.00  0.00     0.000 C 
HETATM   17  C11 UNL     1       6.866  21.539  13.672  1.00  0.00     0.000 C 
HETATM   18  C12 UNL     1       6.399  20.160  14.103  1.00  0.00     0.000 C 
HETATM   19  C13 UNL     1       5.203  20.368  14.983  1.00  0.00     0.005 C 
ENDBRANCH  13  14
ENDBRANCH  12  13
ENDBRANCH  11  12
ENDBRANCH   9  10
ENDBRANCH   8   9
BRANCH   8  20
HETATM   20  N4  UNL     1      -1.164  18.198  19.897  1.00  0.00    -0.322 N 
HETATM   21  C14 UNL     1      -0.191  17.990  20.693  1.00  0.00     0.202 C 
HETATM   22  N5  UNL     1      -0.512  17.804  22.082  1.00  0.00    -0.066 NA
HETATM   23  N6  UNL     1       1.164  17.934  20.286  1.00  0.00    -0.066 NA
ATOM     24  H4  UNL     1      -2.111  18.222  20.276  1.00  0.00     0.169 HD
ENDBRANCH   8  20
TORSDOF 6
ENDMDL
MODEL 4
REMARK VINA RESULT: -6.175849697      1.456      2.413
REMARK  6 active torsions:
REMARK  status: ('A' for Active; 'I' for Inactive)
REMARK       I    between atoms: C1_4  and  N3_6 
REMARK    1  A    between atoms: C2_8  and  C3_9 
REMARK    2  A    between atoms: C2_8  and  N4_20 
REMARK    3  A    between atoms: C3_9  and  C4_10 
REMARK    4  A    between atoms: C5_11  and  C6_12 
REMARK    5  A    between atoms: C6_12  and  C7_13 
REMARK    6  A    between atoms: C7_13  and  C8_14 
ROOT
HETATM    1  N1  UNL     1      -0.141  15.303  18.554  1.00  0.00    -0.373 N 
ATOM      2  H11 UNL     1       0.803  15.666  18.425  1.00  0.00     0.158 HD
ATOM      3  H12 UNL     1      -0.279  14.365  18.930  1.00  0.00     0.158 HD
HETATM    4  C1  UNL     1      -1.156  16.021  18.245  1.00  0.00     0.187 C 
HETATM    5  N2  UNL     1      -2.462  15.519  18.424  1.00  0.00    -0.064 NA
HETATM    6  N3  UNL     1      -0.966  17.320  17.725  1.00  0.00    -0.320 N 
ATOM      7  H3  UNL     1      -0.814  17.428  16.723  1.00  0.00     0.169 HD
HETATM    8  C2  UNL     1      -0.975  18.374  18.465  1.00  0.00     0.096 C 
ENDROOT
BRANCH   8   9
HETATM    9  C3  UNL     1      -0.767  19.692  17.836  1.00  0.00     0.170 C 
BRANCH   9  10
HETATM   10  C4  UNL     1       0.588  19.799  17.319  1.00  0.00    -0.099 C 
HETATM   11  C5  UNL     1       1.735  19.904  16.898  1.00  0.00    -0.106 C 
BRANCH  11  12
HETATM   12  C6  UNL     1       3.108  20.044  16.415  1.00  0.00     0.094 C 
BRANCH  12  13
HETATM   13  C7  UNL     1       3.098  20.811  15.116  1.00  0.00     0.017 C 
BRANCH  13  14
HETATM   14  C8  UNL     1       4.481  21.295  14.732  1.00  0.00    -0.014 C 
HETATM   15  C9  UNL     1       5.513  20.249  15.034  1.00  0.00     0.005 C 
HETATM   16  C10 UNL     1       6.808  20.433  14.341  1.00  0.00     0.000 C 
HETATM   17  C11 UNL     1       6.730  20.933  12.942  1.00  0.00     0.000 C 
HETATM   18  C12 UNL     1       5.737  22.071  12.780  1.00  0.00     0.000 C 
HETATM   19  C13 UNL     1       4.405  21.544  13.226  1.00  0.00     0.005 C 
ENDBRANCH  13  14
ENDBRANCH  12  13
ENDBRANCH  11  12
ENDBRANCH   9  10
ENDBRANCH   8   9
BRANCH   8  20
HETATM   20  N4  UNL     1      -1.185  18.198  19.859  1.00  0.00    -0.322 N 
HETATM   21  C14 UNL     1      -0.231  17.979  20.675  1.00  0.00     0.202 C 
HETATM   22  N5  UNL     1      -0.580  17.819  22.060  1.00  0.00    -0.066 NA
HETATM   23  N6  UNL     1       1.129  17.886  20.293  1.00  0.00    -0.066 NA
ATOM     24  H4  UNL     1      -2.138  18.249  20.221  1.00  0.00     0.169 HD
ENDBRANCH   8  20
TORSDOF 6
ENDMDL
MODEL 5
REMARK VINA RESULT: -6.169471328      1.711      2.939
REMARK  6 active torsions:
REMARK  status: ('A' for Active; 'I' for Inactive)
REMARK       I    between atoms: C1_4  and  N3_6 
REMARK    1  A    between atoms: C2_8  and  C3_9 
REMARK    2  A    between atoms: C2_8  and  N4_20 
REMARK    3  A    between atoms: C3_9  and  C4_10 
REMARK    4  A    between atoms: C5_11  and  C6_12 
REMARK    5  A    between atoms: C6_12  and  C7_13 
REMARK    6  A    between atoms: C7_13  and  C8_14 
ROOT
HETATM    1  N1  UNL     1      -0.201  14.443  19.401  1.00  0.00    -0.373 N 
ATOM      2  H11 UNL     1       0.781  14.347  19.663  1.00  0.00     0.158 HD
ATOM      3  H12 UNL     1      -0.796  13.616  19.345  1.00  0.00     0.158 HD
HETATM    4  C1  UNL     1      -0.690  15.598  19.143  1.00  0.00     0.187 C 
HETATM    5  N2  UNL     1      -2.047  15.731  18.782  1.00  0.00    -0.064 NA
HETATM    6  N3  UNL     1       0.134  16.743  19.221  1.00  0.00    -0.320 N 
ATOM      7  H3  UNL     1       0.693  16.999  18.408  1.00  0.00     0.169 HD
HETATM    8  C2  UNL     1       0.208  17.475  20.277  1.00  0.00     0.096 C 
ENDROOT
BRANCH   8   9
HETATM    9  C3  UNL     1       1.095  18.654  20.271  1.00  0.00     0.170 C 
BRANCH   9  10
HETATM   10  C4  UNL     1       1.312  19.118  18.910  1.00  0.00    -0.099 C 
HETATM   11  C5  UNL     1       1.511  19.522  17.770  1.00  0.00    -0.106 C 
BRANCH  11  12
HETATM   12  C6  UNL     1       1.769  20.014  16.417  1.00  0.00     0.094 C 
BRANCH  12  13
HETATM   13  C7  UNL     1       3.126  20.671  16.382  1.00  0.00     0.017 C 
BRANCH  13  14
HETATM   14  C8  UNL     1       3.833  20.445  15.061  1.00  0.00    -0.014 C 
HETATM   15  C9  UNL     1       3.353  21.420  14.027  1.00  0.00     0.005 C 
HETATM   16  C10 UNL     1       4.239  21.567  12.851  1.00  0.00     0.000 C 
HETATM   17  C11 UNL     1       5.700  21.528  13.130  1.00  0.00     0.000 C 
HETATM   18  C12 UNL     1       6.083  20.425  14.101  1.00  0.00     0.000 C 
HETATM   19  C13 UNL     1       5.312  20.677  15.363  1.00  0.00     0.005 C 
ENDBRANCH  13  14
ENDBRANCH  12  13
ENDBRANCH  11  12
ENDBRANCH   9  10
ENDBRANCH   8   9
BRANCH   8  20
HETATM   20  N4  UNL     1      -0.579  17.097  21.398  1.00  0.00    -0.322 N 
HETATM   21  C14 UNL     1      -1.322  17.921  22.024  1.00  0.00     0.202 C 
HETATM   22  N5  UNL     1      -2.068  17.410  23.142  1.00  0.00    -0.066 NA
HETATM   23  N6  UNL     1      -1.448  19.289  21.682  1.00  0.00    -0.066 NA
ATOM     24  H4  UNL     1      -0.548  16.127  21.714  1.00  0.00     0.169 HD
ENDBRANCH   8  20
TORSDOF 6
ENDMDL
