MODEL 1
REMARK VINA RESULT: -6.245149139      0.000      0.000
REMARK  10 active torsions:
REMARK  status: ('A' for Active; 'I' for Inactive)
REMARK    1  A    between atoms: C2_2  and  C3_3 
REMARK    2  A    between atoms: C3_3  and  C4_4 
REMARK    3  A    between atoms: C4_4  and  N1_5 
REMARK    4  A    between atoms: N1_5  and  C5_7 
REMARK    5  A    between atoms: C5_7  and  N2_9 
REMARK    6  A    between atoms: N2_9  and  N3_11 
REMARK    7  A    between atoms: N3_11  and  C6_13 
REMARK    8  A    between atoms: C6_13  and  N4_15 
REMARK    9  A    between atoms: N4_15  and  C7_17 
REMARK   10  A    between atoms: C7_17  and  C8_18 
ROOT
HETATM    1  C6  UNL     1       2.750  19.539  19.138  1.00  0.00     0.186 C 
HETATM    2  S2  UNL     1       3.494  20.260  20.415  1.00  0.00    -0.040 SA
ENDROOT
BRANCH   1   3
HETATM    3  N3  UNL     1       2.399  18.165  19.193  1.00  0.00    -0.274 N 
ATOM      4  H3  UNL     1       3.093  17.441  19.005  1.00  0.00     0.189 HD
BRANCH   3   5
HETATM    5  N2  UNL     1       1.092  17.830  19.507  1.00  0.00    -0.274 N 
ATOM      6  H2  UNL     1       0.696  18.137  20.397  1.00  0.00     0.189 HD
BRANCH   5   7
HETATM    7  C5  UNL     1       0.300  17.075  18.622  1.00  0.00     0.186 C 
HETATM    8  S1  UNL     1      -0.323  17.753  17.276  1.00  0.00    -0.040 SA
BRANCH   7   9
HETATM    9  N1  UNL     1       0.036  15.723  18.888  1.00  0.00    -0.366 N 
ATOM     10  H1  UNL     1       0.652  15.197  19.507  1.00  0.00     0.161 HD
BRANCH   9  11
HETATM   11  C4  UNL     1      -1.099  15.076  18.290  1.00  0.00     0.122 C 
BRANCH  11  12
HETATM   12  C3  UNL     1      -0.698  13.763  17.679  1.00  0.00     0.019 C 
BRANCH  12  13
HETATM   13  C2  UNL     1      -1.649  13.437  16.538  1.00  0.00    -0.003 C 
HETATM   14  C1  UNL     1      -2.137  14.718  15.868  1.00  0.00     0.005 C 
ENDBRANCH  12  13
ENDBRANCH  11  12
ENDBRANCH   9  11
ENDBRANCH   7   9
ENDBRANCH   5   7
ENDBRANCH   3   5
ENDBRANCH   1   3
BRANCH   1  15
HETATM   15  N4  UNL     1       2.454  20.277  17.976  1.00  0.00    -0.365 N 
ATOM     16  H4  UNL     1       1.726  19.968  17.332  1.00  0.00     0.161 HD
BRANCH  15  17
HETATM   17  C7  UNL     1       3.210  21.488  17.715  1.00  0.00     0.131 C 
BRANCH  17  18
HETATM   18  C8  UNL     1       3.832  21.395  16.346  1.00  0.00    -0.023 C 
HETATM   19  C9  UNL     1       3.478  20.130  15.625  1.00  0.00     0.015 C 
HETATM   20  C10 UNL     1       4.212  20.130  14.299  1.00  0.00    -0.013 C 
HETATM   21  C11 UNL     1       5.698  20.182  14.513  1.00  0.00     0.009 C 
HETATM   22  C15 UNL     1       3.748  21.309  13.478  1.00  0.00     0.009 C 
HETATM   23  C12 UNL     1       6.055  21.468  15.205  1.00  0.00    -0.013 C 
HETATM   24  C13 UNL     1       5.572  22.677  14.420  1.00  0.00     0.009 C 
HETATM   25  C17 UNL     1       5.349  21.508  16.544  1.00  0.00     0.015 C 
HETATM   26  C14 UNL     1       4.094  22.584  14.195  1.00  0.00    -0.013 C 
HETATM   27  C16 UNL     1       3.377  22.568  15.529  1.00  0.00     0.015 C 
ENDBRANCH  17  18
ENDBRANCH  15  17
ENDBRANCH   1  15
TORSDOF 10
ENDMDL
MODEL 2
REMARK VINA RESULT: -6.236550433      1.676      1.884
REMARK  10 active torsions:
REMARK  status: ('A' for Active; 'I' for Inactive)
REMARK    1  A    between atoms: C2_2  and  C3_3 
REMARK    2  A    between atoms: C3_3  and  C4_4 
REMARK    3  A    between atoms: C4_4  and  N1_5 
REMARK    4  A    between atoms: N1_5  and  C5_7 
REMARK    5  A    between atoms: C5_7  and  N2_9 
REMARK    6  A    between atoms: N2_9  and  N3_11 
REMARK    7  A    between atoms: N3_11  and  C6_13 
REMARK    8  A    between atoms: C6_13  and  N4_15 
REMARK    9  A    between atoms: N4_15  and  C7_17 
REMARK   10  A    between atoms: C7_17  and  C8_18 
ROOT
HETATM    1  C6  UNL     1       0.365  19.173  17.129  1.00  0.00     0.186 C 
HETATM    2  S2  UNL     1      -0.666  20.347  17.639  1.00  0.00    -0.040 SA
ENDROOT
BRANCH   1   3
HETATM    3  N3  UNL     1      -0.128  17.897  16.749  1.00  0.00    -0.274 N 
ATOM      4  H3  UNL     1       0.217  17.433  15.909  1.00  0.00     0.189 HD
BRANCH   3   5
HETATM    5  N2  UNL     1      -1.089  17.297  17.547  1.00  0.00    -0.274 N 
ATOM      6  H2  UNL     1      -2.071  17.348  17.272  1.00  0.00     0.189 HD
BRANCH   5   7
HETATM    7  C5  UNL     1      -0.736  16.619  18.729  1.00  0.00     0.186 C 
HETATM    8  S1  UNL     1      -1.010  17.292  20.189  1.00  0.00    -0.040 SA
BRANCH   7   9
HETATM    9  N1  UNL     1      -0.141  15.350  18.664  1.00  0.00    -0.366 N 
ATOM     10  H1  UNL     1       0.875  15.264  18.671  1.00  0.00     0.161 HD
BRANCH   9  11
HETATM   11  C4  UNL     1      -0.959  14.171  18.590  1.00  0.00     0.122 C 
BRANCH  11  12
HETATM   12  C3  UNL     1      -0.787  13.491  17.262  1.00  0.00     0.019 C 
BRANCH  12  13
HETATM   13  C2  UNL     1      -1.882  13.962  16.318  1.00  0.00    -0.003 C 
HETATM   14  C1  UNL     1      -1.851  13.157  15.022  1.00  0.00     0.005 C 
ENDBRANCH  12  13
ENDBRANCH  11  12
ENDBRANCH   9  11
ENDBRANCH   7   9
ENDBRANCH   5   7
ENDBRANCH   3   5
ENDBRANCH   1   3
BRANCH   1  15
HETATM   15  N4  UNL     1       1.751  19.420  17.065  1.00  0.00    -0.365 N 
ATOM     16  H4  UNL     1       2.407  18.664  16.869  1.00  0.00     0.161 HD
BRANCH  15  17
HETATM   17  C7  UNL     1       2.222  20.775  17.283  1.00  0.00     0.131 C 
BRANCH  17  18
HETATM   18  C8  UNL     1       3.307  21.087  16.285  1.00  0.00    -0.023 C 
HETATM   19  C9  UNL     1       3.653  19.919  15.412  1.00  0.00     0.015 C 
HETATM   20  C10 UNL     1       4.791  20.340  14.504  1.00  0.00    -0.013 C 
HETATM   21  C11 UNL     1       5.997  20.734  15.309  1.00  0.00     0.009 C 
HETATM   22  C15 UNL     1       4.331  21.484  13.633  1.00  0.00     0.009 C 
HETATM   23  C12 UNL     1       5.657  21.927  16.159  1.00  0.00    -0.013 C 
HETATM   24  C13 UNL     1       5.157  23.090  15.315  1.00  0.00     0.009 C 
HETATM   25  C17 UNL     1       4.525  21.550  17.092  1.00  0.00     0.015 C 
HETATM   26  C14 UNL     1       3.976  22.660  14.501  1.00  0.00    -0.013 C 
HETATM   27  C16 UNL     1       2.854  22.227  15.422  1.00  0.00     0.015 C 
ENDBRANCH  17  18
ENDBRANCH  15  17
ENDBRANCH   1  15
TORSDOF 10
ENDMDL
MODEL 3
REMARK VINA RESULT: -6.226909662      1.566      2.372
REMARK  10 active torsions:
REMARK  status: ('A' for Active; 'I' for Inactive)
REMARK    1  A    between atoms: C2_2  and  C3_3 
REMARK    2  A    between atoms: C3_3  and  C4_4 
REMARK    3  A    between atoms: C4_4  and  N1_5 
REMARK    4  A    between atoms: N1_5  and  C5_7 
REMARK    5  A    between atoms: C5_7  and  N2_9 
REMARK    6  A    between atoms: N2_9  and  N3_11 
REMARK    7  A    between atoms: N3_11  and  C6_13 
REMARK    8  A    between atoms: C6_13  and  N4_15 
REMARK    9  A    between atoms: N4_15  and  C7_17 
REMARK   10  A    between atoms: C7_17  and  C8_18 
ROOT
HETATM    1  C6  UNL     1       0.261  19.280  16.701  1.00  0.00     0.186 C 
HETATM    2  S2  UNL     1      -0.688  20.621  16.755  1.00  0.00    -0.040 SA
ENDROOT
BRANCH   1   3
HETATM    3  N3  UNL     1      -0.323  17.986  16.678  1.00  0.00    -0.274 N 
ATOM      4  H3  UNL     1      -0.230  17.387  15.858  1.00  0.00     0.189 HD
BRANCH   3   5
HETATM    5  N2  UNL     1      -1.020  17.557  17.795  1.00  0.00    -0.274 N 
ATOM      6  H2  UNL     1      -2.036  17.652  17.819  1.00  0.00     0.189 HD
BRANCH   5   7
HETATM    7  C5  UNL     1      -0.352  16.992  18.899  1.00  0.00     0.186 C 
HETATM    8  S1  UNL     1       0.057  17.908  20.184  1.00  0.00    -0.040 SA
BRANCH   7   9
HETATM    9  N1  UNL     1      -0.030  15.626  18.905  1.00  0.00    -0.366 N 
ATOM     10  H1  UNL     1       0.925  15.330  19.107  1.00  0.00     0.161 HD
BRANCH   9  11
HETATM   11  C4  UNL     1      -1.041  14.643  18.630  1.00  0.00     0.122 C 
BRANCH  11  12
HETATM   12  C3  UNL     1      -0.578  13.696  17.559  1.00  0.00     0.019 C 
BRANCH  12  13
HETATM   13  C2  UNL     1      -1.725  13.442  16.593  1.00  0.00    -0.003 C 
HETATM   14  C1  UNL     1      -2.057  14.711  15.815  1.00  0.00     0.005 C 
ENDBRANCH  12  13
ENDBRANCH  11  12
ENDBRANCH   9  11
ENDBRANCH   7   9
ENDBRANCH   5   7
ENDBRANCH   3   5
ENDBRANCH   1   3
BRANCH   1  15
HETATM   15  N4  UNL     1       1.664  19.400  16.679  1.00  0.00    -0.365 N 
ATOM     16  H4  UNL     1       2.245  18.666  16.273  1.00  0.00     0.161 HD
BRANCH  15  17
HETATM   17  C7  UNL     1       2.265  20.593  17.246  1.00  0.00     0.131 C 
BRANCH  17  18
HETATM   18  C8  UNL     1       3.316  21.113  16.300  1.00  0.00    -0.023 C 
HETATM   19  C9  UNL     1       2.837  22.260  15.464  1.00  0.00     0.015 C 
HETATM   20  C10 UNL     1       3.957  22.645  14.518  1.00  0.00    -0.013 C 
HETATM   21  C11 UNL     1       4.319  21.493  13.624  1.00  0.00     0.009 C 
HETATM   22  C15 UNL     1       5.152  23.092  15.325  1.00  0.00     0.009 C 
HETATM   23  C12 UNL     1       4.832  20.356  14.463  1.00  0.00    -0.013 C 
HETATM   24  C13 UNL     1       6.017  20.781  15.315  1.00  0.00     0.009 C 
HETATM   25  C17 UNL     1       3.739  19.930  15.421  1.00  0.00     0.015 C 
HETATM   26  C14 UNL     1       5.638  21.949  16.173  1.00  0.00    -0.013 C 
HETATM   27  C16 UNL     1       4.507  21.553  17.099  1.00  0.00     0.015 C 
ENDBRANCH  17  18
ENDBRANCH  15  17
ENDBRANCH   1  15
TORSDOF 10
ENDMDL
MODEL 4
REMARK VINA RESULT: -6.209092096      0.706      1.681
REMARK  10 active torsions:
REMARK  status: ('A' for Active; 'I' for Inactive)
REMARK    1  A    between atoms: C2_2  and  C3_3 
REMARK    2  A    between atoms: C3_3  and  C4_4 
REMARK    3  A    between atoms: C4_4  and  N1_5 
REMARK    4  A    between atoms: N1_5  and  C5_7 
REMARK    5  A    between atoms: C5_7  and  N2_9 
REMARK    6  A    between atoms: N2_9  and  N3_11 
REMARK    7  A    between atoms: N3_11  and  C6_13 
REMARK    8  A    between atoms: C6_13  and  N4_15 
REMARK    9  A    between atoms: N4_15  and  C7_17 
REMARK   10  A    between atoms: C7_17  and  C8_18 
ROOT
HETATM    1  C6  UNL     1       2.623  19.446  19.065  1.00  0.00     0.186 C 
HETATM    2  S2  UNL     1       3.447  20.288  20.211  1.00  0.00    -0.040 SA
ENDROOT
BRANCH   1   3
HETATM    3  N3  UNL     1       2.169  18.127  19.327  1.00  0.00    -0.274 N 
ATOM      4  H3  UNL     1       2.616  17.555  20.043  1.00  0.00     0.189 HD
BRANCH   3   5
HETATM    5  N2  UNL     1       1.105  17.636  18.589  1.00  0.00    -0.274 N 
ATOM      6  H2  UNL     1       1.047  17.847  17.592  1.00  0.00     0.189 HD
BRANCH   5   7
HETATM    7  C5  UNL     1       0.103  16.850  19.188  1.00  0.00     0.186 C 
HETATM    8  S1  UNL     1      -1.036  17.533  20.134  1.00  0.00    -0.040 SA
BRANCH   7   9
HETATM    9  N1  UNL     1       0.071  15.463  18.977  1.00  0.00    -0.366 N 
ATOM     10  H1  UNL     1       0.878  14.893  19.229  1.00  0.00     0.161 HD
BRANCH   9  11
HETATM   11  C4  UNL     1      -1.094  14.845  18.408  1.00  0.00     0.122 C 
BRANCH  11  12
HETATM   12  C3  UNL     1      -0.706  13.665  17.563  1.00  0.00     0.019 C 
BRANCH  12  13
HETATM   13  C2  UNL     1      -1.671  13.555  16.393  1.00  0.00    -0.003 C 
HETATM   14  C1  UNL     1      -2.094  14.941  15.918  1.00  0.00     0.005 C 
ENDBRANCH  12  13
ENDBRANCH  11  12
ENDBRANCH   9  11
ENDBRANCH   7   9
ENDBRANCH   5   7
ENDBRANCH   3   5
ENDBRANCH   1   3
BRANCH   1  15
HETATM   15  N4  UNL     1       2.358  20.025  17.808  1.00  0.00    -0.365 N 
ATOM     16  H4  UNL     1       1.916  19.482  17.066  1.00  0.00     0.161 HD
BRANCH  15  17
HETATM   17  C7  UNL     1       2.731  21.411  17.593  1.00  0.00     0.131 C 
BRANCH  17  18
HETATM   18  C8  UNL     1       3.591  21.505  16.359  1.00  0.00    -0.023 C 
HETATM   19  C9  UNL     1       3.233  22.666  15.482  1.00  0.00     0.015 C 
HETATM   20  C10 UNL     1       4.120  22.611  14.255  1.00  0.00    -0.013 C 
HETATM   21  C11 UNL     1       3.904  21.330  13.499  1.00  0.00     0.009 C 
HETATM   22  C15 UNL     1       5.562  22.744  14.681  1.00  0.00     0.009 C 
HETATM   23  C12 UNL     1       4.297  20.168  14.369  1.00  0.00    -0.013 C 
HETATM   24  C13 UNL     1       5.736  20.288  14.845  1.00  0.00     0.009 C 
HETATM   25  C17 UNL     1       3.427  20.178  15.609  1.00  0.00     0.015 C 
HETATM   26  C14 UNL     1       5.930  21.586  15.567  1.00  0.00    -0.013 C 
HETATM   27  C16 UNL     1       5.025  21.632  16.780  1.00  0.00     0.015 C 
ENDBRANCH  17  18
ENDBRANCH  15  17
ENDBRANCH   1  15
TORSDOF 10
ENDMDL
MODEL 5
REMARK VINA RESULT: -6.179718113      1.546      2.516
REMARK  10 active torsions:
REMARK  status: ('A' for Active; 'I' for Inactive)
REMARK    1  A    between atoms: C2_2  and  C3_3 
REMARK    2  A    between atoms: C3_3  and  C4_4 
REMARK    3  A    between atoms: C4_4  and  N1_5 
REMARK    4  A    between atoms: N1_5  and  C5_7 
REMARK    5  A    between atoms: C5_7  and  N2_9 
REMARK    6  A    between atoms: N2_9  and  N3_11 
REMARK    7  A    between atoms: N3_11  and  C6_13 
REMARK    8  A    between atoms: C6_13  and  N4_15 
REMARK    9  A    between atoms: N4_15  and  C7_17 
REMARK   10  A    between atoms: C7_17  and  C8_18 
ROOT
HETATM    1  C6  UNL     1       0.158  19.334  16.652  1.00  0.00     0.186 C 
HETATM    2  S2  UNL     1      -0.817  20.657  16.590  1.00  0.00    -0.040 SA
ENDROOT
BRANCH   1   3
HETATM    3  N3  UNL     1      -0.401  18.030  16.689  1.00  0.00    -0.274 N 
ATOM      4  H3  UNL     1      -0.345  17.415  15.878  1.00  0.00     0.189 HD
BRANCH   3   5
HETATM    5  N2  UNL     1      -1.025  17.612  17.854  1.00  0.00    -0.274 N 
ATOM      6  H2  UNL     1      -2.038  17.699  17.938  1.00  0.00     0.189 HD
BRANCH   5   7
HETATM    7  C5  UNL     1      -0.286  17.071  18.922  1.00  0.00     0.186 C 
HETATM    8  S1  UNL     1       0.283  18.030  20.112  1.00  0.00    -0.040 SA
BRANCH   7   9
HETATM    9  N1  UNL     1      -0.030  15.692  18.977  1.00  0.00    -0.366 N 
ATOM     10  H1  UNL     1       0.893  15.357  19.252  1.00  0.00     0.161 HD
BRANCH   9  11
HETATM   11  C4  UNL     1      -1.064  14.751  18.647  1.00  0.00     0.122 C 
BRANCH  11  12
HETATM   12  C3  UNL     1      -0.576  13.768  17.621  1.00  0.00     0.019 C 
BRANCH  12  13
HETATM   13  C2  UNL     1      -1.706  13.462  16.651  1.00  0.00    -0.003 C 
HETATM   14  C1  UNL     1      -2.057  14.702  15.833  1.00  0.00     0.005 C 
ENDBRANCH  12  13
ENDBRANCH  11  12
ENDBRANCH   9  11
ENDBRANCH   7   9
ENDBRANCH   5   7
ENDBRANCH   3   5
ENDBRANCH   1   3
BRANCH   1  15
HETATM   15  N4  UNL     1       1.558  19.481  16.671  1.00  0.00    -0.365 N 
ATOM     16  H4  UNL     1       2.166  18.737  16.327  1.00  0.00     0.161 HD
BRANCH  15  17
HETATM   17  C7  UNL     1       2.117  20.716  17.192  1.00  0.00     0.131 C 
BRANCH  17  18
HETATM   18  C8  UNL     1       3.296  21.118  16.345  1.00  0.00    -0.023 C 
HETATM   19  C9  UNL     1       4.486  21.534  17.156  1.00  0.00     0.015 C 
HETATM   20  C10 UNL     1       5.573  21.972  16.195  1.00  0.00    -0.013 C 
HETATM   21  C11 UNL     1       5.109  23.133  15.360  1.00  0.00     0.009 C 
HETATM   22  C15 UNL     1       5.959  20.804  15.321  1.00  0.00     0.009 C 
HETATM   23  C12 UNL     1       3.937  22.703  14.522  1.00  0.00    -0.013 C 
HETATM   24  C13 UNL     1       4.282  21.505  13.652  1.00  0.00     0.009 C 
HETATM   25  C17 UNL     1       2.819  22.263  15.443  1.00  0.00     0.015 C 
HETATM   26  C14 UNL     1       4.770  20.376  14.505  1.00  0.00    -0.013 C 
HETATM   27  C16 UNL     1       3.679  19.961  15.471  1.00  0.00     0.015 C 
ENDBRANCH  17  18
ENDBRANCH  15  17
ENDBRANCH   1  15
TORSDOF 10
ENDMDL
