MODEL 1
REMARK VINA RESULT: -7.073521103      0.000      0.000
REMARK  4 active torsions:
REMARK  status: ('A' for Active; 'I' for Inactive)
REMARK    1  A    between atoms: C2_2  and  C3_3 
REMARK    2  A    between atoms: C3_3  and  N1_4 
REMARK    3  A    between atoms: C6_7  and  N2_8 
REMARK       I    between atoms: N2_8  and  C7_10 
REMARK       I    between atoms: C7_10  and  N3_12 
REMARK    4  A    between atoms: N3_12  and  C8_14 
ROOT
HETATM    1  N2  UNL     1       1.583  18.730  17.537  1.00  0.00    -0.332 N 
ATOM      2  H2  UNL     1       2.263  17.970  17.535  1.00  0.00     0.165 HD
HETATM    3  C7  UNL     1       1.838  19.946  16.854  1.00  0.00     0.317 C 
HETATM    4  O1  UNL     1       0.983  20.881  16.869  1.00  0.00    -0.247 OA
HETATM    5  N3  UNL     1       3.071  20.078  16.162  1.00  0.00    -0.338 N 
ATOM      6  H3  UNL     1       3.747  19.314  16.161  1.00  0.00     0.164 HD
ENDROOT
BRANCH   1   7
HETATM    7  C6  UNL     1       0.320  18.603  18.241  1.00  0.00     0.155 C 
HETATM    8  C5  UNL     1       0.528  17.518  19.301  1.00  0.00     0.049 C 
HETATM    9  C4  UNL     1      -0.831  17.183  19.841  1.00  0.00     0.116 C 
HETATM   10  N1  UNL     1      -1.513  16.351  18.863  1.00  0.00    -0.227 NA
HETATM   11  N5  UNL     1      -1.370  16.854  17.592  1.00  0.00    -0.307 N 
HETATM   12  C19 UNL     1      -0.724  18.094  17.319  1.00  0.00     0.108 C 
ATOM     13  H5  UNL     1      -1.744  16.316  16.810  1.00  0.00     0.182 HD
HETATM   14  N4  UNL     1      -1.022  18.789  16.284  1.00  0.00    -0.386 N 
ATOM     15  H42 UNL     1      -0.560  19.677  16.089  1.00  0.00     0.157 HD
ATOM     16  H41 UNL     1      -1.740  18.439  15.650  1.00  0.00     0.157 HD
BRANCH  10  17
HETATM   17  C3  UNL     1      -1.118  14.973  19.013  1.00  0.00     0.140 C 
BRANCH  17  18
HETATM   18  C2  UNL     1      -0.782  14.323  17.732  1.00  0.00    -0.021 C 
HETATM   19  C1  UNL     1      -1.522  13.335  17.283  1.00  0.00     0.008 C 
ENDBRANCH  17  18
ENDBRANCH  10  17
ENDBRANCH   1   7
BRANCH   5  20
HETATM   20  C8  UNL     1       3.352  21.286  15.470  1.00  0.00     0.094 C 
HETATM   21  C9  UNL     1       3.795  20.943  14.054  1.00  0.00     0.009 C 
HETATM   22  C10 UNL     1       5.080  20.177  14.138  1.00  0.00     0.011 C 
HETATM   23  C14 UNL     1       3.953  22.209  13.224  1.00  0.00     0.011 C 
HETATM   24  C11 UNL     1       6.142  21.007  14.816  1.00  0.00    -0.013 C 
HETATM   25  C12 UNL     1       6.313  22.265  13.988  1.00  0.00     0.009 C 
HETATM   26  C18 UNL     1       5.695  21.384  16.188  1.00  0.00     0.011 C 
HETATM   27  C13 UNL     1       5.034  23.030  13.899  1.00  0.00    -0.010 C 
HETATM   28  C15 UNL     1       4.509  23.402  15.269  1.00  0.00    -0.009 C 
HETATM   29  C16 UNL     1       5.335  24.469  15.880  1.00  0.00     0.011 C 
HETATM   30  C17 UNL     1       4.405  22.149  16.110  1.00  0.00     0.013 C 
ENDBRANCH   5  20
TORSDOF 4
ENDMDL
MODEL 2
REMARK VINA RESULT: -6.985645874      1.250      1.574
REMARK  4 active torsions:
REMARK  status: ('A' for Active; 'I' for Inactive)
REMARK    1  A    between atoms: C2_2  and  C3_3 
REMARK    2  A    between atoms: C3_3  and  N1_4 
REMARK    3  A    between atoms: C6_7  and  N2_8 
REMARK       I    between atoms: N2_8  and  C7_10 
REMARK       I    between atoms: C7_10  and  N3_12 
REMARK    4  A    between atoms: N3_12  and  C8_14 
ROOT
HETATM    1  N2  UNL     1       0.206  18.084  16.327  1.00  0.00    -0.332 N 
ATOM      2  H2  UNL     1       0.471  17.440  15.581  1.00  0.00     0.165 HD
HETATM    3  C7  UNL     1       0.839  19.345  16.467  1.00  0.00     0.317 C 
HETATM    4  O1  UNL     1       0.500  20.133  17.400  1.00  0.00    -0.247 OA
HETATM    5  N3  UNL     1       1.855  19.691  15.536  1.00  0.00    -0.338 N 
ATOM      6  H3  UNL     1       2.114  19.044  14.791  1.00  0.00     0.164 HD
ENDROOT
BRANCH   1   7
HETATM    7  C6  UNL     1      -0.831  17.740  17.281  1.00  0.00     0.155 C 
HETATM    8  C5  UNL     1      -0.163  16.856  18.338  1.00  0.00     0.049 C 
HETATM    9  C4  UNL     1      -1.269  16.270  19.166  1.00  0.00     0.116 C 
HETATM   10  N1  UNL     1      -1.888  15.200  18.400  1.00  0.00    -0.227 NA
HETATM   11  N5  UNL     1      -2.115  15.581  17.100  1.00  0.00    -0.307 N 
HETATM   12  C19 UNL     1      -1.864  16.901  16.626  1.00  0.00     0.108 C 
ATOM     13  H5  UNL     1      -2.478  14.889  16.445  1.00  0.00     0.182 HD
HETATM   14  N4  UNL     1      -2.514  17.390  15.636  1.00  0.00    -0.386 N 
ATOM     15  H42 UNL     1      -2.336  18.335  15.297  1.00  0.00     0.157 HD
ATOM     16  H41 UNL     1      -3.225  16.814  15.185  1.00  0.00     0.157 HD
BRANCH  10  17
HETATM   17  C3  UNL     1      -1.136  13.979  18.548  1.00  0.00     0.140 C 
BRANCH  17  18
HETATM   18  C2  UNL     1      -0.983  13.236  17.283  1.00  0.00    -0.021 C 
HETATM   19  C1  UNL     1       0.095  12.518  17.069  1.00  0.00     0.008 C 
ENDBRANCH  17  18
ENDBRANCH  10  17
ENDBRANCH   1   7
BRANCH   5  20
HETATM   20  C8  UNL     1       2.505  20.947  15.654  1.00  0.00     0.094 C 
HETATM   21  C9  UNL     1       2.467  21.643  14.300  1.00  0.00     0.009 C 
HETATM   22  C10 UNL     1       3.266  20.825  13.331  1.00  0.00     0.011 C 
HETATM   23  C14 UNL     1       3.009  23.060  14.414  1.00  0.00     0.011 C 
HETATM   24  C11 UNL     1       4.694  20.704  13.800  1.00  0.00    -0.013 C 
HETATM   25  C12 UNL     1       5.244  22.112  13.905  1.00  0.00     0.009 C 
HETATM   26  C18 UNL     1       4.736  20.064  15.146  1.00  0.00     0.011 C 
HETATM   27  C13 UNL     1       4.450  22.932  14.868  1.00  0.00    -0.010 C 
HETATM   28  C15 UNL     1       4.420  22.304  16.244  1.00  0.00    -0.009 C 
HETATM   29  C16 UNL     1       5.735  22.435  16.914  1.00  0.00     0.011 C 
HETATM   30  C17 UNL     1       3.933  20.877  16.121  1.00  0.00     0.013 C 
ENDBRANCH   5  20
TORSDOF 4
ENDMDL
MODEL 3
REMARK VINA RESULT: -6.931617098      5.906      9.346
REMARK  4 active torsions:
REMARK  status: ('A' for Active; 'I' for Inactive)
REMARK    1  A    between atoms: C2_2  and  C3_3 
REMARK    2  A    between atoms: C3_3  and  N1_4 
REMARK    3  A    between atoms: C6_7  and  N2_8 
REMARK       I    between atoms: N2_8  and  C7_10 
REMARK       I    between atoms: C7_10  and  N3_12 
REMARK    4  A    between atoms: N3_12  and  C8_14 
ROOT
HETATM    1  N2  UNL     1      -0.627  17.283  21.923  1.00  0.00    -0.332 N 
ATOM      2  H2  UNL     1      -0.413  16.380  22.346  1.00  0.00     0.165 HD
HETATM    3  C7  UNL     1      -0.617  18.474  22.693  1.00  0.00     0.317 C 
HETATM    4  O1  UNL     1      -0.887  19.588  22.152  1.00  0.00    -0.247 OA
HETATM    5  N3  UNL     1      -0.299  18.376  24.073  1.00  0.00    -0.338 N 
ATOM      6  H3  UNL     1      -0.084  17.470  24.490  1.00  0.00     0.164 HD
ENDROOT
BRANCH   1   7
HETATM    7  C6  UNL     1      -0.952  17.393  20.513  1.00  0.00     0.155 C 
HETATM    8  C5  UNL     1      -1.696  16.106  20.145  1.00  0.00     0.049 C 
HETATM    9  C4  UNL     1      -1.789  16.081  18.648  1.00  0.00     0.116 C 
HETATM   10  N1  UNL     1      -0.490  15.696  18.120  1.00  0.00    -0.227 NA
HETATM   11  N5  UNL     1       0.526  16.377  18.746  1.00  0.00    -0.307 N 
HETATM   12  C19 UNL     1       0.292  17.403  19.706  1.00  0.00     0.108 C 
ATOM     13  H5  UNL     1       1.489  16.138  18.512  1.00  0.00     0.182 HD
HETATM   14  N4  UNL     1       1.139  18.346  19.896  1.00  0.00    -0.386 N 
ATOM     15  H42 UNL     1       0.972  19.081  20.583  1.00  0.00     0.157 HD
ATOM     16  H41 UNL     1       1.995  18.354  19.341  1.00  0.00     0.157 HD
BRANCH  10  17
HETATM   17  C3  UNL     1      -0.350  14.262  18.131  1.00  0.00     0.140 C 
BRANCH  17  18
HETATM   18  C2  UNL     1      -1.492  13.563  17.509  1.00  0.00    -0.021 C 
HETATM   19  C1  UNL     1      -1.546  13.425  16.205  1.00  0.00     0.008 C 
ENDBRANCH  17  18
ENDBRANCH  10  17
ENDBRANCH   1   7
BRANCH   5  20
HETATM   20  C8  UNL     1      -0.283  19.553  24.866  1.00  0.00     0.094 C 
HETATM   21  C9  UNL     1       1.015  19.585  25.663  1.00  0.00     0.009 C 
HETATM   22  C10 UNL     1       1.013  18.421  26.607  1.00  0.00     0.011 C 
HETATM   23  C14 UNL     1       1.152  20.906  26.406  1.00  0.00     0.011 C 
HETATM   24  C11 UNL     1      -0.163  18.510  27.547  1.00  0.00    -0.013 C 
HETATM   25  C12 UNL     1      -0.027  19.818  28.299  1.00  0.00     0.009 C 
HETATM   26  C18 UNL     1      -1.436  18.525  26.771  1.00  0.00     0.011 C 
HETATM   27  C13 UNL     1      -0.022  20.981  27.363  1.00  0.00    -0.010 C 
HETATM   28  C15 UNL     1      -1.275  21.021  26.515  1.00  0.00    -0.009 C 
HETATM   29  C16 UNL     1      -2.448  21.426  27.324  1.00  0.00     0.011 C 
HETATM   30  C17 UNL     1      -1.438  19.688  25.820  1.00  0.00     0.013 C 
ENDBRANCH   5  20
TORSDOF 4
ENDMDL
MODEL 4
REMARK VINA RESULT: -6.868653677      5.141     10.366
REMARK  4 active torsions:
REMARK  status: ('A' for Active; 'I' for Inactive)
REMARK    1  A    between atoms: C2_2  and  C3_3 
REMARK    2  A    between atoms: C3_3  and  N1_4 
REMARK    3  A    between atoms: C6_7  and  N2_8 
REMARK       I    between atoms: N2_8  and  C7_10 
REMARK       I    between atoms: C7_10  and  N3_12 
REMARK    4  A    between atoms: N3_12  and  C8_14 
ROOT
HETATM    1  N2  UNL     1      -1.410  18.014  21.095  1.00  0.00    -0.332 N 
ATOM      2  H2  UNL     1      -2.169  18.519  20.639  1.00  0.00     0.165 HD
HETATM    3  C7  UNL     1      -1.453  17.723  22.482  1.00  0.00     0.317 C 
HETATM    4  O1  UNL     1      -0.501  17.096  23.036  1.00  0.00    -0.247 OA
HETATM    5  N3  UNL     1      -2.586  18.154  23.222  1.00  0.00    -0.338 N 
ATOM      6  H3  UNL     1      -3.343  18.657  22.759  1.00  0.00     0.164 HD
ENDROOT
BRANCH   1   7
HETATM    7  C6  UNL     1      -0.249  17.569  20.348  1.00  0.00     0.155 C 
HETATM    8  C5  UNL     1       0.390  18.830  19.760  1.00  0.00     0.049 C 
HETATM    9  C4  UNL     1       1.415  18.366  18.767  1.00  0.00     0.116 C 
HETATM   10  N1  UNL     1       0.717  17.940  17.565  1.00  0.00    -0.227 NA
HETATM   11  N5  UNL     1      -0.368  17.155  17.867  1.00  0.00    -0.307 N 
HETATM   12  C19 UNL     1      -0.677  16.740  19.195  1.00  0.00     0.108 C 
ATOM     13  H5  UNL     1      -0.981  16.855  17.108  1.00  0.00     0.182 HD
HETATM   14  N4  UNL     1      -1.323  15.657  19.423  1.00  0.00    -0.386 N 
ATOM     15  H42 UNL     1      -1.543  15.360  20.374  1.00  0.00     0.157 HD
ATOM     16  H41 UNL     1      -1.617  15.086  18.631  1.00  0.00     0.157 HD
BRANCH  10  17
HETATM   17  C3  UNL     1       0.425  19.076  16.726  1.00  0.00     0.140 C 
BRANCH  17  18
HETATM   18  C2  UNL     1       1.636  19.769  16.246  1.00  0.00    -0.021 C 
HETATM   19  C1  UNL     1       1.992  19.672  14.986  1.00  0.00     0.008 C 
ENDBRANCH  17  18
ENDBRANCH  10  17
ENDBRANCH   1   7
BRANCH   5  20
HETATM   20  C8  UNL     1      -2.654  17.875  24.612  1.00  0.00     0.094 C 
HETATM   21  C9  UNL     1      -4.118  17.748  25.012  1.00  0.00     0.009 C 
HETATM   22  C10 UNL     1      -4.779  19.076  24.798  1.00  0.00     0.011 C 
HETATM   23  C14 UNL     1      -4.238  17.291  26.459  1.00  0.00     0.011 C 
HETATM   24  C11 UNL     1      -4.113  20.134  25.641  1.00  0.00    -0.013 C 
HETATM   25  C12 UNL     1      -4.238  19.692  27.084  1.00  0.00     0.009 C 
HETATM   26  C18 UNL     1      -2.668  20.234  25.286  1.00  0.00     0.011 C 
HETATM   27  C13 UNL     1      -3.584  18.368  27.302  1.00  0.00    -0.010 C 
HETATM   28  C15 UNL     1      -2.121  18.398  26.914  1.00  0.00    -0.009 C 
HETATM   29  C16 UNL     1      -1.329  19.172  27.898  1.00  0.00     0.011 C 
HETATM   30  C17 UNL     1      -2.001  18.904  25.494  1.00  0.00     0.013 C 
ENDBRANCH   5  20
TORSDOF 4
ENDMDL
MODEL 5
REMARK VINA RESULT: -6.579556134      6.495      9.071
REMARK  4 active torsions:
REMARK  status: ('A' for Active; 'I' for Inactive)
REMARK    1  A    between atoms: C2_2  and  C3_3 
REMARK    2  A    between atoms: C3_3  and  N1_4 
REMARK    3  A    between atoms: C6_7  and  N2_8 
REMARK       I    between atoms: N2_8  and  C7_10 
REMARK       I    between atoms: C7_10  and  N3_12 
REMARK    4  A    between atoms: N3_12  and  C8_14 
ROOT
HETATM    1  N2  UNL     1      -1.332  15.914  20.097  1.00  0.00    -0.332 N 
ATOM      2  H2  UNL     1      -2.069  15.261  20.362  1.00  0.00     0.165 HD
HETATM    3  C7  UNL     1      -0.865  16.900  21.002  1.00  0.00     0.317 C 
HETATM    4  O1  UNL     1       0.051  17.706  20.657  1.00  0.00    -0.247 OA
HETATM    5  N3  UNL     1      -1.452  16.954  22.294  1.00  0.00    -0.338 N 
ATOM      6  H3  UNL     1      -2.187  16.297  22.555  1.00  0.00     0.164 HD
ENDROOT
BRANCH   1   7
HETATM    7  C6  UNL     1      -0.725  15.866  18.780  1.00  0.00     0.155 C 
HETATM    8  C5  UNL     1      -1.804  16.325  17.795  1.00  0.00     0.049 C 
HETATM    9  C4  UNL     1      -1.288  16.016  16.421  1.00  0.00     0.116 C 
HETATM   10  N1  UNL     1      -1.433  14.587  16.195  1.00  0.00    -0.227 NA
HETATM   11  N5  UNL     1      -1.006  13.862  17.281  1.00  0.00    -0.307 N 
HETATM   12  C19 UNL     1      -0.401  14.463  18.423  1.00  0.00     0.108 C 
ATOM     13  H5  UNL     1      -1.127  12.850  17.270  1.00  0.00     0.182 HD
HETATM   14  N4  UNL     1       0.424  13.817  19.159  1.00  0.00    -0.386 N 
ATOM     15  H42 UNL     1       0.858  14.248  19.976  1.00  0.00     0.157 HD
ATOM     16  H41 UNL     1       0.648  12.853  18.914  1.00  0.00     0.157 HD
BRANCH  10  17
HETATM   17  C3  UNL     1      -2.771  14.282  15.755  1.00  0.00     0.140 C 
BRANCH  17  18
HETATM   18  C2  UNL     1      -2.839  13.884  14.336  1.00  0.00    -0.021 C 
HETATM   19  C1  UNL     1      -1.766  13.432  13.729  1.00  0.00     0.008 C 
ENDBRANCH  17  18
ENDBRANCH  10  17
ENDBRANCH   1   7
BRANCH   5  20
HETATM   20  C8  UNL     1      -1.003  17.932  23.220  1.00  0.00     0.094 C 
HETATM   21  C9  UNL     1      -0.589  17.231  24.507  1.00  0.00     0.009 C 
HETATM   22  C10 UNL     1      -1.807  16.590  25.102  1.00  0.00     0.011 C 
HETATM   23  C14 UNL     1       0.049  18.220  25.471  1.00  0.00     0.011 C 
HETATM   24  C11 UNL     1      -2.853  17.634  25.405  1.00  0.00    -0.013 C 
HETATM   25  C12 UNL     1      -2.227  18.616  26.375  1.00  0.00     0.009 C 
HETATM   26  C18 UNL     1      -3.230  18.355  24.156  1.00  0.00     0.011 C 
HETATM   27  C13 UNL     1      -1.012  19.255  25.788  1.00  0.00    -0.010 C 
HETATM   28  C15 UNL     1      -1.328  19.967  24.490  1.00  0.00    -0.009 C 
HETATM   29  C16 UNL     1      -2.099  21.206  24.741  1.00  0.00     0.011 C 
HETATM   30  C17 UNL     1      -2.013  18.996  23.553  1.00  0.00     0.013 C 
ENDBRANCH   5  20
TORSDOF 4
ENDMDL
