MODEL 1
REMARK VINA RESULT: -7.494681406      0.000      0.000
REMARK  7 active torsions:
REMARK  status: ('A' for Active; 'I' for Inactive)
REMARK    1  A    between atoms: C2_2  and  C3_3 
REMARK    2  A    between atoms: N2_11  and  C10_13 
REMARK    3  A    between atoms: C10_13  and  C11_14 
REMARK    4  A    between atoms: C11_14  and  O1_15 
REMARK    5  A    between atoms: C11_14  and  C12_17 
REMARK    6  A    between atoms: C12_17  and  C14_19 
REMARK    7  A    between atoms: C15_20  and  O2_21 
ROOT
HETATM    1  C10 UNL     1      -0.022  18.590  18.787  1.00  0.00     0.274 C 
ENDROOT
BRANCH   1   2
HETATM    2  N2  UNL     1       0.727  19.547  18.070  1.00  0.00    -0.059 N 
HETATM    3  C7  UNL     1       1.885  20.101  18.683  1.00  0.00     0.236 C 
HETATM    4  C6  UNL     1       2.883  20.649  17.718  1.00  0.00     0.046 A 
HETATM    5  C8  UNL     1       2.640  19.232  19.641  1.00  0.00     0.047 C 
HETATM    6  C5  UNL     1       2.854  20.385  16.382  1.00  0.00    -0.030 A 
HETATM    7  N1  UNL     1       3.961  21.462  17.981  1.00  0.00    -0.361 N 
HETATM    8  C4  UNL     1       3.951  21.065  15.847  1.00  0.00     0.034 A 
HETATM    9  C20 UNL     1       1.787  19.538  15.819  1.00  0.00     0.068 C 
HETATM   10  C3  UNL     1       4.611  21.719  16.864  1.00  0.00     0.009 A 
HETATM   11  C19 UNL     1       1.104  18.788  16.855  1.00  0.00     0.242 C 
ATOM     12  H1  UNL     1       4.219  21.814  18.903  1.00  0.00     0.165 HD
HETATM   13  C9  UNL     1      -0.062  20.669  17.565  1.00  0.00     0.273 C 
BRANCH  10  14
HETATM   14  C2  UNL     1       5.826  22.551  16.702  1.00  0.00     0.052 C 
HETATM   15  C1  UNL     1       5.792  23.709  17.682  1.00  0.00     0.011 C 
ENDBRANCH  10  14
ENDBRANCH   1   2
BRANCH   1  16
HETATM   16  C11 UNL     1       0.182  17.130  18.552  1.00  0.00     0.173 C 
BRANCH  16  17
HETATM   17  O1  UNL     1       0.806  16.472  19.601  1.00  0.00    -0.389 OA
ATOM     18  H1  UNL     1       1.688  16.180  19.404  1.00  0.00     0.210 HD
ENDBRANCH  16  17
BRANCH  16  19
HETATM   19  C12 UNL     1      -1.140  16.452  18.385  1.00  0.00    -0.039 C 
HETATM   20  C13 UNL     1      -1.770  16.126  19.737  1.00  0.00     0.047 C 
BRANCH  19  21
HETATM   21  C14 UNL     1      -1.326  15.426  17.403  1.00  0.00     0.025 A 
HETATM   22  C15 UNL     1      -2.056  15.691  16.221  1.00  0.00     0.093 A 
HETATM   23  C16 UNL     1      -2.059  14.553  15.476  1.00  0.00     0.125 A 
HETATM   24  N3  UNL     1      -1.378  13.598  16.121  1.00  0.00    -0.366 N 
HETATM   25  C17 UNL     1      -0.925  14.133  17.307  1.00  0.00     0.018 A 
ATOM     26  H3  UNL     1      -1.222  12.645  15.793  1.00  0.00     0.165 HD
HETATM   27  C18 UNL     1      -0.112  13.297  18.221  1.00  0.00     0.069 C 
BRANCH  22  28
HETATM   28  O2  UNL     1      -2.673  16.865  15.832  1.00  0.00    -0.358 OA
ATOM     29  H2  UNL     1      -2.656  17.292  14.984  1.00  0.00     0.217 HD
ENDBRANCH  22  28
ENDBRANCH  19  21
ENDBRANCH  16  19
ENDBRANCH   1  16
TORSDOF 7
ENDMDL
MODEL 2
REMARK VINA RESULT: -6.981259244      1.158      1.637
REMARK  7 active torsions:
REMARK  status: ('A' for Active; 'I' for Inactive)
REMARK    1  A    between atoms: C2_2  and  C3_3 
REMARK    2  A    between atoms: N2_11  and  C10_13 
REMARK    3  A    between atoms: C10_13  and  C11_14 
REMARK    4  A    between atoms: C11_14  and  O1_15 
REMARK    5  A    between atoms: C11_14  and  C12_17 
REMARK    6  A    between atoms: C12_17  and  C14_19 
REMARK    7  A    between atoms: C15_20  and  O2_21 
ROOT
HETATM    1  C10 UNL     1      -0.008  18.596  18.862  1.00  0.00     0.274 C 
ENDROOT
BRANCH   1   2
HETATM    2  N2  UNL     1       0.721  19.541  18.109  1.00  0.00    -0.059 N 
HETATM    3  C7  UNL     1       1.880  20.125  18.692  1.00  0.00     0.236 C 
HETATM    4  C6  UNL     1       2.860  20.657  17.700  1.00  0.00     0.046 A 
HETATM    5  C8  UNL     1       2.657  19.290  19.664  1.00  0.00     0.047 C 
HETATM    6  C5  UNL     1       2.817  20.356  16.372  1.00  0.00    -0.030 A 
HETATM    7  N1  UNL     1       3.932  21.489  17.927  1.00  0.00    -0.361 N 
HETATM    8  C4  UNL     1       3.900  21.034  15.805  1.00  0.00     0.034 A 
HETATM    9  C20 UNL     1       1.753  19.482  15.846  1.00  0.00     0.068 C 
HETATM   10  C3  UNL     1       4.565  21.722  16.795  1.00  0.00     0.009 A 
HETATM   11  C19 UNL     1       1.091  18.754  16.911  1.00  0.00     0.242 C 
ATOM     12  H1  UNL     1       4.197  21.868  18.836  1.00  0.00     0.165 HD
HETATM   13  C9  UNL     1      -0.087  20.640  17.584  1.00  0.00     0.273 C 
BRANCH  10  14
HETATM   14  C2  UNL     1       5.769  22.562  16.595  1.00  0.00     0.052 C 
HETATM   15  C1  UNL     1       5.767  23.709  17.590  1.00  0.00     0.011 C 
ENDBRANCH  10  14
ENDBRANCH   1   2
BRANCH   1  16
HETATM   16  C11 UNL     1       0.294  17.138  18.754  1.00  0.00     0.173 C 
BRANCH  16  17
HETATM   17  O1  UNL     1       0.918  16.608  19.873  1.00  0.00    -0.389 OA
ATOM     18  H1  UNL     1       0.436  16.740  20.682  1.00  0.00     0.210 HD
ENDBRANCH  16  17
BRANCH  16  19
HETATM   19  C12 UNL     1      -0.976  16.366  18.599  1.00  0.00    -0.039 C 
HETATM   20  C13 UNL     1      -1.663  16.155  19.946  1.00  0.00     0.047 C 
BRANCH  19  21
HETATM   21  C14 UNL     1      -1.048  15.226  17.733  1.00  0.00     0.025 A 
HETATM   22  C15 UNL     1      -0.323  14.051  18.038  1.00  0.00     0.093 A 
HETATM   23  C16 UNL     1      -0.587  13.140  17.062  1.00  0.00     0.125 A 
HETATM   24  N3  UNL     1      -1.431  13.677  16.171  1.00  0.00    -0.366 N 
HETATM   25  C17 UNL     1      -1.716  14.960  16.583  1.00  0.00     0.018 A 
ATOM     26  H3  UNL     1      -1.796  13.217  15.338  1.00  0.00     0.165 HD
HETATM   27  C18 UNL     1      -2.654  15.789  15.789  1.00  0.00     0.069 C 
BRANCH  22  28
HETATM   28  O2  UNL     1       0.514  13.804  19.110  1.00  0.00    -0.358 OA
ATOM     29  H2  UNL     1       0.851  14.417  19.753  1.00  0.00     0.217 HD
ENDBRANCH  22  28
ENDBRANCH  19  21
ENDBRANCH  16  19
ENDBRANCH   1  16
TORSDOF 7
ENDMDL
MODEL 3
REMARK VINA RESULT: -6.848589086      1.002      1.865
REMARK  7 active torsions:
REMARK  status: ('A' for Active; 'I' for Inactive)
REMARK    1  A    between atoms: C2_2  and  C3_3 
REMARK    2  A    between atoms: N2_11  and  C10_13 
REMARK    3  A    between atoms: C10_13  and  C11_14 
REMARK    4  A    between atoms: C11_14  and  O1_15 
REMARK    5  A    between atoms: C11_14  and  C12_17 
REMARK    6  A    between atoms: C12_17  and  C14_19 
REMARK    7  A    between atoms: C15_20  and  O2_21 
ROOT
HETATM    1  C10 UNL     1       0.368  18.638  18.652  1.00  0.00     0.274 C 
ENDROOT
BRANCH   1   2
HETATM    2  N2  UNL     1       1.550  19.384  18.460  1.00  0.00    -0.059 N 
HETATM    3  C7  UNL     1       2.156  19.377  17.172  1.00  0.00     0.236 C 
HETATM    4  C6  UNL     1       3.028  20.557  16.901  1.00  0.00     0.046 A 
HETATM    5  C8  UNL     1       1.253  19.223  15.987  1.00  0.00     0.047 C 
HETATM    6  C5  UNL     1       3.020  21.684  17.667  1.00  0.00    -0.030 A 
HETATM    7  N1  UNL     1       3.938  20.724  15.883  1.00  0.00    -0.361 N 
HETATM    8  C4  UNL     1       3.955  22.537  17.076  1.00  0.00     0.034 A 
HETATM    9  C20 UNL     1       2.136  21.772  18.843  1.00  0.00     0.068 C 
HETATM   10  C3  UNL     1       4.502  21.912  15.978  1.00  0.00     0.009 A 
HETATM   11  C19 UNL     1       1.105  20.753  18.808  1.00  0.00     0.242 C 
ATOM     12  H1  UNL     1       4.145  20.033  15.163  1.00  0.00     0.165 HD
HETATM   13  C9  UNL     1       2.607  19.091  19.425  1.00  0.00     0.273 C 
BRANCH  10  14
HETATM   14  C2  UNL     1       5.532  22.491  15.085  1.00  0.00     0.052 C 
HETATM   15  C1  UNL     1       6.364  21.381  14.469  1.00  0.00     0.011 C 
ENDBRANCH  10  14
ENDBRANCH   1   2
BRANCH   1  16
HETATM   16  C11 UNL     1       0.392  17.146  18.608  1.00  0.00     0.173 C 
BRANCH  16  17
HETATM   17  O1  UNL     1       0.831  16.555  19.783  1.00  0.00    -0.389 OA
ATOM     18  H1  UNL     1       0.528  16.991  20.571  1.00  0.00     0.210 HD
ENDBRANCH  16  17
BRANCH  16  19
HETATM   19  C12 UNL     1      -0.991  16.622  18.389  1.00  0.00    -0.039 C 
HETATM   20  C13 UNL     1      -1.734  16.451  19.712  1.00  0.00     0.047 C 
BRANCH  19  21
HETATM   21  C14 UNL     1      -1.243  15.569  17.450  1.00  0.00     0.025 A 
HETATM   22  C15 UNL     1      -1.983  15.825  16.272  1.00  0.00     0.093 A 
HETATM   23  C16 UNL     1      -2.053  14.662  15.570  1.00  0.00     0.125 A 
HETATM   24  N3  UNL     1      -1.402  13.700  16.238  1.00  0.00    -0.366 N 
HETATM   25  C17 UNL     1      -0.902  14.257  17.395  1.00  0.00     0.018 A 
ATOM     26  H3  UNL     1      -1.296  12.730  15.943  1.00  0.00     0.165 HD
HETATM   27  C18 UNL     1      -0.109  13.419  18.324  1.00  0.00     0.069 C 
BRANCH  22  28
HETATM   28  O2  UNL     1      -2.554  17.010  15.851  1.00  0.00    -0.358 OA
ATOM     29  H2  UNL     1      -3.452  17.178  15.590  1.00  0.00     0.217 HD
ENDBRANCH  22  28
ENDBRANCH  19  21
ENDBRANCH  16  19
ENDBRANCH   1  16
TORSDOF 7
ENDMDL
MODEL 4
REMARK VINA RESULT: -6.419704421      4.671      8.071
REMARK  7 active torsions:
REMARK  status: ('A' for Active; 'I' for Inactive)
REMARK    1  A    between atoms: C2_2  and  C3_3 
REMARK    2  A    between atoms: N2_11  and  C10_13 
REMARK    3  A    between atoms: C10_13  and  C11_14 
REMARK    4  A    between atoms: C11_14  and  O1_15 
REMARK    5  A    between atoms: C11_14  and  C12_17 
REMARK    6  A    between atoms: C12_17  and  C14_19 
REMARK    7  A    between atoms: C15_20  and  O2_21 
ROOT
HETATM    1  C10 UNL     1       0.184  18.727  22.100  1.00  0.00     0.274 C 
ENDROOT
BRANCH   1   2
HETATM    2  N2  UNL     1      -1.043  18.269  22.624  1.00  0.00    -0.059 N 
HETATM    3  C7  UNL     1      -1.049  17.680  23.919  1.00  0.00     0.236 C 
HETATM    4  C6  UNL     1      -2.374  17.728  24.604  1.00  0.00     0.046 A 
HETATM    5  C8  UNL     1      -0.034  18.172  24.905  1.00  0.00     0.047 C 
HETATM    6  C5  UNL     1      -3.405  18.514  24.185  1.00  0.00    -0.030 A 
HETATM    7  N1  UNL     1      -2.776  17.039  25.727  1.00  0.00    -0.361 N 
HETATM    8  C4  UNL     1      -4.441  18.278  25.092  1.00  0.00     0.034 A 
HETATM    9  C20 UNL     1      -3.250  19.358  22.987  1.00  0.00     0.068 C 
HETATM   10  C3  UNL     1      -4.017  17.362  26.029  1.00  0.00     0.009 A 
HETATM   11  C19 UNL     1      -1.855  19.507  22.620  1.00  0.00     0.242 C 
ATOM     12  H1  UNL     1      -2.199  16.378  26.246  1.00  0.00     0.165 HD
HETATM   13  C9  UNL     1      -1.768  17.357  21.743  1.00  0.00     0.273 C 
BRANCH  10  14
HETATM   14  C2  UNL     1      -4.828  16.853  27.159  1.00  0.00     0.052 C 
HETATM   15  C1  UNL     1      -5.130  17.983  28.127  1.00  0.00     0.011 C 
ENDBRANCH  10  14
ENDBRANCH   1   2
BRANCH   1  16
HETATM   16  C11 UNL     1       0.248  19.356  20.747  1.00  0.00     0.173 C 
BRANCH  16  17
HETATM   17  O1  UNL     1       1.039  20.494  20.692  1.00  0.00    -0.389 OA
ATOM     18  H1  UNL     1       1.167  20.833  19.814  1.00  0.00     0.210 HD
ENDBRANCH  16  17
BRANCH  16  19
HETATM   19  C12 UNL     1       0.854  18.400  19.770  1.00  0.00    -0.039 C 
HETATM   20  C13 UNL     1       2.309  18.755  19.478  1.00  0.00     0.047 C 
BRANCH  19  21
HETATM   21  C14 UNL     1       0.126  17.965  18.614  1.00  0.00     0.025 A 
HETATM   22  C15 UNL     1      -0.195  16.599  18.446  1.00  0.00     0.093 A 
HETATM   23  C16 UNL     1      -0.891  16.480  17.283  1.00  0.00     0.125 A 
HETATM   24  N3  UNL     1      -1.021  17.688  16.718  1.00  0.00    -0.366 N 
HETATM   25  C17 UNL     1      -0.396  18.603  17.537  1.00  0.00     0.018 A 
ATOM     26  H3  UNL     1      -1.497  17.892  15.840  1.00  0.00     0.165 HD
HETATM   27  C18 UNL     1      -0.404  20.038  17.166  1.00  0.00     0.069 C 
BRANCH  22  28
HETATM   28  O2  UNL     1       0.106  15.531  19.271  1.00  0.00    -0.358 OA
ATOM     29  H2  UNL     1      -0.457  14.819  19.551  1.00  0.00     0.217 HD
ENDBRANCH  22  28
ENDBRANCH  19  21
ENDBRANCH  16  19
ENDBRANCH   1  16
TORSDOF 7
ENDMDL
MODEL 5
REMARK VINA RESULT: -6.418641095      4.280      7.717
REMARK  7 active torsions:
REMARK  status: ('A' for Active; 'I' for Inactive)
REMARK    1  A    between atoms: C2_2  and  C3_3 
REMARK    2  A    between atoms: N2_11  and  C10_13 
REMARK    3  A    between atoms: C10_13  and  C11_14 
REMARK    4  A    between atoms: C11_14  and  O1_15 
REMARK    5  A    between atoms: C11_14  and  C12_17 
REMARK    6  A    between atoms: C12_17  and  C14_19 
REMARK    7  A    between atoms: C15_20  and  O2_21 
ROOT
HETATM    1  C10 UNL     1      -0.010  19.876  21.142  1.00  0.00     0.274 C 
ENDROOT
BRANCH   1   2
HETATM    2  N2  UNL     1       0.162  18.850  20.189  1.00  0.00    -0.059 N 
HETATM    3  C7  UNL     1      -0.314  17.546  20.502  1.00  0.00     0.236 C 
HETATM    4  C6  UNL     1      -0.592  16.695  19.308  1.00  0.00     0.046 A 
HETATM    5  C8  UNL     1      -1.513  17.446  21.395  1.00  0.00     0.047 C 
HETATM    6  C5  UNL     1      -0.681  17.190  18.042  1.00  0.00    -0.030 A 
HETATM    7  N1  UNL     1      -0.811  15.338  19.265  1.00  0.00    -0.361 N 
HETATM    8  C4  UNL     1      -0.962  16.086  17.233  1.00  0.00     0.034 A 
HETATM    9  C20 UNL     1      -0.477  18.629  17.794  1.00  0.00     0.068 C 
HETATM   10  C3  UNL     1      -1.035  14.960  18.023  1.00  0.00     0.009 A 
HETATM   11  C19 UNL     1      -0.569  19.395  19.022  1.00  0.00     0.242 C 
ATOM     12  H1  UNL     1      -0.801  14.716  20.074  1.00  0.00     0.165 HD
HETATM   13  C9  UNL     1       1.536  18.696  19.716  1.00  0.00     0.273 C 
BRANCH  10  14
HETATM   14  C2  UNL     1      -1.315  13.589  17.537  1.00  0.00     0.052 C 
HETATM   15  C1  UNL     1      -1.818  13.642  16.105  1.00  0.00     0.011 C 
ENDBRANCH  10  14
ENDBRANCH   1   2
BRANCH   1  16
HETATM   16  C11 UNL     1       0.690  19.818  22.460  1.00  0.00     0.173 C 
BRANCH  16  17
HETATM   17  O1  UNL     1       1.690  20.767  22.609  1.00  0.00    -0.389 OA
ATOM     18  H1  UNL     1       1.988  20.877  23.504  1.00  0.00     0.210 HD
ENDBRANCH  16  17
BRANCH  16  19
HETATM   19  C12 UNL     1      -0.282  20.084  23.564  1.00  0.00    -0.039 C 
HETATM   20  C13 UNL     1      -0.376  21.576  23.871  1.00  0.00     0.047 C 
BRANCH  19  21
HETATM   21  C14 UNL     1      -0.319  19.254  24.732  1.00  0.00     0.025 A 
HETATM   22  C15 UNL     1       0.799  19.184  25.595  1.00  0.00     0.093 A 
HETATM   23  C16 UNL     1       0.479  18.343  26.614  1.00  0.00     0.125 A 
HETATM   24  N3  UNL     1      -0.767  17.885  26.439  1.00  0.00    -0.366 N 
HETATM   25  C17 UNL     1      -1.260  18.446  25.281  1.00  0.00     0.018 A 
ATOM     26  H3  UNL     1      -1.262  17.238  27.052  1.00  0.00     0.165 HD
HETATM   27  C18 UNL     1      -2.643  18.131  24.850  1.00  0.00     0.069 C 
BRANCH  22  28
HETATM   28  O2  UNL     1       2.018  19.827  25.484  1.00  0.00    -0.358 OA
ATOM     29  H2  UNL     1       2.626  20.070  26.172  1.00  0.00     0.217 HD
ENDBRANCH  22  28
ENDBRANCH  19  21
ENDBRANCH  16  19
ENDBRANCH   1  16
TORSDOF 7
ENDMDL
