MODEL 1
REMARK VINA RESULT: -7.755336707      0.000      0.000
REMARK  5 active torsions:
REMARK  status: ('A' for Active; 'I' for Inactive)
REMARK    1  A    between atoms: C2_2  and  C3_3 
REMARK    2  A    between atoms: C3_3  and  C4_4 
REMARK    3  A    between atoms: C4_4  and  C5_5 
REMARK    4  A    between atoms: C5_5  and  C6_6 
REMARK       I    between atoms: N3_15  and  C10_17 
REMARK       I    between atoms: C10_17  and  N4_19 
REMARK    5  A    between atoms: N4_19  and  C11_21 
ROOT
HETATM    1  C6  UNL     1      -1.210  16.829  18.261  1.00  0.00     0.101 C 
HETATM    2  C7  UNL     1      -0.398  18.076  18.015  1.00  0.00     0.146 C 
HETATM    3  N1  UNL     1      -0.921  19.077  18.906  1.00  0.00    -0.372 N 
ATOM      4  H1  UNL     1      -1.199  19.992  18.553  1.00  0.00     0.161 HD
HETATM    5  C8  UNL     1      -1.049  18.758  20.324  1.00  0.00     0.139 C 
HETATM    6  N2  UNL     1      -1.184  19.726  21.133  1.00  0.00    -0.383 N 
ATOM      7  H21 UNL     1      -1.273  19.504  22.125  1.00  0.00     0.157 HD
ATOM      8  H22 UNL     1      -1.214  20.714  20.883  1.00  0.00     0.157 HD
HETATM    9  C9  UNL     1      -1.007  17.348  20.681  1.00  0.00     0.149 C 
HETATM   10  N3  UNL     1      -1.094  16.901  21.837  1.00  0.00    -0.292 N 
ATOM     11  H3  UNL     1      -1.039  15.883  21.842  1.00  0.00     0.172 HD
HETATM   12  C10 UNL     1      -1.240  17.383  23.081  1.00  0.00     0.322 C 
HETATM   13  O1  UNL     1      -0.220  17.723  23.777  1.00  0.00    -0.247 OA
HETATM   14  N4  UNL     1      -2.507  17.552  23.719  1.00  0.00    -0.338 N 
ATOM     15  H4  UNL     1      -3.348  17.295  23.203  1.00  0.00     0.164 HD
HETATM   16  N5  UNL     1      -0.841  16.387  19.586  1.00  0.00    -0.367 N 
ATOM     17  H5  UNL     1      -0.482  15.447  19.753  1.00  0.00     0.161 HD
ENDROOT
BRANCH   1  18
HETATM   18  C5  UNL     1      -1.068  15.757  17.243  1.00  0.00     0.027 C 
BRANCH  18  19
HETATM   19  C4  UNL     1      -0.786  14.432  17.879  1.00  0.00     0.002 C 
BRANCH  19  20
HETATM   20  C3  UNL     1      -1.484  13.349  17.063  1.00  0.00    -0.000 C 
BRANCH  20  21
HETATM   21  C2  UNL     1      -2.176  14.084  15.908  1.00  0.00    -0.005 C 
HETATM   22  C1  UNL     1      -1.964  13.267  14.658  1.00  0.00     0.005 C 
ENDBRANCH  20  21
ENDBRANCH  19  20
ENDBRANCH  18  19
ENDBRANCH   1  18
BRANCH  14  23
HETATM   23  C11 UNL     1      -2.656  18.072  25.066  1.00  0.00     0.091 C 
HETATM   24  C12 UNL     1      -2.894  19.545  25.012  1.00  0.00     0.030 C 
HETATM   25  C13 UNL     1      -4.383  19.774  25.197  1.00  0.00    -0.012 C 
HETATM   26  C14 UNL     1      -4.619  20.131  26.641  1.00  0.00     0.010 C 
HETATM   27  C20 UNL     1      -4.985  18.374  25.011  1.00  0.00     0.011 C 
HETATM   28  C15 UNL     1      -3.877  19.222  27.552  1.00  0.00    -0.010 C 
HETATM   29  C16 UNL     1      -4.775  18.832  28.735  1.00  0.00     0.005 C 
HETATM   30  C18 UNL     1      -3.845  17.795  27.167  1.00  0.00    -0.004 C 
HETATM   31  C17 UNL     1      -5.081  17.553  27.966  1.00  0.00     0.006 C 
HETATM   32  C19 UNL     1      -3.930  17.537  25.687  1.00  0.00     0.013 C 
ENDBRANCH  14  23
TORSDOF 5
ENDMDL
MODEL 2
REMARK VINA RESULT: -7.447515387      0.910      1.011
REMARK  5 active torsions:
REMARK  status: ('A' for Active; 'I' for Inactive)
REMARK    1  A    between atoms: C2_2  and  C3_3 
REMARK    2  A    between atoms: C3_3  and  C4_4 
REMARK    3  A    between atoms: C4_4  and  C5_5 
REMARK    4  A    between atoms: C5_5  and  C6_6 
REMARK       I    between atoms: N3_15  and  C10_17 
REMARK       I    between atoms: C10_17  and  N4_19 
REMARK    5  A    between atoms: N4_19  and  C11_21 
ROOT
HETATM    1  C6  UNL     1      -0.655  17.460  18.800  1.00  0.00     0.101 C 
HETATM    2  C7  UNL     1       0.682  18.127  19.007  1.00  0.00     0.146 C 
HETATM    3  N1  UNL     1       0.490  19.091  20.057  1.00  0.00    -0.372 N 
ATOM      4  H1  UNL     1       0.776  20.061  19.930  1.00  0.00     0.161 HD
HETATM    5  C8  UNL     1      -0.122  18.655  21.308  1.00  0.00     0.139 C 
HETATM    6  N2  UNL     1       0.018  19.405  22.322  1.00  0.00    -0.383 N 
ATOM      7  H21 UNL     1      -0.410  19.100  23.197  1.00  0.00     0.157 HD
ATOM      8  H22 UNL     1       0.523  20.291  22.345  1.00  0.00     0.157 HD
HETATM    9  C9  UNL     1      -0.843  17.391  21.275  1.00  0.00     0.149 C 
HETATM   10  N3  UNL     1      -1.415  16.871  22.247  1.00  0.00    -0.292 N 
ATOM     11  H3  UNL     1      -1.851  15.987  21.985  1.00  0.00     0.172 HD
HETATM   12  C10 UNL     1      -1.622  17.145  23.544  1.00  0.00     0.322 C 
HETATM   13  O1  UNL     1      -0.773  16.787  24.434  1.00  0.00    -0.247 OA
HETATM   14  N4  UNL     1      -2.772  17.838  24.032  1.00  0.00    -0.338 N 
ATOM     15  H4  UNL     1      -3.476  18.142  23.360  1.00  0.00     0.164 HD
HETATM   16  N5  UNL     1      -0.883  16.679  19.994  1.00  0.00    -0.367 N 
ATOM     17  H5  UNL     1      -1.064  15.676  19.948  1.00  0.00     0.161 HD
ENDROOT
BRANCH   1  18
HETATM   18  C5  UNL     1      -0.787  16.654  17.559  1.00  0.00     0.027 C 
BRANCH  18  19
HETATM   19  C4  UNL     1      -1.853  15.612  17.694  1.00  0.00     0.002 C 
BRANCH  19  20
HETATM   20  C3  UNL     1      -2.282  15.181  16.296  1.00  0.00    -0.000 C 
BRANCH  20  21
HETATM   21  C2  UNL     1      -1.917  13.694  16.193  1.00  0.00    -0.005 C 
HETATM   22  C1  UNL     1      -1.962  13.315  14.734  1.00  0.00     0.005 C 
ENDBRANCH  20  21
ENDBRANCH  19  20
ENDBRANCH  18  19
ENDBRANCH   1  18
BRANCH  14  23
HETATM   23  C11 UNL     1      -2.989  18.129  25.437  1.00  0.00     0.091 C 
HETATM   24  C12 UNL     1      -3.065  19.607  25.637  1.00  0.00     0.030 C 
HETATM   25  C13 UNL     1      -4.532  19.977  25.753  1.00  0.00    -0.012 C 
HETATM   26  C14 UNL     1      -4.861  20.103  27.218  1.00  0.00     0.010 C 
HETATM   27  C20 UNL     1      -5.258  18.714  25.272  1.00  0.00     0.011 C 
HETATM   28  C15 UNL     1      -4.306  18.967  27.998  1.00  0.00    -0.010 C 
HETATM   29  C16 UNL     1      -5.344  18.487  29.022  1.00  0.00     0.005 C 
HETATM   30  C18 UNL     1      -4.389  17.635  27.360  1.00  0.00    -0.004 C 
HETATM   31  C17 UNL     1      -5.712  17.408  28.011  1.00  0.00     0.006 C 
HETATM   32  C19 UNL     1      -4.364  17.651  25.856  1.00  0.00     0.013 C 
ENDBRANCH  14  23
TORSDOF 5
ENDMDL
MODEL 3
REMARK VINA RESULT: -7.408470892      5.924     10.223
REMARK  5 active torsions:
REMARK  status: ('A' for Active; 'I' for Inactive)
REMARK    1  A    between atoms: C2_2  and  C3_3 
REMARK    2  A    between atoms: C3_3  and  C4_4 
REMARK    3  A    between atoms: C4_4  and  C5_5 
REMARK    4  A    between atoms: C5_5  and  C6_6 
REMARK       I    between atoms: N3_15  and  C10_17 
REMARK       I    between atoms: C10_17  and  N4_19 
REMARK    5  A    between atoms: N4_19  and  C11_21 
ROOT
HETATM    1  C6  UNL     1      -1.015  15.763  17.487  1.00  0.00     0.101 C 
HETATM    2  C7  UNL     1      -0.969  15.981  18.979  1.00  0.00     0.146 C 
HETATM    3  N1  UNL     1       0.335  16.517  19.264  1.00  0.00    -0.372 N 
ATOM      4  H1  UNL     1       0.925  16.094  19.981  1.00  0.00     0.161 HD
HETATM    5  C8  UNL     1       0.799  17.677  18.509  1.00  0.00     0.139 C 
HETATM    6  N2  UNL     1       1.776  18.333  18.985  1.00  0.00    -0.383 N 
ATOM      7  H21 UNL     1       2.100  19.144  18.458  1.00  0.00     0.157 HD
ATOM      8  H22 UNL     1       2.271  18.125  19.851  1.00  0.00     0.157 HD
HETATM    9  C9  UNL     1       0.093  17.975  17.273  1.00  0.00     0.149 C 
HETATM   10  N3  UNL     1       0.351  18.924  16.514  1.00  0.00    -0.292 N 
ATOM     11  H3  UNL     1      -0.277  18.932  15.711  1.00  0.00     0.172 HD
HETATM   12  C10 UNL     1       1.223  19.941  16.455  1.00  0.00     0.322 C 
HETATM   13  O1  UNL     1       0.966  21.060  17.024  1.00  0.00    -0.247 OA
HETATM   14  N4  UNL     1       2.476  19.869  15.773  1.00  0.00    -0.338 N 
ATOM     15  H4  UNL     1       2.724  18.998  15.306  1.00  0.00     0.164 HD
HETATM   16  N5  UNL     1      -1.013  17.085  16.905  1.00  0.00    -0.367 N 
ATOM     17  H5  UNL     1      -1.749  17.387  16.267  1.00  0.00     0.161 HD
ENDROOT
BRANCH   1  18
HETATM   18  C5  UNL     1      -2.138  14.925  16.994  1.00  0.00     0.027 C 
BRANCH  18  19
HETATM   19  C4  UNL     1      -1.791  13.470  17.026  1.00  0.00     0.002 C 
BRANCH  19  20
HETATM   20  C3  UNL     1      -1.486  13.017  15.603  1.00  0.00    -0.000 C 
BRANCH  20  21
HETATM   21  C2  UNL     1      -2.467  13.783  14.706  1.00  0.00    -0.005 C 
HETATM   22  C1  UNL     1      -1.946  13.706  13.293  1.00  0.00     0.005 C 
ENDBRANCH  20  21
ENDBRANCH  19  20
ENDBRANCH  18  19
ENDBRANCH   1  18
BRANCH  14  23
HETATM   23  C11 UNL     1       3.414  20.975  15.713  1.00  0.00     0.091 C 
HETATM   24  C12 UNL     1       4.812  20.451  15.728  1.00  0.00     0.030 C 
HETATM   25  C13 UNL     1       5.324  20.471  14.300  1.00  0.00    -0.012 C 
HETATM   26  C14 UNL     1       6.154  21.716  14.126  1.00  0.00     0.010 C 
HETATM   27  C20 UNL     1       4.053  20.700  13.469  1.00  0.00     0.011 C 
HETATM   28  C15 UNL     1       5.475  22.906  14.701  1.00  0.00    -0.010 C 
HETATM   29  C16 UNL     1       5.630  24.100  13.748  1.00  0.00     0.005 C 
HETATM   30  C18 UNL     1       4.014  22.988  14.491  1.00  0.00    -0.004 C 
HETATM   31  C17 UNL     1       4.241  23.753  13.230  1.00  0.00     0.006 C 
HETATM   32  C19 UNL     1       3.316  21.661  14.365  1.00  0.00     0.013 C 
ENDBRANCH  14  23
TORSDOF 5
ENDMDL
MODEL 4
REMARK VINA RESULT: -7.024538279      5.153     10.163
REMARK  5 active torsions:
REMARK  status: ('A' for Active; 'I' for Inactive)
REMARK    1  A    between atoms: C2_2  and  C3_3 
REMARK    2  A    between atoms: C3_3  and  C4_4 
REMARK    3  A    between atoms: C4_4  and  C5_5 
REMARK    4  A    between atoms: C5_5  and  C6_6 
REMARK       I    between atoms: N3_15  and  C10_17 
REMARK       I    between atoms: C10_17  and  N4_19 
REMARK    5  A    between atoms: N4_19  and  C11_21 
ROOT
HETATM    1  C6  UNL     1      -0.638  16.117  18.800  1.00  0.00     0.101 C 
HETATM    2  C7  UNL     1      -1.240  16.964  19.893  1.00  0.00     0.146 C 
HETATM    3  N1  UNL     1      -0.279  17.998  20.171  1.00  0.00    -0.372 N 
ATOM      4  H1  UNL     1       0.033  18.173  21.127  1.00  0.00     0.161 HD
HETATM    5  C8  UNL     1       0.239  18.793  19.063  1.00  0.00     0.139 C 
HETATM    6  N2  UNL     1       0.807  19.892  19.345  1.00  0.00    -0.383 N 
ATOM      7  H21 UNL     1       1.170  20.448  18.570  1.00  0.00     0.157 HD
ATOM      8  H22 UNL     1       0.936  20.275  20.281  1.00  0.00     0.157 HD
HETATM    9  C9  UNL     1       0.055  18.246  17.727  1.00  0.00     0.149 C 
HETATM   10  N3  UNL     1       0.427  18.792  16.675  1.00  0.00    -0.292 N 
ATOM     11  H3  UNL     1       0.189  18.223  15.863  1.00  0.00     0.172 HD
HETATM   12  C10 UNL     1       1.055  19.919  16.308  1.00  0.00     0.322 C 
HETATM   13  O1  UNL     1       0.398  20.998  16.098  1.00  0.00    -0.247 OA
HETATM   14  N4  UNL     1       2.468  20.012  16.122  1.00  0.00    -0.338 N 
ATOM     15  H4  UNL     1       3.033  19.178  16.277  1.00  0.00     0.164 HD
HETATM   16  N5  UNL     1      -0.632  16.956  17.624  1.00  0.00    -0.367 N 
ATOM     17  H5  UNL     1      -1.087  16.662  16.759  1.00  0.00     0.161 HD
ENDROOT
BRANCH   1  18
HETATM   18  C5  UNL     1      -1.299  14.807  18.563  1.00  0.00     0.027 C 
BRANCH  18  19
HETATM   19  C4  UNL     1      -0.423  13.888  17.771  1.00  0.00     0.002 C 
BRANCH  19  20
HETATM   20  C3  UNL     1      -1.305  13.081  16.825  1.00  0.00    -0.000 C 
BRANCH  20  21
HETATM   21  C2  UNL     1      -1.942  14.106  15.878  1.00  0.00    -0.005 C 
HETATM   22  C1  UNL     1      -2.083  13.450  14.527  1.00  0.00     0.005 C 
ENDBRANCH  20  21
ENDBRANCH  19  20
ENDBRANCH  18  19
ENDBRANCH   1  18
BRANCH  14  23
HETATM   23  C11 UNL     1       3.139  21.235  15.722  1.00  0.00     0.091 C 
HETATM   24  C12 UNL     1       4.560  21.200  16.180  1.00  0.00     0.030 C 
HETATM   25  C13 UNL     1       5.417  20.822  14.986  1.00  0.00    -0.012 C 
HETATM   26  C14 UNL     1       5.989  22.089  14.408  1.00  0.00     0.010 C 
HETATM   27  C20 UNL     1       4.393  20.321  13.957  1.00  0.00     0.011 C 
HETATM   28  C15 UNL     1       4.951  23.147  14.287  1.00  0.00    -0.010 C 
HETATM   29  C16 UNL     1       5.104  23.869  12.941  1.00  0.00     0.005 C 
HETATM   30  C18 UNL     1       3.614  22.701  13.843  1.00  0.00    -0.004 C 
HETATM   31  C17 UNL     1       4.004  22.951  12.425  1.00  0.00     0.006 C 
HETATM   32  C19 UNL     1       3.263  21.285  14.212  1.00  0.00     0.013 C 
ENDBRANCH  14  23
TORSDOF 5
ENDMDL
MODEL 5
REMARK VINA RESULT: -6.859076367      5.965     10.806
REMARK  5 active torsions:
REMARK  status: ('A' for Active; 'I' for Inactive)
REMARK    1  A    between atoms: C2_2  and  C3_3 
REMARK    2  A    between atoms: C3_3  and  C4_4 
REMARK    3  A    between atoms: C4_4  and  C5_5 
REMARK    4  A    between atoms: C5_5  and  C6_6 
REMARK       I    between atoms: N3_15  and  C10_17 
REMARK       I    between atoms: C10_17  and  N4_19 
REMARK    5  A    between atoms: N4_19  and  C11_21 
ROOT
HETATM    1  C6  UNL     1      -0.263  16.464  18.309  1.00  0.00     0.101 C 
HETATM    2  C7  UNL     1       0.419  17.127  19.479  1.00  0.00     0.146 C 
HETATM    3  N1  UNL     1       1.457  17.952  18.922  1.00  0.00    -0.372 N 
ATOM      4  H1  UNL     1       2.416  17.881  19.261  1.00  0.00     0.161 HD
HETATM    5  C8  UNL     1       1.112  18.895  17.862  1.00  0.00     0.139 C 
HETATM    6  N2  UNL     1       1.934  19.831  17.619  1.00  0.00    -0.383 N 
ATOM      7  H21 UNL     1       1.693  20.490  16.879  1.00  0.00     0.157 HD
ATOM      8  H22 UNL     1       2.820  19.987  18.099  1.00  0.00     0.157 HD
HETATM    9  C9  UNL     1      -0.152  18.671  17.177  1.00  0.00     0.149 C 
HETATM   10  N3  UNL     1      -0.601  19.377  16.260  1.00  0.00    -0.292 N 
ATOM     11  H3  UNL     1      -1.503  19.028  15.936  1.00  0.00     0.172 HD
HETATM   12  C10 UNL     1      -0.233  20.471  15.575  1.00  0.00     0.322 C 
HETATM   13  O1  UNL     1      -0.524  21.643  16.004  1.00  0.00    -0.247 OA
HETATM   14  N4  UNL     1       0.491  20.427  14.345  1.00  0.00    -0.338 N 
ATOM     15  H4  UNL     1       0.745  19.515  13.964  1.00  0.00     0.164 HD
HETATM   16  N5  UNL     1      -0.955  17.526  17.616  1.00  0.00    -0.367 N 
ATOM     17  H5  UNL     1      -1.959  17.481  17.440  1.00  0.00     0.161 HD
ENDROOT
BRANCH   1  18
HETATM   18  C5  UNL     1      -1.157  15.326  18.646  1.00  0.00     0.027 C 
BRANCH  18  19
HETATM   19  C4  UNL     1      -0.576  14.022  18.196  1.00  0.00     0.002 C 
BRANCH  19  20
HETATM   20  C3  UNL     1      -1.615  13.301  17.344  1.00  0.00    -0.000 C 
BRANCH  20  21
HETATM   21  C2  UNL     1      -1.787  14.163  16.087  1.00  0.00    -0.005 C 
HETATM   22  C1  UNL     1      -1.897  13.229  14.907  1.00  0.00     0.005 C 
ENDBRANCH  20  21
ENDBRANCH  19  20
ENDBRANCH  18  19
ENDBRANCH   1  18
BRANCH  14  23
HETATM   23  C11 UNL     1       0.883  21.615  13.609  1.00  0.00     0.091 C 
HETATM   24  C12 UNL     1       2.369  21.761  13.647  1.00  0.00     0.030 C 
HETATM   25  C13 UNL     1       2.911  21.257  12.322  1.00  0.00    -0.012 C 
HETATM   26  C14 UNL     1       3.156  22.453  11.439  1.00  0.00     0.010 C 
HETATM   27  C20 UNL     1       1.714  20.522  11.703  1.00  0.00     0.011 C 
HETATM   28  C15 UNL     1       2.008  23.397  11.475  1.00  0.00    -0.010 C 
HETATM   29  C16 UNL     1       1.709  23.900  10.056  1.00  0.00     0.005 C 
HETATM   30  C18 UNL     1       0.662  22.787  11.493  1.00  0.00    -0.004 C 
HETATM   31  C17 UNL     1       0.625  22.832  10.002  1.00  0.00     0.006 C 
HETATM   32  C19 UNL     1       0.590  21.428  12.134  1.00  0.00     0.013 C 
ENDBRANCH  14  23
TORSDOF 5
ENDMDL
