MODEL 1
REMARK VINA RESULT: -8.104491726      0.000      0.000
REMARK  12 active torsions:
REMARK  status: ('A' for Active; 'I' for Inactive)
REMARK    1  A    between atoms: C2_2  and  C3_3 
REMARK    2  A    between atoms: C4_5  and  C5_6 
REMARK    3  A    between atoms: C5_6  and  N1_7 
REMARK       I    between atoms: N1_7  and  C6_9 
REMARK    4  A    between atoms: C6_9  and  C7_11 
REMARK    5  A    between atoms: C7_11  and  C8_13 
REMARK    6  A    between atoms: C10_15  and  O4_16 
REMARK    7  A    between atoms: C11_18  and  O5_19 
REMARK    8  A    between atoms: C12_21  and  S1_22 
REMARK    9  A    between atoms: S1_22  and  C13_23 
REMARK   10  A    between atoms: C18_29  and  O7_30 
REMARK   11  A    between atoms: C19_32  and  O8_33 
REMARK   12  A    between atoms: C20_35  and  O9_36 
ROOT
HETATM    1  N1  UNL     1      -5.716  -5.312  11.730  1.00  0.00    -0.352 N 
ATOM      2  H1  UNL     1      -6.234  -4.472  11.473  1.00  0.00     0.162 HD
HETATM    3  C6  UNL     1      -5.326  -6.247  10.704  1.00  0.00     0.290 C 
HETATM    4  O2  UNL     1      -4.690  -7.284  10.992  1.00  0.00    -0.264 OA
ENDROOT
BRANCH   3   5
HETATM    5  C7  UNL     1      -5.675  -5.981   9.339  1.00  0.00     0.245 C 
HETATM    6  O3  UNL     1      -6.342  -6.826   8.671  1.00  0.00    -0.284 OA
BRANCH   5   7
HETATM    7  C8  UNL     1      -5.299  -4.726   8.604  1.00  0.00     0.205 C 
HETATM    8  C9  UNL     1      -3.911  -4.810   8.063  1.00  0.00     0.074 C 
HETATM    9  C10 UNL     1      -3.452  -3.460   7.603  1.00  0.00     0.153 C 
HETATM   10  C11 UNL     1      -4.628  -2.502   7.613  1.00  0.00     0.185 C 
HETATM   11  C12 UNL     1      -5.111  -2.439   9.034  1.00  0.00     0.215 C 
HETATM   12  O6  UNL     1      -5.554  -3.685   9.454  1.00  0.00    -0.359 OA
BRANCH   9  13
HETATM   13  O4  UNL     1      -2.840  -3.442   6.376  1.00  0.00    -0.393 OA
ATOM     14  H4  UNL     1      -3.413  -3.253   5.643  1.00  0.00     0.210 HD
ENDBRANCH   9  13
BRANCH  10  15
HETATM   15  O5  UNL     1      -4.300  -1.239   7.168  1.00  0.00    -0.390 OA
ATOM     16  H5  UNL     1      -4.990  -0.833   6.658  1.00  0.00     0.210 HD
ENDBRANCH  10  15
BRANCH  11  17
HETATM   17  S1  UNL     1      -3.782  -1.839  10.086  1.00  0.00    -0.130 SA
BRANCH  17  18
HETATM   18  C13 UNL     1      -3.873  -0.076  10.412  1.00  0.00     0.050 C 
HETATM   19  C14 UNL     1      -2.573   0.573   9.951  1.00  0.00     0.015 C 
HETATM   20  C15 UNL     1      -2.290   1.635  11.014  1.00  0.00     0.001 C 
HETATM   21  C16 UNL     1      -2.671   0.892  12.280  1.00  0.00     0.001 C 
HETATM   22  C17 UNL     1      -3.931   0.160  11.893  1.00  0.00     0.015 C 
ENDBRANCH  17  18
ENDBRANCH  11  17
ENDBRANCH   5   7
ENDBRANCH   3   5
BRANCH   1  23
HETATM   23  C5  UNL     1      -5.384  -5.548  13.117  1.00  0.00     0.157 C 
BRANCH  23  24
HETATM   24  C4  UNL     1      -6.399  -4.889  13.980  1.00  0.00     0.171 C 
HETATM   25  O1  UNL     1      -7.629  -5.525  13.852  1.00  0.00    -0.374 OA
HETATM   26  C3  UNL     1      -8.616  -5.046  14.650  1.00  0.00     0.153 C 
HETATM   27  C20 UNL     1      -8.411  -3.745  15.313  1.00  0.00     0.178 C 
HETATM   28  C19 UNL     1      -7.372  -2.837  14.780  1.00  0.00     0.180 C 
HETATM   29  C18 UNL     1      -6.656  -3.442  13.590  1.00  0.00     0.180 C 
BRANCH  26  30
HETATM   30  C2  UNL     1      -9.881  -4.924  13.788  1.00  0.00     0.030 C 
HETATM   31  C1  UNL     1     -11.014  -5.508  14.604  1.00  0.00     0.007 C 
ENDBRANCH  26  30
BRANCH  27  32
HETATM   32  O9  UNL     1      -8.076  -4.013  16.664  1.00  0.00    -0.390 OA
ATOM     33  H9  UNL     1      -7.208  -3.657  16.813  1.00  0.00     0.210 HD
ENDBRANCH  27  32
BRANCH  28  34
HETATM   34  O8  UNL     1      -6.356  -2.561  15.725  1.00  0.00    -0.390 OA
ATOM     35  H8  UNL     1      -6.198  -1.626  15.655  1.00  0.00     0.210 HD
ENDBRANCH  28  34
BRANCH  29  36
HETATM   36  O7  UNL     1      -5.475  -2.769  13.297  1.00  0.00    -0.390 OA
ATOM     37  H7  UNL     1      -5.222  -2.880  12.388  1.00  0.00     0.210 HD
ENDBRANCH  29  36
ENDBRANCH  23  24
ENDBRANCH   1  23
TORSDOF 12
ENDMDL
MODEL 2
REMARK VINA RESULT: -7.992735923      1.015      1.349
REMARK  12 active torsions:
REMARK  status: ('A' for Active; 'I' for Inactive)
REMARK    1  A    between atoms: C2_2  and  C3_3 
REMARK    2  A    between atoms: C4_5  and  C5_6 
REMARK    3  A    between atoms: C5_6  and  N1_7 
REMARK       I    between atoms: N1_7  and  C6_9 
REMARK    4  A    between atoms: C6_9  and  C7_11 
REMARK    5  A    between atoms: C7_11  and  C8_13 
REMARK    6  A    between atoms: C10_15  and  O4_16 
REMARK    7  A    between atoms: C11_18  and  O5_19 
REMARK    8  A    between atoms: C12_21  and  S1_22 
REMARK    9  A    between atoms: S1_22  and  C13_23 
REMARK   10  A    between atoms: C18_29  and  O7_30 
REMARK   11  A    between atoms: C19_32  and  O8_33 
REMARK   12  A    between atoms: C20_35  and  O9_36 
ROOT
HETATM    1  N1  UNL     1      -5.725  -5.729  11.227  1.00  0.00    -0.352 N 
ATOM      2  H1  UNL     1      -4.960  -5.090  11.445  1.00  0.00     0.162 HD
HETATM    3  C6  UNL     1      -5.806  -6.315   9.913  1.00  0.00     0.290 C 
HETATM    4  O2  UNL     1      -6.733  -7.103   9.621  1.00  0.00    -0.264 OA
ENDROOT
BRANCH   3   5
HETATM    5  C7  UNL     1      -4.812  -5.990   8.932  1.00  0.00     0.245 C 
HETATM    6  O3  UNL     1      -4.014  -6.878   8.509  1.00  0.00    -0.284 OA
BRANCH   5   7
HETATM    7  C8  UNL     1      -4.632  -4.622   8.339  1.00  0.00     0.205 C 
HETATM    8  C9  UNL     1      -3.259  -4.450   7.781  1.00  0.00     0.074 C 
HETATM    9  C10 UNL     1      -3.003  -3.007   7.471  1.00  0.00     0.153 C 
HETATM   10  C11 UNL     1      -4.300  -2.230   7.597  1.00  0.00     0.185 C 
HETATM   11  C12 UNL     1      -4.752  -2.391   9.021  1.00  0.00     0.215 C 
HETATM   12  O6  UNL     1      -5.007  -3.726   9.302  1.00  0.00    -0.359 OA
BRANCH   9  13
HETATM   13  O4  UNL     1      -2.429  -2.768   6.247  1.00  0.00    -0.393 OA
ATOM     14  H4  UNL     1      -1.596  -2.313   6.276  1.00  0.00     0.210 HD
ENDBRANCH   9  13
BRANCH  10  15
HETATM   15  O5  UNL     1      -4.161  -0.893   7.295  1.00  0.00    -0.390 OA
ATOM     16  H5  UNL     1      -4.992  -0.452   7.161  1.00  0.00     0.210 HD
ENDBRANCH  10  15
BRANCH  11  17
HETATM   17  S1  UNL     1      -3.494  -1.730  10.122  1.00  0.00    -0.130 SA
BRANCH  17  18
HETATM   18  C13 UNL     1      -3.690   0.023  10.455  1.00  0.00     0.050 C 
HETATM   19  C14 UNL     1      -2.437   0.752   9.981  1.00  0.00     0.015 C 
HETATM   20  C15 UNL     1      -2.208   1.827  11.044  1.00  0.00     0.001 C 
HETATM   21  C16 UNL     1      -2.528   1.059  12.312  1.00  0.00     0.001 C 
HETATM   22  C17 UNL     1      -3.745   0.251  11.937  1.00  0.00     0.015 C 
ENDBRANCH  17  18
ENDBRANCH  11  17
ENDBRANCH   5   7
ENDBRANCH   3   5
BRANCH   1  23
HETATM   23  C5  UNL     1      -6.710  -6.032  12.241  1.00  0.00     0.157 C 
BRANCH  23  24
HETATM   24  C4  UNL     1      -6.620  -5.020  13.326  1.00  0.00     0.171 C 
HETATM   25  O1  UNL     1      -7.360  -5.428  14.430  1.00  0.00    -0.374 OA
HETATM   26  C3  UNL     1      -7.293  -4.607  15.508  1.00  0.00     0.153 C 
HETATM   27  C20 UNL     1      -6.739  -3.253  15.324  1.00  0.00     0.178 C 
HETATM   28  C19 UNL     1      -6.675  -2.697  13.955  1.00  0.00     0.180 C 
HETATM   29  C18 UNL     1      -7.206  -3.674  12.927  1.00  0.00     0.180 C 
BRANCH  26  30
HETATM   30  C2  UNL     1      -8.721  -4.447  16.050  1.00  0.00     0.030 C 
HETATM   31  C1  UNL     1      -9.642  -5.062  15.020  1.00  0.00     0.007 C 
ENDBRANCH  26  30
BRANCH  27  32
HETATM   32  O9  UNL     1      -5.415  -3.270  15.830  1.00  0.00    -0.390 OA
ATOM     33  H9  UNL     1      -5.021  -2.434  15.610  1.00  0.00     0.210 HD
ENDBRANCH  27  32
BRANCH  28  34
HETATM   34  O8  UNL     1      -5.351  -2.411  13.548  1.00  0.00    -0.390 OA
ATOM     35  H8  UNL     1      -5.050  -1.727  14.136  1.00  0.00     0.210 HD
ENDBRANCH  28  34
BRANCH  29  36
HETATM   36  O7  UNL     1      -6.844  -3.317  11.633  1.00  0.00    -0.390 OA
ATOM     37  H7  UNL     1      -7.597  -3.270  11.057  1.00  0.00     0.210 HD
ENDBRANCH  29  36
ENDBRANCH  23  24
ENDBRANCH   1  23
TORSDOF 12
ENDMDL
MODEL 3
REMARK VINA RESULT: -7.779063671      1.236      1.348
REMARK  12 active torsions:
REMARK  status: ('A' for Active; 'I' for Inactive)
REMARK    1  A    between atoms: C2_2  and  C3_3 
REMARK    2  A    between atoms: C4_5  and  C5_6 
REMARK    3  A    between atoms: C5_6  and  N1_7 
REMARK       I    between atoms: N1_7  and  C6_9 
REMARK    4  A    between atoms: C6_9  and  C7_11 
REMARK    5  A    between atoms: C7_11  and  C8_13 
REMARK    6  A    between atoms: C10_15  and  O4_16 
REMARK    7  A    between atoms: C11_18  and  O5_19 
REMARK    8  A    between atoms: C12_21  and  S1_22 
REMARK    9  A    between atoms: S1_22  and  C13_23 
REMARK   10  A    between atoms: C18_29  and  O7_30 
REMARK   11  A    between atoms: C19_32  and  O8_33 
REMARK   12  A    between atoms: C20_35  and  O9_36 
ROOT
HETATM    1  N1  UNL     1      -6.028  -5.643  11.513  1.00  0.00    -0.352 N 
ATOM      2  H1  UNL     1      -6.817  -5.039  11.283  1.00  0.00     0.162 HD
HETATM    3  C6  UNL     1      -5.556  -6.594  10.538  1.00  0.00     0.290 C 
HETATM    4  O2  UNL     1      -4.590  -7.346  10.794  1.00  0.00    -0.264 OA
ENDROOT
BRANCH   3   5
HETATM    5  C7  UNL     1      -6.205  -6.677   9.263  1.00  0.00     0.245 C 
HETATM    6  O3  UNL     1      -6.758  -7.756   8.893  1.00  0.00    -0.284 OA
BRANCH   5   7
HETATM    7  C8  UNL     1      -6.289  -5.539   8.286  1.00  0.00     0.205 C 
HETATM    8  C9  UNL     1      -5.382  -5.758   7.120  1.00  0.00     0.074 C 
HETATM    9  C10 UNL     1      -5.254  -4.498   6.321  1.00  0.00     0.153 C 
HETATM   10  C11 UNL     1      -6.271  -3.486   6.815  1.00  0.00     0.185 C 
HETATM   11  C12 UNL     1      -5.946  -3.230   8.259  1.00  0.00     0.215 C 
HETATM   12  O6  UNL     1      -6.083  -4.393   9.003  1.00  0.00    -0.359 OA
BRANCH   9  13
HETATM   13  O4  UNL     1      -5.369  -4.657   4.963  1.00  0.00    -0.393 OA
ATOM     14  H4  UNL     1      -4.567  -4.900   4.517  1.00  0.00     0.210 HD
ENDBRANCH   9  13
BRANCH  10  15
HETATM   15  O5  UNL     1      -6.244  -2.303   6.107  1.00  0.00    -0.390 OA
ATOM     16  H5  UNL     1      -6.986  -1.740   6.294  1.00  0.00     0.210 HD
ENDBRANCH  10  15
BRANCH  11  17
HETATM   17  S1  UNL     1      -4.275  -2.579   8.385  1.00  0.00    -0.130 SA
BRANCH  17  18
HETATM   18  C13 UNL     1      -4.215  -0.878   8.958  1.00  0.00     0.050 C 
HETATM   19  C14 UNL     1      -2.759  -0.498   9.205  1.00  0.00     0.015 C 
HETATM   20  C15 UNL     1      -2.809   0.369  10.463  1.00  0.00     0.001 C 
HETATM   21  C16 UNL     1      -3.825  -0.384  11.299  1.00  0.00     0.001 C 
HETATM   22  C17 UNL     1      -4.883  -0.776  10.298  1.00  0.00     0.015 C 
ENDBRANCH  17  18
ENDBRANCH  11  17
ENDBRANCH   5   7
ENDBRANCH   3   5
BRANCH   1  23
HETATM   23  C5  UNL     1      -5.400  -5.531  12.810  1.00  0.00     0.157 C 
BRANCH  23  24
HETATM   24  C4  UNL     1      -6.368  -4.943  13.772  1.00  0.00     0.171 C 
HETATM   25  O1  UNL     1      -7.607  -5.562  13.651  1.00  0.00    -0.374 OA
HETATM   26  C3  UNL     1      -8.552  -5.147  14.532  1.00  0.00     0.153 C 
HETATM   27  C20 UNL     1      -8.306  -3.907  15.290  1.00  0.00     0.178 C 
HETATM   28  C19 UNL     1      -7.287  -2.962  14.784  1.00  0.00     0.180 C 
HETATM   29  C18 UNL     1      -6.632  -3.467  13.515  1.00  0.00     0.180 C 
BRANCH  26  30
HETATM   30  C2  UNL     1      -9.856  -4.951  13.745  1.00  0.00     0.030 C 
HETATM   31  C1  UNL     1     -10.978  -5.397  14.655  1.00  0.00     0.007 C 
ENDBRANCH  26  30
BRANCH  27  32
HETATM   32  O9  UNL     1      -7.910  -4.287  16.596  1.00  0.00    -0.390 OA
ATOM     33  H9  UNL     1      -7.190  -4.901  16.503  1.00  0.00     0.210 HD
ENDBRANCH  27  32
BRANCH  28  34
HETATM   34  O8  UNL     1      -6.225  -2.768  15.699  1.00  0.00    -0.390 OA
ATOM     35  H8  UNL     1      -6.108  -1.826  15.750  1.00  0.00     0.210 HD
ENDBRANCH  28  34
BRANCH  29  36
HETATM   36  O7  UNL     1      -5.461  -2.777  13.223  1.00  0.00    -0.390 OA
ATOM     37  H7  UNL     1      -5.623  -2.033  12.655  1.00  0.00     0.210 HD
ENDBRANCH  29  36
ENDBRANCH  23  24
ENDBRANCH   1  23
TORSDOF 12
ENDMDL
MODEL 4
REMARK VINA RESULT: -7.716653538      2.088      2.866
REMARK  12 active torsions:
REMARK  status: ('A' for Active; 'I' for Inactive)
REMARK    1  A    between atoms: C2_2  and  C3_3 
REMARK    2  A    between atoms: C4_5  and  C5_6 
REMARK    3  A    between atoms: C5_6  and  N1_7 
REMARK       I    between atoms: N1_7  and  C6_9 
REMARK    4  A    between atoms: C6_9  and  C7_11 
REMARK    5  A    between atoms: C7_11  and  C8_13 
REMARK    6  A    between atoms: C10_15  and  O4_16 
REMARK    7  A    between atoms: C11_18  and  O5_19 
REMARK    8  A    between atoms: C12_21  and  S1_22 
REMARK    9  A    between atoms: S1_22  and  C13_23 
REMARK   10  A    between atoms: C18_29  and  O7_30 
REMARK   11  A    between atoms: C19_32  and  O8_33 
REMARK   12  A    between atoms: C20_35  and  O9_36 
ROOT
HETATM    1  N1  UNL     1      -6.326  -3.201  13.980  1.00  0.00    -0.352 N 
ATOM      2  H1  UNL     1      -6.161  -2.264  14.347  1.00  0.00     0.162 HD
HETATM    3  C6  UNL     1      -6.453  -3.394  12.558  1.00  0.00     0.290 C 
HETATM    4  O2  UNL     1      -6.654  -4.534  12.083  1.00  0.00    -0.264 OA
ENDROOT
BRANCH   3   5
HETATM    5  C7  UNL     1      -6.348  -2.265  11.681  1.00  0.00     0.245 C 
HETATM    6  O3  UNL     1      -6.884  -1.160  11.992  1.00  0.00    -0.284 OA
BRANCH   5   7
HETATM    7  C8  UNL     1      -5.621  -2.285  10.367  1.00  0.00     0.205 C 
HETATM    8  C9  UNL     1      -4.540  -3.314  10.362  1.00  0.00     0.074 C 
HETATM    9  C10 UNL     1      -3.645  -3.118   9.176  1.00  0.00     0.153 C 
HETATM   10  C11 UNL     1      -4.267  -2.096   8.243  1.00  0.00     0.185 C 
HETATM   11  C12 UNL     1      -4.386  -0.822   9.030  1.00  0.00     0.215 C 
HETATM   12  O6  UNL     1      -5.231  -0.998  10.117  1.00  0.00    -0.359 OA
BRANCH   9  13
HETATM   13  O4  UNL     1      -3.338  -4.262   8.484  1.00  0.00    -0.393 OA
ATOM     14  H4  UNL     1      -2.418  -4.500   8.487  1.00  0.00     0.210 HD
ENDBRANCH   9  13
BRANCH  10  15
HETATM   15  O5  UNL     1      -3.521  -1.880   7.104  1.00  0.00    -0.390 OA
ATOM     16  H5  UNL     1      -3.488  -2.637   6.531  1.00  0.00     0.210 HD
ENDBRANCH  10  15
BRANCH  11  17
HETATM   17  S1  UNL     1      -2.751  -0.298   9.562  1.00  0.00    -0.130 SA
BRANCH  17  18
HETATM   18  C13 UNL     1      -2.256   1.289   8.883  1.00  0.00     0.050 C 
HETATM   19  C14 UNL     1      -0.856   1.152   8.294  1.00  0.00     0.015 C 
HETATM   20  C15 UNL     1      -0.173   2.473   8.648  1.00  0.00     0.001 C 
HETATM   21  C16 UNL     1      -0.670   2.691  10.064  1.00  0.00     0.001 C 
HETATM   22  C17 UNL     1      -2.123   2.291   9.992  1.00  0.00     0.015 C 
ENDBRANCH  17  18
ENDBRANCH  11  17
ENDBRANCH   5   7
ENDBRANCH   3   5
BRANCH   1  23
HETATM   23  C5  UNL     1      -6.428  -4.316  14.896  1.00  0.00     0.157 C 
BRANCH  23  24
HETATM   24  C4  UNL     1      -7.810  -4.375  15.440  1.00  0.00     0.171 C 
HETATM   25  O1  UNL     1      -8.616  -5.166  14.630  1.00  0.00    -0.374 OA
HETATM   26  C3  UNL     1      -9.886  -5.344  15.072  1.00  0.00     0.153 C 
HETATM   27  C20 UNL     1     -10.384  -4.464  16.145  1.00  0.00     0.178 C 
HETATM   28  C19 UNL     1      -9.674  -3.193  16.400  1.00  0.00     0.180 C 
HETATM   29  C18 UNL     1      -8.489  -3.015  15.473  1.00  0.00     0.180 C 
BRANCH  26  30
HETATM   30  C2  UNL     1     -10.819  -5.166  13.865  1.00  0.00     0.030 C 
HETATM   31  C1  UNL     1     -12.191  -5.621  14.312  1.00  0.00     0.007 C 
ENDBRANCH  26  30
BRANCH  27  32
HETATM   32  O9  UNL     1     -10.348  -5.212  17.348  1.00  0.00    -0.390 OA
ATOM     33  H9  UNL     1      -9.520  -5.017  17.774  1.00  0.00     0.210 HD
ENDBRANCH  27  32
BRANCH  28  34
HETATM   34  O8  UNL     1      -9.137  -3.124  17.707  1.00  0.00    -0.390 OA
ATOM     35  H8  UNL     1      -8.944  -4.024  17.946  1.00  0.00     0.210 HD
ENDBRANCH  28  34
BRANCH  29  36
HETATM   36  O7  UNL     1      -7.627  -2.018  15.916  1.00  0.00    -0.390 OA
ATOM     37  H7  UNL     1      -7.047  -1.721  15.225  1.00  0.00     0.210 HD
ENDBRANCH  29  36
ENDBRANCH  23  24
ENDBRANCH   1  23
TORSDOF 12
ENDMDL
MODEL 5
REMARK VINA RESULT: -7.615157770      2.083      7.992
REMARK  12 active torsions:
REMARK  status: ('A' for Active; 'I' for Inactive)
REMARK    1  A    between atoms: C2_2  and  C3_3 
REMARK    2  A    between atoms: C4_5  and  C5_6 
REMARK    3  A    between atoms: C5_6  and  N1_7 
REMARK       I    between atoms: N1_7  and  C6_9 
REMARK    4  A    between atoms: C6_9  and  C7_11 
REMARK    5  A    between atoms: C7_11  and  C8_13 
REMARK    6  A    between atoms: C10_15  and  O4_16 
REMARK    7  A    between atoms: C11_18  and  O5_19 
REMARK    8  A    between atoms: C12_21  and  S1_22 
REMARK    9  A    between atoms: S1_22  and  C13_23 
REMARK   10  A    between atoms: C18_29  and  O7_30 
REMARK   11  A    between atoms: C19_32  and  O8_33 
REMARK   12  A    between atoms: C20_35  and  O9_36 
ROOT
HETATM    1  N1  UNL     1      -5.465  -5.113   9.844  1.00  0.00    -0.352 N 
ATOM      2  H1  UNL     1      -6.295  -4.548   9.668  1.00  0.00     0.162 HD
HETATM    3  C6  UNL     1      -5.371  -5.874  11.065  1.00  0.00     0.290 C 
HETATM    4  O2  UNL     1      -4.365  -6.577  11.305  1.00  0.00    -0.264 OA
ENDROOT
BRANCH   3   5
HETATM    5  C7  UNL     1      -6.446  -5.823  12.012  1.00  0.00     0.245 C 
HETATM    6  O3  UNL     1      -7.336  -6.725  12.022  1.00  0.00    -0.284 OA
BRANCH   5   7
HETATM    7  C8  UNL     1      -6.611  -4.740  13.039  1.00  0.00     0.205 C 
HETATM    8  C9  UNL     1      -5.805  -5.027  14.263  1.00  0.00     0.074 C 
HETATM    9  C10 UNL     1      -6.209  -4.108  15.376  1.00  0.00     0.153 C 
HETATM   10  C11 UNL     1      -7.127  -3.032  14.828  1.00  0.00     0.185 C 
HETATM   11  C12 UNL     1      -8.328  -3.744  14.270  1.00  0.00     0.215 C 
HETATM   12  O6  UNL     1      -7.956  -4.580  13.227  1.00  0.00    -0.359 OA
BRANCH   9  13
HETATM   13  O4  UNL     1      -5.168  -3.535  16.062  1.00  0.00    -0.393 OA
ATOM     14  H4  UNL     1      -4.806  -2.753  15.663  1.00  0.00     0.210 HD
ENDBRANCH   9  13
BRANCH  10  15
HETATM   15  O5  UNL     1      -7.521  -2.120  15.783  1.00  0.00    -0.390 OA
ATOM     16  H5  UNL     1      -6.812  -1.563  16.081  1.00  0.00     0.210 HD
ENDBRANCH  10  15
BRANCH  11  17
HETATM   17  S1  UNL     1      -9.131  -4.671  15.584  1.00  0.00    -0.130 SA
BRANCH  17  18
HETATM   18  C13 UNL     1     -10.909  -4.809  15.373  1.00  0.00     0.050 C 
HETATM   19  C14 UNL     1     -11.422  -5.927  16.274  1.00  0.00     0.015 C 
HETATM   20  C15 UNL     1     -12.504  -6.611  15.437  1.00  0.00     0.001 C 
HETATM   21  C16 UNL     1     -11.855  -6.617  14.067  1.00  0.00     0.001 C 
HETATM   22  C17 UNL     1     -11.217  -5.254  13.974  1.00  0.00     0.015 C 
ENDBRANCH  17  18
ENDBRANCH  11  17
ENDBRANCH   5   7
ENDBRANCH   3   5
BRANCH   1  23
HETATM   23  C5  UNL     1      -4.400  -5.139   8.867  1.00  0.00     0.157 C 
BRANCH  23  24
HETATM   24  C4  UNL     1      -3.987  -3.745   8.559  1.00  0.00     0.171 C 
HETATM   25  O1  UNL     1      -3.859  -3.008   9.731  1.00  0.00    -0.374 OA
HETATM   26  C3  UNL     1      -3.418  -1.735   9.571  1.00  0.00     0.153 C 
HETATM   27  C20 UNL     1      -3.427  -1.157   8.214  1.00  0.00     0.178 C 
HETATM   28  C19 UNL     1      -4.274  -1.791   7.182  1.00  0.00     0.180 C 
HETATM   29  C18 UNL     1      -5.016  -2.995   7.726  1.00  0.00     0.180 C 
BRANCH  26  30
HETATM   30  C2  UNL     1      -4.292  -0.835  10.456  1.00  0.00     0.030 C 
HETATM   31  C1  UNL     1      -3.343   0.036  11.251  1.00  0.00     0.007 C 
ENDBRANCH  26  30
BRANCH  27  32
HETATM   32  O9  UNL     1      -2.092  -1.192   7.738  1.00  0.00    -0.390 OA
ATOM     33  H9  UNL     1      -2.133  -1.160   6.788  1.00  0.00     0.210 HD
ENDBRANCH  27  32
BRANCH  28  34
HETATM   34  O8  UNL     1      -3.523  -2.280   6.088  1.00  0.00    -0.390 OA
ATOM     35  H8  UNL     1      -3.076  -1.520   5.731  1.00  0.00     0.210 HD
ENDBRANCH  28  34
BRANCH  29  36
HETATM   36  O7  UNL     1      -5.535  -3.789   6.710  1.00  0.00    -0.390 OA
ATOM     37  H7  UNL     1      -5.827  -3.269   5.971  1.00  0.00     0.210 HD
ENDBRANCH  29  36
ENDBRANCH  23  24
ENDBRANCH   1  23
TORSDOF 12
ENDMDL
