MODEL 1
REMARK VINA RESULT: -8.019100504      0.000      0.000
REMARK  15 active torsions:
REMARK  status: ('A' for Active; 'I' for Inactive)
REMARK    1  A    between atoms: C2_2  and  N2_6 
REMARK    2  A    between atoms: N2_6  and  C3_8 
REMARK    3  A    between atoms: C4_9  and  O1_10 
REMARK    4  A    between atoms: O1_10  and  C5_11 
REMARK    5  A    between atoms: C5_11  and  C6_13 
REMARK    6  A    between atoms: C6_13  and  N3_14 
REMARK    7  A    between atoms: C6_13  and  C7_18 
REMARK    8  A    between atoms: C7_18  and  C8_20 
REMARK       I    between atoms: C8_20  and  N4_22 
REMARK    9  A    between atoms: N4_22  and  C9_24 
REMARK   10  A    between atoms: C15_31  and  C16_32 
REMARK   11  A    between atoms: C16_32  and  N5_33 
REMARK   12  A    between atoms: N5_33  and  N6_35 
REMARK   13  A    between atoms: N6_35  and  N7_36 
REMARK   14  A    between atoms: C17_39  and  O6_40 
REMARK   15  A    between atoms: C18_42  and  O7_43 
ROOT
HETATM    1  C3  UNL     1      -5.136  -1.925   8.838  1.00  0.00     0.169 C 
HETATM    2  C4  UNL     1      -3.916  -1.042   8.651  1.00  0.00     0.295 C 
HETATM    3  O5  UNL     1      -3.954  -0.047   9.612  1.00  0.00    -0.349 OA
HETATM    4  C15 UNL     1      -3.716  -0.608  10.868  1.00  0.00     0.176 C 
HETATM    5  C17 UNL     1      -4.908  -1.472  11.217  1.00  0.00     0.179 C 
HETATM    6  C18 UNL     1      -4.966  -2.598  10.205  1.00  0.00     0.177 C 
ENDROOT
BRANCH   2   7
HETATM    7  O1  UNL     1      -2.773  -1.870   8.769  1.00  0.00    -0.285 OA
BRANCH   7   8
HETATM    8  C5  UNL     1      -1.597  -1.646   8.067  1.00  0.00     0.300 C 
HETATM    9  O2  UNL     1      -0.983  -0.583   8.335  1.00  0.00    -0.262 OA
BRANCH   8  10
HETATM   10  C6  UNL     1      -1.168  -2.639   7.088  1.00  0.00     0.361 C 
BRANCH  10  11
HETATM   11  N3  UNL     1      -1.679  -3.947   7.438  1.00  0.00    -0.059 N 
ATOM     12  H33 UNL     1      -2.053  -3.966   8.387  1.00  0.00     0.275 HD
ATOM     13  H32 UNL     1      -2.537  -4.167   6.932  1.00  0.00     0.275 HD
ATOM     14  H31 UNL     1      -0.962  -4.658   7.298  1.00  0.00     0.275 HD
ENDBRANCH  10  11
BRANCH  10  15
HETATM   15  C7  UNL     1       0.278  -2.650   6.814  1.00  0.00     0.256 C 
HETATM   16  O3  UNL     1       0.768  -1.705   6.119  1.00  0.00    -0.284 OA
BRANCH  15  17
HETATM   17  C8  UNL     1       1.203  -3.660   7.275  1.00  0.00     0.290 C 
HETATM   18  O4  UNL     1       1.349  -3.801   8.506  1.00  0.00    -0.264 OA
HETATM   19  N4  UNL     1       1.937  -4.482   6.397  1.00  0.00    -0.350 N 
ATOM     20  H4  UNL     1       1.808  -4.356   5.393  1.00  0.00     0.163 HD
BRANCH  19  21
HETATM   21  C9  UNL     1       2.871  -5.500   6.852  1.00  0.00     0.084 C 
HETATM   22  C10 UNL     1       2.472  -6.878   6.395  1.00  0.00     0.025 C 
HETATM   23  C11 UNL     1       3.341  -7.425   5.303  1.00  0.00     0.002 C 
HETATM   24  C12 UNL     1       3.744  -6.355   4.319  1.00  0.00     0.000 C 
HETATM   25  C13 UNL     1       4.530  -5.269   4.976  1.00  0.00     0.002 C 
HETATM   26  C14 UNL     1       4.259  -5.117   6.443  1.00  0.00     0.025 C 
ENDBRANCH  19  21
ENDBRANCH  15  17
ENDBRANCH  10  15
ENDBRANCH   8  10
ENDBRANCH   7   8
ENDBRANCH   2   7
BRANCH   1  27
HETATM   27  N2  UNL     1      -5.196  -2.958   7.845  1.00  0.00    -0.368 N 
ATOM     28  H2  UNL     1      -5.036  -3.925   8.126  1.00  0.00     0.161 HD
BRANCH  27  29
HETATM   29  C2  UNL     1      -5.470  -2.675   6.488  1.00  0.00     0.067 C 
HETATM   30  C1  UNL     1      -4.483  -2.759   5.408  1.00  0.00     0.088 C 
HETATM   31  N1  UNL     1      -6.685  -2.315   6.172  1.00  0.00    -0.389 N 
ATOM     32  H12 UNL     1      -6.883  -2.110   5.193  1.00  0.00     0.157 HD
ATOM     33  H11 UNL     1      -7.371  -2.257   6.925  1.00  0.00     0.157 HD
ENDBRANCH  27  29
ENDBRANCH   1  27
BRANCH   6  34
HETATM   34  O7  UNL     1      -5.973  -3.500  10.471  1.00  0.00    -0.391 OA
ATOM     35  H7  UNL     1      -6.035  -3.707  11.396  1.00  0.00     0.210 HD
ENDBRANCH   6  34
BRANCH   4  36
HETATM   36  C16 UNL     1      -3.490   0.465  11.916  1.00  0.00     0.190 C 
BRANCH  36  37
HETATM   37  N5  UNL     1      -2.146   0.946  11.843  1.00  0.00    -0.250 N 
ATOM     38  H5  UNL     1      -1.543   0.781  12.647  1.00  0.00     0.197 HD
BRANCH  37  39
HETATM   39  N6  UNL     1      -1.662   1.545  10.883  1.00  0.00    -0.248 NA
BRANCH  39  40
HETATM   40  N7  UNL     1      -1.252   1.946   9.795  1.00  0.00    -0.261 N 
ATOM     41  H72 UNL     1      -1.756   1.194   9.325  1.00  0.00     0.193 HD
ATOM     42  H71 UNL     1      -0.818   2.422   9.005  1.00  0.00     0.193 HD
ENDBRANCH  39  40
ENDBRANCH  37  39
ENDBRANCH  36  37
ENDBRANCH   4  36
BRANCH   5  43
HETATM   43  O6  UNL     1      -6.086  -0.718  11.028  1.00  0.00    -0.390 OA
ATOM     44  H6  UNL     1      -6.759  -1.051  11.611  1.00  0.00     0.210 HD
ENDBRANCH   5  43
TORSDOF 15
ENDMDL
MODEL 2
REMARK VINA RESULT: -7.874960721      3.841      6.178
REMARK  15 active torsions:
REMARK  status: ('A' for Active; 'I' for Inactive)
REMARK    1  A    between atoms: C2_2  and  N2_6 
REMARK    2  A    between atoms: N2_6  and  C3_8 
REMARK    3  A    between atoms: C4_9  and  O1_10 
REMARK    4  A    between atoms: O1_10  and  C5_11 
REMARK    5  A    between atoms: C5_11  and  C6_13 
REMARK    6  A    between atoms: C6_13  and  N3_14 
REMARK    7  A    between atoms: C6_13  and  C7_18 
REMARK    8  A    between atoms: C7_18  and  C8_20 
REMARK       I    between atoms: C8_20  and  N4_22 
REMARK    9  A    between atoms: N4_22  and  C9_24 
REMARK   10  A    between atoms: C15_31  and  C16_32 
REMARK   11  A    between atoms: C16_32  and  N5_33 
REMARK   12  A    between atoms: N5_33  and  N6_35 
REMARK   13  A    between atoms: N6_35  and  N7_36 
REMARK   14  A    between atoms: C17_39  and  O6_40 
REMARK   15  A    between atoms: C18_42  and  O7_43 
ROOT
HETATM    1  C3  UNL     1      -5.736  -5.322  10.752  1.00  0.00     0.169 C 
HETATM    2  C4  UNL     1      -5.575  -4.571   9.443  1.00  0.00     0.295 C 
HETATM    3  O5  UNL     1      -6.308  -3.401   9.526  1.00  0.00    -0.349 OA
HETATM    4  C15 UNL     1      -5.696  -2.535  10.433  1.00  0.00     0.176 C 
HETATM    5  C17 UNL     1      -5.848  -3.136  11.813  1.00  0.00     0.179 C 
HETATM    6  C18 UNL     1      -5.084  -4.444  11.827  1.00  0.00     0.177 C 
ENDROOT
BRANCH   2   7
HETATM    7  O1  UNL     1      -4.191  -4.335   9.258  1.00  0.00    -0.285 OA
BRANCH   7   8
HETATM    8  C5  UNL     1      -3.473  -4.832   8.180  1.00  0.00     0.300 C 
HETATM    9  O2  UNL     1      -3.402  -6.083   8.087  1.00  0.00    -0.262 OA
BRANCH   8  10
HETATM   10  C6  UNL     1      -2.863  -3.886   7.251  1.00  0.00     0.361 C 
BRANCH  10  11
HETATM   11  N3  UNL     1      -2.017  -4.582   6.305  1.00  0.00    -0.059 N 
ATOM     12  H33 UNL     1      -2.469  -4.683   5.396  1.00  0.00     0.275 HD
ATOM     13  H32 UNL     1      -1.221  -4.012   6.017  1.00  0.00     0.275 HD
ATOM     14  H31 UNL     1      -1.723  -5.481   6.685  1.00  0.00     0.275 HD
ENDBRANCH  10  11
BRANCH  10  15
HETATM   15  C7  UNL     1      -2.182  -2.748   7.889  1.00  0.00     0.256 C 
HETATM   16  O3  UNL     1      -0.952  -2.868   8.185  1.00  0.00    -0.284 OA
BRANCH  15  17
HETATM   17  C8  UNL     1      -2.804  -1.484   8.213  1.00  0.00     0.290 C 
HETATM   18  O4  UNL     1      -3.914  -1.230   7.704  1.00  0.00    -0.264 OA
HETATM   19  N4  UNL     1      -2.210  -0.539   9.073  1.00  0.00    -0.350 N 
ATOM     20  H4  UNL     1      -1.302  -0.759   9.483  1.00  0.00     0.163 HD
BRANCH  19  21
HETATM   21  C9  UNL     1      -2.827   0.736   9.404  1.00  0.00     0.084 C 
HETATM   22  C10 UNL     1      -2.538   1.154  10.821  1.00  0.00     0.025 C 
HETATM   23  C11 UNL     1      -1.559   2.285  10.927  1.00  0.00     0.002 C 
HETATM   24  C12 UNL     1      -0.461   2.172   9.900  1.00  0.00     0.000 C 
HETATM   25  C13 UNL     1      -1.001   2.215   8.508  1.00  0.00     0.002 C 
HETATM   26  C14 UNL     1      -2.425   1.759   8.389  1.00  0.00     0.025 C 
ENDBRANCH  19  21
ENDBRANCH  15  17
ENDBRANCH  10  15
ENDBRANCH   8  10
ENDBRANCH   7   8
ENDBRANCH   2   7
BRANCH   1  27
HETATM   27  N2  UNL     1      -5.042  -6.576  10.729  1.00  0.00    -0.368 N 
ATOM     28  H2  UNL     1      -4.104  -6.630  11.127  1.00  0.00     0.161 HD
BRANCH  27  29
HETATM   29  C2  UNL     1      -5.619  -7.740  10.172  1.00  0.00     0.067 C 
HETATM   30  C1  UNL     1      -6.985  -8.196  10.439  1.00  0.00     0.088 C 
HETATM   31  N1  UNL     1      -4.887  -8.458   9.364  1.00  0.00    -0.389 N 
ATOM     32  H12 UNL     1      -5.303  -9.298   8.962  1.00  0.00     0.157 HD
ATOM     33  H11 UNL     1      -3.935  -8.140   9.179  1.00  0.00     0.157 HD
ENDBRANCH  27  29
ENDBRANCH   1  27
BRANCH   6  34
HETATM   34  O7  UNL     1      -5.085  -5.048  13.065  1.00  0.00    -0.391 OA
ATOM     35  H7  UNL     1      -5.930  -5.426  13.279  1.00  0.00     0.210 HD
ENDBRANCH   6  34
BRANCH   4  36
HETATM   36  C16 UNL     1      -6.307  -1.147  10.369  1.00  0.00     0.190 C 
BRANCH  36  37
HETATM   37  N5  UNL     1      -6.736  -0.740  11.670  1.00  0.00    -0.250 N 
ATOM     38  H5  UNL     1      -6.328  -1.221  12.472  1.00  0.00     0.197 HD
BRANCH  37  39
HETATM   39  N6  UNL     1      -7.558   0.145  11.898  1.00  0.00    -0.248 NA
BRANCH  39  40
HETATM   40  N7  UNL     1      -8.359   0.956  12.360  1.00  0.00    -0.261 N 
ATOM     41  H72 UNL     1      -8.520   0.346  13.161  1.00  0.00     0.193 HD
ATOM     42  H71 UNL     1      -8.978   1.737  12.577  1.00  0.00     0.193 HD
ENDBRANCH  39  40
ENDBRANCH  37  39
ENDBRANCH  36  37
ENDBRANCH   4  36
BRANCH   5  43
HETATM   43  O6  UNL     1      -7.203  -3.474  12.015  1.00  0.00    -0.390 OA
ATOM     44  H6  UNL     1      -7.480  -4.055  11.315  1.00  0.00     0.210 HD
ENDBRANCH   5  43
TORSDOF 15
ENDMDL
MODEL 3
REMARK VINA RESULT: -7.735860654      2.232      4.086
REMARK  15 active torsions:
REMARK  status: ('A' for Active; 'I' for Inactive)
REMARK    1  A    between atoms: C2_2  and  N2_6 
REMARK    2  A    between atoms: N2_6  and  C3_8 
REMARK    3  A    between atoms: C4_9  and  O1_10 
REMARK    4  A    between atoms: O1_10  and  C5_11 
REMARK    5  A    between atoms: C5_11  and  C6_13 
REMARK    6  A    between atoms: C6_13  and  N3_14 
REMARK    7  A    between atoms: C6_13  and  C7_18 
REMARK    8  A    between atoms: C7_18  and  C8_20 
REMARK       I    between atoms: C8_20  and  N4_22 
REMARK    9  A    between atoms: N4_22  and  C9_24 
REMARK   10  A    between atoms: C15_31  and  C16_32 
REMARK   11  A    between atoms: C16_32  and  N5_33 
REMARK   12  A    between atoms: N5_33  and  N6_35 
REMARK   13  A    between atoms: N6_35  and  N7_36 
REMARK   14  A    between atoms: C17_39  and  O6_40 
REMARK   15  A    between atoms: C18_42  and  O7_43 
ROOT
HETATM    1  C3  UNL     1      -4.041  -1.370  10.342  1.00  0.00     0.169 C 
HETATM    2  C4  UNL     1      -3.400  -2.500   9.558  1.00  0.00     0.295 C 
HETATM    3  O5  UNL     1      -3.846  -3.698  10.088  1.00  0.00    -0.349 OA
HETATM    4  C15 UNL     1      -5.198  -3.864   9.782  1.00  0.00     0.176 C 
HETATM    5  C17 UNL     1      -5.975  -2.828  10.566  1.00  0.00     0.179 C 
HETATM    6  C18 UNL     1      -5.546  -1.464  10.067  1.00  0.00     0.177 C 
ENDROOT
BRANCH   2   7
HETATM    7  O1  UNL     1      -3.767  -2.335   8.201  1.00  0.00    -0.285 OA
BRANCH   7   8
HETATM    8  C5  UNL     1      -2.847  -2.304   7.163  1.00  0.00     0.300 C 
HETATM    9  O2  UNL     1      -3.317  -2.171   6.006  1.00  0.00    -0.262 OA
BRANCH   8  10
HETATM   10  C6  UNL     1      -1.429  -2.427   7.483  1.00  0.00     0.361 C 
BRANCH  10  11
HETATM   11  N3  UNL     1      -0.857  -1.125   7.752  1.00  0.00    -0.059 N 
ATOM     12  H33 UNL     1      -0.684  -0.602   6.893  1.00  0.00     0.275 HD
ATOM     13  H32 UNL     1      -1.534  -0.494   8.181  1.00  0.00     0.275 HD
ATOM     14  H31 UNL     1      -0.013  -1.217   8.316  1.00  0.00     0.275 HD
ENDBRANCH  10  11
BRANCH  10  15
HETATM   15  C7  UNL     1      -0.642  -3.202   6.509  1.00  0.00     0.256 C 
HETATM   16  O3  UNL     1      -1.245  -3.707   5.511  1.00  0.00    -0.284 OA
BRANCH  15  17
HETATM   17  C8  UNL     1       0.781  -3.441   6.594  1.00  0.00     0.290 C 
HETATM   18  O4  UNL     1       1.528  -2.462   6.792  1.00  0.00    -0.264 OA
HETATM   19  N4  UNL     1       1.349  -4.723   6.461  1.00  0.00    -0.350 N 
ATOM     20  H4  UNL     1       0.727  -5.515   6.300  1.00  0.00     0.163 HD
BRANCH  19  21
HETATM   21  C9  UNL     1       2.780  -4.974   6.544  1.00  0.00     0.084 C 
HETATM   22  C10 UNL     1       3.160  -5.668   7.824  1.00  0.00     0.025 C 
HETATM   23  C11 UNL     1       3.529  -7.109   7.640  1.00  0.00     0.002 C 
HETATM   24  C12 UNL     1       2.659  -7.782   6.608  1.00  0.00     0.000 C 
HETATM   25  C13 UNL     1       2.797  -7.140   5.266  1.00  0.00     0.002 C 
HETATM   26  C14 UNL     1       3.226  -5.703   5.316  1.00  0.00     0.025 C 
ENDBRANCH  19  21
ENDBRANCH  15  17
ENDBRANCH  10  15
ENDBRANCH   8  10
ENDBRANCH   7   8
ENDBRANCH   2   7
BRANCH   1  27
HETATM   27  N2  UNL     1      -3.590  -0.089   9.884  1.00  0.00    -0.368 N 
ATOM     28  H2  UNL     1      -3.869   0.232   8.957  1.00  0.00     0.161 HD
BRANCH  27  29
HETATM   29  C2  UNL     1      -2.770   0.743  10.679  1.00  0.00     0.067 C 
HETATM   30  C1  UNL     1      -2.913   0.908  12.128  1.00  0.00     0.088 C 
HETATM   31  N1  UNL     1      -1.818   1.411  10.085  1.00  0.00    -0.389 N 
ATOM     32  H12 UNL     1      -1.226   2.012  10.659  1.00  0.00     0.157 HD
ATOM     33  H11 UNL     1      -1.718   1.296   9.076  1.00  0.00     0.157 HD
ENDBRANCH  27  29
ENDBRANCH   1  27
BRANCH   6  34
HETATM   34  O7  UNL     1      -6.249  -0.437  10.657  1.00  0.00    -0.391 OA
ATOM     35  H7  UNL     1      -7.069  -0.260  10.211  1.00  0.00     0.210 HD
ENDBRANCH   6  34
BRANCH   4  36
HETATM   36  C16 UNL     1      -5.669  -5.268  10.111  1.00  0.00     0.190 C 
BRANCH  36  37
HETATM   37  N5  UNL     1      -4.826  -5.845  11.111  1.00  0.00    -0.250 N 
ATOM     38  H5  UNL     1      -4.022  -6.386  10.793  1.00  0.00     0.197 HD
BRANCH  37  39
HETATM   39  N6  UNL     1      -4.996  -5.741  12.324  1.00  0.00    -0.248 NA
BRANCH  39  40
HETATM   40  N7  UNL     1      -5.180  -5.395  13.490  1.00  0.00    -0.261 N 
ATOM     41  H72 UNL     1      -5.950  -4.795  13.193  1.00  0.00     0.193 HD
ATOM     42  H71 UNL     1      -5.177  -5.233  14.497  1.00  0.00     0.193 HD
ENDBRANCH  39  40
ENDBRANCH  37  39
ENDBRANCH  36  37
ENDBRANCH   4  36
BRANCH   5  43
HETATM   43  O6  UNL     1      -5.578  -2.890  11.918  1.00  0.00    -0.390 OA
ATOM     44  H6  UNL     1      -6.197  -2.395  12.442  1.00  0.00     0.210 HD
ENDBRANCH   5  43
TORSDOF 15
ENDMDL
MODEL 4
REMARK VINA RESULT: -7.721614915      1.460      1.862
REMARK  15 active torsions:
REMARK  status: ('A' for Active; 'I' for Inactive)
REMARK    1  A    between atoms: C2_2  and  N2_6 
REMARK    2  A    between atoms: N2_6  and  C3_8 
REMARK    3  A    between atoms: C4_9  and  O1_10 
REMARK    4  A    between atoms: O1_10  and  C5_11 
REMARK    5  A    between atoms: C5_11  and  C6_13 
REMARK    6  A    between atoms: C6_13  and  N3_14 
REMARK    7  A    between atoms: C6_13  and  C7_18 
REMARK    8  A    between atoms: C7_18  and  C8_20 
REMARK       I    between atoms: C8_20  and  N4_22 
REMARK    9  A    between atoms: N4_22  and  C9_24 
REMARK   10  A    between atoms: C15_31  and  C16_32 
REMARK   11  A    between atoms: C16_32  and  N5_33 
REMARK   12  A    between atoms: N5_33  and  N6_35 
REMARK   13  A    between atoms: N6_35  and  N7_36 
REMARK   14  A    between atoms: C17_39  and  O6_40 
REMARK   15  A    between atoms: C18_42  and  O7_43 
ROOT
HETATM    1  C3  UNL     1      -5.682  -2.510   9.376  1.00  0.00     0.169 C 
HETATM    2  C4  UNL     1      -4.373  -1.917   8.889  1.00  0.00     0.295 C 
HETATM    3  O5  UNL     1      -4.200  -0.692   9.508  1.00  0.00    -0.349 OA
HETATM    4  C15 UNL     1      -3.940  -0.892  10.865  1.00  0.00     0.176 C 
HETATM    5  C17 UNL     1      -5.206  -1.425  11.500  1.00  0.00     0.179 C 
HETATM    6  C18 UNL     1      -5.496  -2.773  10.875  1.00  0.00     0.177 C 
ENDROOT
BRANCH   2   7
HETATM    7  O1  UNL     1      -3.346  -2.839   9.208  1.00  0.00    -0.285 OA
BRANCH   7   8
HETATM    8  C5  UNL     1      -2.458  -3.341   8.268  1.00  0.00     0.300 C 
HETATM    9  O2  UNL     1      -2.770  -4.435   7.736  1.00  0.00    -0.262 OA
BRANCH   8  10
HETATM   10  C6  UNL     1      -1.249  -2.580   7.972  1.00  0.00     0.361 C 
BRANCH  10  11
HETATM   11  N3  UNL     1      -1.525  -1.159   8.012  1.00  0.00    -0.059 N 
ATOM     12  H33 UNL     1      -2.312  -0.909   7.414  1.00  0.00     0.275 HD
ATOM     13  H32 UNL     1      -1.918  -0.874   8.909  1.00  0.00     0.275 HD
ATOM     14  H31 UNL     1      -0.687  -0.628   7.778  1.00  0.00     0.275 HD
ENDBRANCH  10  11
BRANCH  10  15
HETATM   15  C7  UNL     1      -0.549  -2.987   6.743  1.00  0.00     0.256 C 
HETATM   16  O3  UNL     1      -1.204  -3.012   5.655  1.00  0.00    -0.284 OA
BRANCH  15  17
HETATM   17  C8  UNL     1       0.843  -3.368   6.668  1.00  0.00     0.290 C 
HETATM   18  O4  UNL     1       1.702  -2.472   6.788  1.00  0.00    -0.264 OA
HETATM   19  N4  UNL     1       1.261  -4.698   6.467  1.00  0.00    -0.350 N 
ATOM     20  H4  UNL     1       0.548  -5.422   6.372  1.00  0.00     0.163 HD
BRANCH  19  21
HETATM   21  C9  UNL     1       2.660  -5.091   6.389  1.00  0.00     0.084 C 
HETATM   22  C10 UNL     1       3.168  -5.637   7.697  1.00  0.00     0.025 C 
HETATM   23  C11 UNL     1       3.375  -7.121   7.690  1.00  0.00     0.002 C 
HETATM   24  C12 UNL     1       2.301  -7.832   6.905  1.00  0.00     0.000 C 
HETATM   25  C13 UNL     1       2.288  -7.404   5.474  1.00  0.00     0.002 C 
HETATM   26  C14 UNL     1       2.846  -6.032   5.240  1.00  0.00     0.025 C 
ENDBRANCH  19  21
ENDBRANCH  15  17
ENDBRANCH  10  15
ENDBRANCH   8  10
ENDBRANCH   7   8
ENDBRANCH   2   7
BRANCH   1  27
HETATM   27  N2  UNL     1      -5.960  -3.765   8.741  1.00  0.00    -0.368 N 
ATOM     28  H2  UNL     1      -5.823  -4.628   9.267  1.00  0.00     0.161 HD
BRANCH  27  29
HETATM   29  C2  UNL     1      -6.420  -3.842   7.407  1.00  0.00     0.067 C 
HETATM   30  C1  UNL     1      -7.706  -3.315   6.941  1.00  0.00     0.088 C 
HETATM   31  N1  UNL     1      -5.648  -4.420   6.527  1.00  0.00    -0.389 N 
ATOM     32  H12 UNL     1      -5.980  -4.476   5.564  1.00  0.00     0.157 HD
ATOM     33  H11 UNL     1      -4.753  -4.787   6.851  1.00  0.00     0.157 HD
ENDBRANCH  27  29
ENDBRANCH   1  27
BRANCH   6  34
HETATM   34  O7  UNL     1      -6.591  -3.394  11.435  1.00  0.00    -0.391 OA
ATOM     35  H7  UNL     1      -6.343  -4.090  12.032  1.00  0.00     0.210 HD
ENDBRANCH   6  34
BRANCH   4  36
HETATM   36  C16 UNL     1      -3.488   0.392  11.535  1.00  0.00     0.190 C 
BRANCH  36  37
HETATM   37  N5  UNL     1      -2.171   0.735  11.097  1.00  0.00    -0.250 N 
ATOM     38  H5  UNL     1      -1.386   0.327  11.603  1.00  0.00     0.197 HD
BRANCH  37  39
HETATM   39  N6  UNL     1      -1.913   1.485  10.158  1.00  0.00    -0.248 NA
BRANCH  39  40
HETATM   40  N7  UNL     1      -1.877   2.167   9.135  1.00  0.00    -0.261 N 
ATOM     41  H72 UNL     1      -2.444   1.473   8.648  1.00  0.00     0.193 HD
ATOM     42  H71 UNL     1      -1.735   2.861   8.400  1.00  0.00     0.193 HD
ENDBRANCH  39  40
ENDBRANCH  37  39
ENDBRANCH  36  37
ENDBRANCH   4  36
BRANCH   5  43
HETATM   43  O6  UNL     1      -6.282  -0.588  11.137  1.00  0.00    -0.390 OA
ATOM     44  H6  UNL     1      -6.957  -0.652  11.803  1.00  0.00     0.210 HD
ENDBRANCH   5  43
TORSDOF 15
ENDMDL
MODEL 5
REMARK VINA RESULT: -7.650636756      2.849      3.997
REMARK  15 active torsions:
REMARK  status: ('A' for Active; 'I' for Inactive)
REMARK    1  A    between atoms: C2_2  and  N2_6 
REMARK    2  A    between atoms: N2_6  and  C3_8 
REMARK    3  A    between atoms: C4_9  and  O1_10 
REMARK    4  A    between atoms: O1_10  and  C5_11 
REMARK    5  A    between atoms: C5_11  and  C6_13 
REMARK    6  A    between atoms: C6_13  and  N3_14 
REMARK    7  A    between atoms: C6_13  and  C7_18 
REMARK    8  A    between atoms: C7_18  and  C8_20 
REMARK       I    between atoms: C8_20  and  N4_22 
REMARK    9  A    between atoms: N4_22  and  C9_24 
REMARK   10  A    between atoms: C15_31  and  C16_32 
REMARK   11  A    between atoms: C16_32  and  N5_33 
REMARK   12  A    between atoms: N5_33  and  N6_35 
REMARK   13  A    between atoms: N6_35  and  N7_36 
REMARK   14  A    between atoms: C17_39  and  O6_40 
REMARK   15  A    between atoms: C18_42  and  O7_43 
ROOT
HETATM    1  C3  UNL     1      -5.230  -1.844   8.958  1.00  0.00     0.169 C 
HETATM    2  C4  UNL     1      -3.954  -1.046   8.770  1.00  0.00     0.295 C 
HETATM    3  O5  UNL     1      -3.945  -0.025   9.704  1.00  0.00    -0.349 OA
HETATM    4  C15 UNL     1      -3.763  -0.567  10.979  1.00  0.00     0.176 C 
HETATM    5  C17 UNL     1      -5.013  -1.344  11.328  1.00  0.00     0.179 C 
HETATM    6  C18 UNL     1      -5.126  -2.490  10.344  1.00  0.00     0.177 C 
ENDROOT
BRANCH   2   7
HETATM    7  O1  UNL     1      -2.868  -1.940   8.929  1.00  0.00    -0.285 OA
BRANCH   7   8
HETATM    8  C5  UNL     1      -1.679  -1.825   8.223  1.00  0.00     0.300 C 
HETATM    9  O2  UNL     1      -1.123  -0.699   8.251  1.00  0.00    -0.262 OA
BRANCH   8  10
HETATM   10  C6  UNL     1      -1.170  -2.994   7.515  1.00  0.00     0.361 C 
BRANCH  10  11
HETATM   11  N3  UNL     1       0.241  -3.172   7.782  1.00  0.00    -0.059 N 
ATOM     12  H33 UNL     1       0.405  -3.577   8.704  1.00  0.00     0.275 HD
ATOM     13  H32 UNL     1       0.643  -3.919   7.215  1.00  0.00     0.275 HD
ATOM     14  H31 UNL     1       0.740  -2.292   7.659  1.00  0.00     0.275 HD
ENDBRANCH  10  11
BRANCH  10  15
HETATM   15  C7  UNL     1      -1.484  -3.028   6.077  1.00  0.00     0.256 C 
HETATM   16  O3  UNL     1      -0.597  -2.637   5.256  1.00  0.00    -0.284 OA
BRANCH  15  17
HETATM   17  C8  UNL     1      -2.735  -3.477   5.511  1.00  0.00     0.290 C 
HETATM   18  O4  UNL     1      -3.602  -2.618   5.252  1.00  0.00    -0.264 OA
HETATM   19  N4  UNL     1      -3.010  -4.833   5.243  1.00  0.00    -0.350 N 
ATOM     20  H4  UNL     1      -2.293  -5.525   5.459  1.00  0.00     0.163 HD
BRANCH  19  21
HETATM   21  C9  UNL     1      -4.267  -5.294   4.674  1.00  0.00     0.084 C 
HETATM   22  C10 UNL     1      -4.063  -6.049   3.388  1.00  0.00     0.025 C 
HETATM   23  C11 UNL     1      -4.274  -7.527   3.518  1.00  0.00     0.002 C 
HETATM   24  C12 UNL     1      -3.751  -8.054   4.831  1.00  0.00     0.000 C 
HETATM   25  C13 UNL     1      -4.449  -7.427   5.994  1.00  0.00     0.002 C 
HETATM   26  C14 UNL     1      -5.022  -6.071   5.706  1.00  0.00     0.025 C 
ENDBRANCH  19  21
ENDBRANCH  15  17
ENDBRANCH  10  15
ENDBRANCH   8  10
ENDBRANCH   7   8
ENDBRANCH   2   7
BRANCH   1  27
HETATM   27  N2  UNL     1      -5.340  -2.897   7.990  1.00  0.00    -0.368 N 
ATOM     28  H2  UNL     1      -4.646  -3.644   7.991  1.00  0.00     0.161 HD
BRANCH  27  29
HETATM   29  C2  UNL     1      -6.382  -2.930   7.036  1.00  0.00     0.067 C 
HETATM   30  C1  UNL     1      -7.582  -3.764   7.147  1.00  0.00     0.088 C 
HETATM   31  N1  UNL     1      -6.272  -2.165   5.984  1.00  0.00    -0.389 N 
ATOM     32  H12 UNL     1      -7.024  -2.188   5.295  1.00  0.00     0.157 HD
ATOM     33  H11 UNL     1      -5.436  -1.584   5.907  1.00  0.00     0.157 HD
ENDBRANCH  27  29
ENDBRANCH   1  27
BRANCH   6  34
HETATM   34  O7  UNL     1      -6.193  -3.320  10.615  1.00  0.00    -0.391 OA
ATOM     35  H7  UNL     1      -6.702  -3.019  11.358  1.00  0.00     0.210 HD
ENDBRANCH   6  34
BRANCH   4  36
HETATM   36  C16 UNL     1      -3.486   0.517  12.004  1.00  0.00     0.190 C 
BRANCH  36  37
HETATM   37  N5  UNL     1      -2.130   0.957  11.897  1.00  0.00    -0.250 N 
ATOM     38  H5  UNL     1      -1.525   0.816  12.706  1.00  0.00     0.197 HD
BRANCH  37  39
HETATM   39  N6  UNL     1      -1.637   1.492  10.906  1.00  0.00    -0.248 NA
BRANCH  39  40
HETATM   40  N7  UNL     1      -1.270   1.856   9.790  1.00  0.00    -0.261 N 
ATOM     41  H72 UNL     1      -2.205   1.679   9.422  1.00  0.00     0.193 HD
ATOM     42  H71 UNL     1      -0.786   2.187   8.955  1.00  0.00     0.193 HD
ENDBRANCH  39  40
ENDBRANCH  37  39
ENDBRANCH  36  37
ENDBRANCH   4  36
BRANCH   5  43
HETATM   43  O6  UNL     1      -6.137  -0.522  11.099  1.00  0.00    -0.390 OA
ATOM     44  H6  UNL     1      -6.664  -0.910  10.410  1.00  0.00     0.210 HD
ENDBRANCH   5  43
TORSDOF 15
ENDMDL
