MODEL 1
REMARK VINA RESULT: -8.435358280      0.000      0.000
REMARK  12 active torsions:
REMARK  status: ('A' for Active; 'I' for Inactive)
REMARK    1  A    between atoms: C1_2  and  C2_4 
REMARK    2  A    between atoms: C4_6  and  O2_7 
REMARK    3  A    between atoms: C5_9  and  O3_10 
REMARK    4  A    between atoms: C6_12  and  O4_13 
REMARK    5  A    between atoms: O4_13  and  C7_14 
REMARK    6  A    between atoms: C8_16  and  C9_17 
REMARK    7  A    between atoms: C9_17  and  S1_18 
REMARK    8  A    between atoms: S1_18  and  C10_19 
REMARK    9  A    between atoms: C10_19  and  C11_20 
REMARK   10  A    between atoms: C17_26  and  O6_27 
REMARK   11  A    between atoms: C18_29  and  O7_30 
REMARK   12  A    between atoms: C19_32  and  O8_33 
ROOT
HETATM    1  C7  UNL     1      -7.941  -5.131  13.701  1.00  0.00     0.294 C 
HETATM    2  O5  UNL     1      -7.376  -4.780  12.476  1.00  0.00    -0.350 OA
HETATM    3  C8  UNL     1      -6.918  -3.490  12.421  1.00  0.00     0.165 C 
HETATM    4  C17 UNL     1      -6.613  -2.864  13.741  1.00  0.00     0.179 C 
HETATM    5  C18 UNL     1      -6.221  -3.816  14.815  1.00  0.00     0.183 C 
HETATM    6  C19 UNL     1      -6.785  -5.191  14.676  1.00  0.00     0.204 C 
ENDROOT
BRANCH   1   7
HETATM    7  O4  UNL     1      -8.882  -4.195  14.018  1.00  0.00    -0.326 OA
BRANCH   7   8
HETATM    8  C6  UNL     1     -10.169  -4.708  14.172  1.00  0.00     0.295 C 
HETATM    9  C5  UNL     1     -10.329  -5.025  15.645  1.00  0.00     0.202 C 
HETATM   10  C4  UNL     1     -11.683  -5.611  15.847  1.00  0.00     0.154 C 
HETATM   11  C3  UNL     1     -12.197  -6.484  14.771  1.00  0.00     0.076 C 
HETATM   12  C2  UNL     1     -11.376  -6.590  13.537  1.00  0.00     0.216 C 
HETATM   13  O9  UNL     1     -10.227  -5.895  13.490  1.00  0.00    -0.344 OA
BRANCH   9  14
HETATM   14  O3  UNL     1     -10.248  -3.795  16.330  1.00  0.00    -0.388 OA
ATOM     15  H3  UNL     1     -10.522  -3.094  15.750  1.00  0.00     0.210 HD
ENDBRANCH   9  14
BRANCH  10  16
HETATM   16  O2  UNL     1     -11.645  -6.290  17.089  1.00  0.00    -0.393 OA
ATOM     17  H2  UNL     1     -10.760  -6.338  17.432  1.00  0.00     0.210 HD
ENDBRANCH  10  16
BRANCH  12  18
HETATM   18  C1  UNL     1     -11.106  -8.008  13.196  1.00  0.00     0.260 C 
HETATM   19  N1  UNL     1     -10.173  -8.285  12.167  1.00  0.00    -0.060 NA
HETATM   20  O1  UNL     1     -11.654  -8.983  13.767  1.00  0.00    -0.274 OA
ENDBRANCH  12  18
ENDBRANCH   7   8
ENDBRANCH   1   7
BRANCH   6  21
HETATM   21  O8  UNL     1      -5.807  -6.004  14.097  1.00  0.00    -0.388 OA
ATOM     22  H8  UNL     1      -5.370  -6.458  14.807  1.00  0.00     0.210 HD
ENDBRANCH   6  21
BRANCH   3  23
HETATM   23  C9  UNL     1      -5.660  -3.493  11.557  1.00  0.00     0.108 C 
BRANCH  23  24
HETATM   24  S1  UNL     1      -5.884  -2.552  10.047  1.00  0.00    -0.166 SA
BRANCH  24  25
HETATM   25  C10 UNL     1      -5.240  -0.876  10.267  1.00  0.00     0.078 C 
BRANCH  25  26
HETATM   26  C11 UNL     1      -3.721  -0.854  10.180  1.00  0.00    -0.005 C 
HETATM   27  C12 UNL     1      -3.076  -0.048  11.257  1.00  0.00     0.005 C 
HETATM   28  C13 UNL     1      -2.780   1.371  10.887  1.00  0.00     0.000 C 
HETATM   29  C14 UNL     1      -2.071   1.543   9.581  1.00  0.00     0.000 C 
HETATM   30  C15 UNL     1      -2.011   0.252   8.788  1.00  0.00     0.000 C 
HETATM   31  C16 UNL     1      -3.338  -0.458   8.791  1.00  0.00     0.005 C 
ENDBRANCH  25  26
ENDBRANCH  24  25
ENDBRANCH  23  24
ENDBRANCH   3  23
BRANCH   5  32
HETATM   32  O7  UNL     1      -4.824  -3.936  14.953  1.00  0.00    -0.390 OA
ATOM     33  H7  UNL     1      -4.522  -3.714  15.825  1.00  0.00     0.210 HD
ENDBRANCH   5  32
BRANCH   4  34
HETATM   34  O6  UNL     1      -5.513  -1.993  13.542  1.00  0.00    -0.390 OA
ATOM     35  H6  UNL     1      -5.683  -1.209  14.051  1.00  0.00     0.210 HD
ENDBRANCH   4  34
TORSDOF 12
ENDMDL
MODEL 2
REMARK VINA RESULT: -8.096497529      2.110      2.531
REMARK  12 active torsions:
REMARK  status: ('A' for Active; 'I' for Inactive)
REMARK    1  A    between atoms: C1_2  and  C2_4 
REMARK    2  A    between atoms: C4_6  and  O2_7 
REMARK    3  A    between atoms: C5_9  and  O3_10 
REMARK    4  A    between atoms: C6_12  and  O4_13 
REMARK    5  A    between atoms: O4_13  and  C7_14 
REMARK    6  A    between atoms: C8_16  and  C9_17 
REMARK    7  A    between atoms: C9_17  and  S1_18 
REMARK    8  A    between atoms: S1_18  and  C10_19 
REMARK    9  A    between atoms: C10_19  and  C11_20 
REMARK   10  A    between atoms: C17_26  and  O6_27 
REMARK   11  A    between atoms: C18_29  and  O7_30 
REMARK   12  A    between atoms: C19_32  and  O8_33 
ROOT
HETATM    1  C7  UNL     1      -7.970  -5.173  13.829  1.00  0.00     0.294 C 
HETATM    2  O5  UNL     1      -7.309  -5.006  12.612  1.00  0.00    -0.350 OA
HETATM    3  C8  UNL     1      -6.847  -3.734  12.398  1.00  0.00     0.165 C 
HETATM    4  C17 UNL     1      -6.648  -2.911  13.626  1.00  0.00     0.179 C 
HETATM    5  C18 UNL     1      -6.344  -3.683  14.861  1.00  0.00     0.183 C 
HETATM    6  C19 UNL     1      -6.896  -5.070  14.889  1.00  0.00     0.204 C 
ENDROOT
BRANCH   1   7
HETATM    7  O4  UNL     1      -8.933  -4.210  13.924  1.00  0.00    -0.326 OA
BRANCH   7   8
HETATM    8  C6  UNL     1     -10.221  -4.707  14.118  1.00  0.00     0.295 C 
HETATM    9  C5  UNL     1     -10.344  -5.008  15.597  1.00  0.00     0.202 C 
HETATM   10  C4  UNL     1     -11.697  -5.577  15.843  1.00  0.00     0.154 C 
HETATM   11  C3  UNL     1     -12.250  -6.455  14.791  1.00  0.00     0.076 C 
HETATM   12  C2  UNL     1     -11.464  -6.582  13.535  1.00  0.00     0.216 C 
HETATM   13  O9  UNL     1     -10.310  -5.901  13.450  1.00  0.00    -0.344 OA
BRANCH   9  14
HETATM   14  O3  UNL     1     -10.230  -3.772  16.268  1.00  0.00    -0.388 OA
ATOM     15  H3  UNL     1     -10.873  -3.166  15.918  1.00  0.00     0.210 HD
ENDBRANCH   9  14
BRANCH  10  16
HETATM   16  O2  UNL     1     -11.633  -6.244  17.091  1.00  0.00    -0.393 OA
ATOM     17  H2  UNL     1     -11.956  -5.693  17.795  1.00  0.00     0.210 HD
ENDBRANCH  10  16
BRANCH  12  18
HETATM   18  C1  UNL     1     -11.219  -8.006  13.203  1.00  0.00     0.260 C 
HETATM   19  N1  UNL     1     -10.420  -8.304  12.071  1.00  0.00    -0.060 NA
HETATM   20  O1  UNL     1     -11.676  -8.971  13.864  1.00  0.00    -0.274 OA
ENDBRANCH  12  18
ENDBRANCH   7   8
ENDBRANCH   1   7
BRANCH   6  21
HETATM   21  O8  UNL     1      -5.875  -5.950  14.521  1.00  0.00    -0.388 OA
ATOM     22  H8  UNL     1      -5.053  -5.517  14.716  1.00  0.00     0.210 HD
ENDBRANCH   6  21
BRANCH   3  23
HETATM   23  C9  UNL     1      -5.523  -3.854  11.647  1.00  0.00     0.108 C 
BRANCH  23  24
HETATM   24  S1  UNL     1      -5.396  -5.409  10.762  1.00  0.00    -0.166 SA
BRANCH  24  25
HETATM   25  C10 UNL     1      -5.403  -5.102   8.979  1.00  0.00     0.078 C 
BRANCH  25  26
HETATM   26  C11 UNL     1      -5.343  -3.612   8.676  1.00  0.00    -0.005 C 
HETATM   27  C12 UNL     1      -6.637  -3.052   8.187  1.00  0.00     0.005 C 
HETATM   28  C13 UNL     1      -6.776  -3.006   6.698  1.00  0.00     0.000 C 
HETATM   29  C14 UNL     1      -5.614  -2.397   5.978  1.00  0.00     0.000 C 
HETATM   30  C15 UNL     1      -4.429  -2.170   6.895  1.00  0.00     0.000 C 
HETATM   31  C16 UNL     1      -4.176  -3.366   7.775  1.00  0.00     0.005 C 
ENDBRANCH  25  26
ENDBRANCH  24  25
ENDBRANCH  23  24
ENDBRANCH   3  23
BRANCH   5  32
HETATM   32  O7  UNL     1      -4.962  -3.765  15.126  1.00  0.00    -0.390 OA
ATOM     33  H7  UNL     1      -4.632  -4.654  15.080  1.00  0.00     0.210 HD
ENDBRANCH   5  32
BRANCH   4  34
HETATM   34  O6  UNL     1      -5.535  -2.067  13.385  1.00  0.00    -0.390 OA
ATOM     35  H6  UNL     1      -5.754  -1.527  12.635  1.00  0.00     0.210 HD
ENDBRANCH   4  34
TORSDOF 12
ENDMDL
MODEL 3
REMARK VINA RESULT: -8.011035840      0.671      1.282
REMARK  12 active torsions:
REMARK  status: ('A' for Active; 'I' for Inactive)
REMARK    1  A    between atoms: C1_2  and  C2_4 
REMARK    2  A    between atoms: C4_6  and  O2_7 
REMARK    3  A    between atoms: C5_9  and  O3_10 
REMARK    4  A    between atoms: C6_12  and  O4_13 
REMARK    5  A    between atoms: O4_13  and  C7_14 
REMARK    6  A    between atoms: C8_16  and  C9_17 
REMARK    7  A    between atoms: C9_17  and  S1_18 
REMARK    8  A    between atoms: S1_18  and  C10_19 
REMARK    9  A    between atoms: C10_19  and  C11_20 
REMARK   10  A    between atoms: C17_26  and  O6_27 
REMARK   11  A    between atoms: C18_29  and  O7_30 
REMARK   12  A    between atoms: C19_32  and  O8_33 
ROOT
HETATM    1  C7  UNL     1      -7.953  -5.180  13.746  1.00  0.00     0.294 C 
HETATM    2  O5  UNL     1      -7.281  -4.961  12.544  1.00  0.00    -0.350 OA
HETATM    3  C8  UNL     1      -6.816  -3.681  12.391  1.00  0.00     0.165 C 
HETATM    4  C17 UNL     1      -6.626  -2.914  13.657  1.00  0.00     0.179 C 
HETATM    5  C18 UNL     1      -6.334  -3.742  14.858  1.00  0.00     0.183 C 
HETATM    6  C19 UNL     1      -6.888  -5.127  14.820  1.00  0.00     0.204 C 
ENDROOT
BRANCH   1   7
HETATM    7  O4  UNL     1      -8.915  -4.221  13.876  1.00  0.00    -0.326 OA
BRANCH   7   8
HETATM    8  C6  UNL     1     -10.201  -4.724  14.072  1.00  0.00     0.295 C 
HETATM    9  C5  UNL     1     -10.326  -5.009  15.554  1.00  0.00     0.202 C 
HETATM   10  C4  UNL     1     -11.677  -5.584  15.802  1.00  0.00     0.154 C 
HETATM   11  C3  UNL     1     -12.222  -6.477  14.758  1.00  0.00     0.076 C 
HETATM   12  C2  UNL     1     -11.431  -6.613  13.507  1.00  0.00     0.216 C 
HETATM   13  O9  UNL     1     -10.281  -5.926  13.417  1.00  0.00    -0.344 OA
BRANCH   9  14
HETATM   14  O3  UNL     1     -10.222  -3.765  16.211  1.00  0.00    -0.388 OA
ATOM     15  H3  UNL     1      -9.813  -3.136  15.628  1.00  0.00     0.210 HD
ENDBRANCH   9  14
BRANCH  10  16
HETATM   16  O2  UNL     1     -11.613  -6.236  17.058  1.00  0.00    -0.393 OA
ATOM     17  H2  UNL     1     -11.738  -5.624  17.773  1.00  0.00     0.210 HD
ENDBRANCH  10  16
BRANCH  12  18
HETATM   18  C1  UNL     1     -11.176  -8.040  13.190  1.00  0.00     0.260 C 
HETATM   19  N1  UNL     1     -10.210  -8.346  12.200  1.00  0.00    -0.060 NA
HETATM   20  O1  UNL     1     -11.764  -8.998  13.749  1.00  0.00    -0.274 OA
ENDBRANCH  12  18
ENDBRANCH   7   8
ENDBRANCH   1   7
BRANCH   6  21
HETATM   21  O8  UNL     1      -5.866  -5.992  14.421  1.00  0.00    -0.388 OA
ATOM     22  H8  UNL     1      -5.613  -6.493  15.187  1.00  0.00     0.210 HD
ENDBRANCH   6  21
BRANCH   3  23
HETATM   23  C9  UNL     1      -5.486  -3.770  11.646  1.00  0.00     0.108 C 
BRANCH  23  24
HETATM   24  S1  UNL     1      -5.462  -2.717  10.194  1.00  0.00    -0.166 SA
BRANCH  24  25
HETATM   25  C10 UNL     1      -4.494  -1.227  10.533  1.00  0.00     0.078 C 
BRANCH  25  26
HETATM   26  C11 UNL     1      -3.934  -0.630   9.251  1.00  0.00    -0.005 C 
HETATM   27  C12 UNL     1      -3.800  -1.620   8.143  1.00  0.00     0.005 C 
HETATM   28  C13 UNL     1      -2.451  -2.259   8.034  1.00  0.00     0.000 C 
HETATM   29  C14 UNL     1      -1.301  -1.302   8.050  1.00  0.00     0.000 C 
HETATM   30  C15 UNL     1      -1.733   0.105   8.415  1.00  0.00     0.000 C 
HETATM   31  C16 UNL     1      -2.677   0.105   9.587  1.00  0.00     0.005 C 
ENDBRANCH  25  26
ENDBRANCH  24  25
ENDBRANCH  23  24
ENDBRANCH   3  23
BRANCH   5  32
HETATM   32  O7  UNL     1      -4.955  -3.837  15.131  1.00  0.00    -0.390 OA
ATOM     33  H7  UNL     1      -4.741  -3.604  16.026  1.00  0.00     0.210 HD
ENDBRANCH   5  32
BRANCH   4  34
HETATM   34  O6  UNL     1      -5.511  -2.063  13.462  1.00  0.00    -0.390 OA
ATOM     35  H6  UNL     1      -5.049  -2.014  14.291  1.00  0.00     0.210 HD
ENDBRANCH   4  34
TORSDOF 12
ENDMDL
MODEL 4
REMARK VINA RESULT: -7.764057057      4.553      9.087
REMARK  12 active torsions:
REMARK  status: ('A' for Active; 'I' for Inactive)
REMARK    1  A    between atoms: C1_2  and  C2_4 
REMARK    2  A    between atoms: C4_6  and  O2_7 
REMARK    3  A    between atoms: C5_9  and  O3_10 
REMARK    4  A    between atoms: C6_12  and  O4_13 
REMARK    5  A    between atoms: O4_13  and  C7_14 
REMARK    6  A    between atoms: C8_16  and  C9_17 
REMARK    7  A    between atoms: C9_17  and  S1_18 
REMARK    8  A    between atoms: S1_18  and  C10_19 
REMARK    9  A    between atoms: C10_19  and  C11_20 
REMARK   10  A    between atoms: C17_26  and  O6_27 
REMARK   11  A    between atoms: C18_29  and  O7_30 
REMARK   12  A    between atoms: C19_32  and  O8_33 
ROOT
HETATM    1  C7  UNL     1      -5.291  -4.208   8.914  1.00  0.00     0.294 C 
HETATM    2  O5  UNL     1      -5.763  -4.582  10.172  1.00  0.00    -0.350 OA
HETATM    3  C8  UNL     1      -5.250  -3.840  11.204  1.00  0.00     0.165 C 
HETATM    4  C17 UNL     1      -4.728  -2.494  10.826  1.00  0.00     0.179 C 
HETATM    5  C18 UNL     1      -5.369  -1.882   9.631  1.00  0.00     0.183 C 
HETATM    6  C19 UNL     1      -5.911  -2.855   8.637  1.00  0.00     0.204 C 
ENDROOT
BRANCH   1   7
HETATM    7  O4  UNL     1      -3.928  -4.191   8.960  1.00  0.00    -0.326 OA
BRANCH   7   8
HETATM    8  C6  UNL     1      -3.311  -4.811   7.874  1.00  0.00     0.295 C 
HETATM    9  C5  UNL     1      -2.522  -3.734   7.159  1.00  0.00     0.202 C 
HETATM   10  C4  UNL     1      -1.875  -4.350   5.967  1.00  0.00     0.154 C 
HETATM   11  C3  UNL     1      -2.644  -5.395   5.259  1.00  0.00     0.076 C 
HETATM   12  C2  UNL     1      -3.927  -5.824   5.875  1.00  0.00     0.216 C 
HETATM   13  O9  UNL     1      -4.299  -5.229   7.020  1.00  0.00    -0.344 OA
BRANCH   9  14
HETATM   14  O3  UNL     1      -1.525  -3.304   8.059  1.00  0.00    -0.388 OA
ATOM     15  H3  UNL     1      -1.782  -3.535   8.944  1.00  0.00     0.210 HD
ENDBRANCH   9  14
BRANCH  10  16
HETATM   16  O2  UNL     1      -1.533  -3.284   5.100  1.00  0.00    -0.393 OA
ATOM     17  H2  UNL     1      -0.661  -3.396   4.740  1.00  0.00     0.210 HD
ENDBRANCH  10  16
BRANCH  12  18
HETATM   18  C1  UNL     1      -5.039  -5.746   4.897  1.00  0.00     0.260 C 
HETATM   19  N1  UNL     1      -6.367  -5.839   5.383  1.00  0.00    -0.060 NA
HETATM   20  O1  UNL     1      -4.878  -5.600   3.661  1.00  0.00    -0.274 OA
ENDBRANCH  12  18
ENDBRANCH   7   8
ENDBRANCH   1   7
BRANCH   6  21
HETATM   21  O8  UNL     1      -7.284  -2.984   8.860  1.00  0.00    -0.388 OA
ATOM     22  H8  UNL     1      -7.722  -2.477   8.187  1.00  0.00     0.210 HD
ENDBRANCH   6  21
BRANCH   3  23
HETATM   23  C9  UNL     1      -6.358  -3.682  12.242  1.00  0.00     0.108 C 
BRANCH  23  24
HETATM   24  S1  UNL     1      -6.317  -4.990  13.468  1.00  0.00    -0.166 SA
BRANCH  24  25
HETATM   25  C10 UNL     1      -7.103  -4.425  14.995  1.00  0.00     0.078 C 
BRANCH  25  26
HETATM   26  C11 UNL     1      -8.545  -4.004  14.751  1.00  0.00    -0.005 C 
HETATM   27  C12 UNL     1      -9.212  -3.439  15.959  1.00  0.00     0.005 C 
HETATM   28  C13 UNL     1      -9.993  -4.429  16.765  1.00  0.00     0.000 C 
HETATM   29  C14 UNL     1     -10.935  -5.278  15.971  1.00  0.00     0.000 C 
HETATM   30  C15 UNL     1     -10.727  -5.121  14.477  1.00  0.00     0.000 C 
HETATM   31  C16 UNL     1      -9.265  -5.151  14.119  1.00  0.00     0.005 C 
ENDBRANCH  25  26
ENDBRANCH  24  25
ENDBRANCH  23  24
ENDBRANCH   3  23
BRANCH   5  32
HETATM   32  O7  UNL     1      -6.406  -0.989   9.967  1.00  0.00    -0.390 OA
ATOM     33  H7  UNL     1      -6.124  -0.082   9.960  1.00  0.00     0.210 HD
ENDBRANCH   5  32
BRANCH   4  34
HETATM   34  O6  UNL     1      -4.982  -1.629  11.918  1.00  0.00    -0.390 OA
ATOM     35  H6  UNL     1      -4.989  -0.742  11.576  1.00  0.00     0.210 HD
ENDBRANCH   4  34
TORSDOF 12
ENDMDL
MODEL 5
REMARK VINA RESULT: -7.665393364      4.194      7.138
REMARK  12 active torsions:
REMARK  status: ('A' for Active; 'I' for Inactive)
REMARK    1  A    between atoms: C1_2  and  C2_4 
REMARK    2  A    between atoms: C4_6  and  O2_7 
REMARK    3  A    between atoms: C5_9  and  O3_10 
REMARK    4  A    between atoms: C6_12  and  O4_13 
REMARK    5  A    between atoms: O4_13  and  C7_14 
REMARK    6  A    between atoms: C8_16  and  C9_17 
REMARK    7  A    between atoms: C9_17  and  S1_18 
REMARK    8  A    between atoms: S1_18  and  C10_19 
REMARK    9  A    between atoms: C10_19  and  C11_20 
REMARK   10  A    between atoms: C17_26  and  O6_27 
REMARK   11  A    between atoms: C18_29  and  O7_30 
REMARK   12  A    between atoms: C19_32  and  O8_33 
ROOT
HETATM    1  C7  UNL     1      -4.952  -3.647  10.102  1.00  0.00     0.294 C 
HETATM    2  O5  UNL     1      -4.328  -2.525  10.645  1.00  0.00    -0.350 OA
HETATM    3  C8  UNL     1      -5.156  -1.444  10.794  1.00  0.00     0.165 C 
HETATM    4  C17 UNL     1      -6.613  -1.759  10.864  1.00  0.00     0.179 C 
HETATM    5  C18 UNL     1      -6.941  -3.108  11.398  1.00  0.00     0.183 C 
HETATM    6  C19 UNL     1      -5.892  -4.147  11.178  1.00  0.00     0.204 C 
ENDROOT
BRANCH   1   7
HETATM    7  O4  UNL     1      -5.582  -3.268   8.952  1.00  0.00    -0.326 OA
BRANCH   7   8
HETATM    8  C6  UNL     1      -4.910  -3.634   7.786  1.00  0.00     0.295 C 
HETATM    9  C5  UNL     1      -5.006  -2.448   6.849  1.00  0.00     0.202 C 
HETATM   10  C4  UNL     1      -4.330  -2.811   5.573  1.00  0.00     0.154 C 
HETATM   11  C3  UNL     1      -4.469  -4.212   5.122  1.00  0.00     0.076 C 
HETATM   12  C2  UNL     1      -5.157  -5.154   6.045  1.00  0.00     0.216 C 
HETATM   13  O9  UNL     1      -5.608  -4.666   7.212  1.00  0.00    -0.344 OA
BRANCH   9  14
HETATM   14  O3  UNL     1      -4.301  -1.393   7.465  1.00  0.00    -0.388 OA
ATOM     15  H3  UNL     1      -4.729  -1.165   8.281  1.00  0.00     0.210 HD
ENDBRANCH   9  14
BRANCH  10  16
HETATM   16  O2  UNL     1      -4.805  -1.904   4.594  1.00  0.00    -0.393 OA
ATOM     17  H2  UNL     1      -4.836  -1.017   4.931  1.00  0.00     0.210 HD
ENDBRANCH  10  16
BRANCH  12  18
HETATM   18  C1  UNL     1      -6.257  -5.868   5.354  1.00  0.00     0.260 C 
HETATM   19  N1  UNL     1      -7.535  -5.885   5.966  1.00  0.00    -0.060 NA
HETATM   20  O1  UNL     1      -6.129  -6.461   4.254  1.00  0.00    -0.274 OA
ENDBRANCH  12  18
ENDBRANCH   7   8
ENDBRANCH   1   7
BRANCH   6  21
HETATM   21  O8  UNL     1      -5.142  -4.261  12.351  1.00  0.00    -0.388 OA
ATOM     22  H8  UNL     1      -4.669  -3.444  12.458  1.00  0.00     0.210 HD
ENDBRANCH   6  21
BRANCH   3  23
HETATM   23  C9  UNL     1      -4.731  -0.721  12.070  1.00  0.00     0.108 C 
BRANCH  23  24
HETATM   24  S1  UNL     1      -3.370   0.410  11.775  1.00  0.00    -0.166 SA
BRANCH  24  25
HETATM   25  C10 UNL     1      -2.708   0.152  10.112  1.00  0.00     0.078 C 
BRANCH  25  26
HETATM   26  C11 UNL     1      -2.422   1.477   9.421  1.00  0.00    -0.005 C 
HETATM   27  C12 UNL     1      -1.631   1.333   8.164  1.00  0.00     0.005 C 
HETATM   28  C13 UNL     1      -0.152   1.490   8.334  1.00  0.00     0.000 C 
HETATM   29  C14 UNL     1       0.265   2.703   9.103  1.00  0.00     0.000 C 
HETATM   30  C15 UNL     1      -0.912   3.398   9.758  1.00  0.00     0.000 C 
HETATM   31  C16 UNL     1      -1.832   2.411  10.427  1.00  0.00     0.005 C 
ENDBRANCH  25  26
ENDBRANCH  24  25
ENDBRANCH  23  24
ENDBRANCH   3  23
BRANCH   5  32
HETATM   32  O7  UNL     1      -7.246  -3.089  12.774  1.00  0.00    -0.390 OA
ATOM     33  H7  UNL     1      -7.155  -3.943  13.181  1.00  0.00     0.210 HD
ENDBRANCH   5  32
BRANCH   4  34
HETATM   34  O6  UNL     1      -7.200  -0.815  11.742  1.00  0.00    -0.390 OA
ATOM     35  H6  UNL     1      -7.775  -1.297  12.326  1.00  0.00     0.210 HD
ENDBRANCH   4  34
TORSDOF 12
ENDMDL
