MODEL 1
REMARK VINA RESULT: -6.651325352      0.000      0.000
REMARK  11 active torsions:
REMARK  status: ('A' for Active; 'I' for Inactive)
REMARK    1  A    between atoms: C2_2  and  O1_3 
REMARK    2  A    between atoms: O1_3  and  C3_4 
REMARK    3  A    between atoms: C6_11  and  O3_12 
REMARK    4  A    between atoms: O3_12  and  C7_13 
REMARK    5  A    between atoms: C9_15  and  O4_16 
REMARK    6  A    between atoms: O4_16  and  C10_17 
REMARK    7  A    between atoms: C11_18  and  O5_19 
REMARK    8  A    between atoms: C15_24  and  N2_25 
REMARK    9  A    between atoms: C16_29  and  N3_30 
REMARK   10  A    between atoms: C18_35  and  N4_36 
REMARK   11  A    between atoms: C19_40  and  N5_41 
REMARK       I    between atoms: N5_41  and  C20_43 
ROOT
HETATM    1  C7  UNL     1      -5.725  -2.415   9.335  1.00  0.00     0.157 C 
HETATM    2  C8  UNL     1      -6.411  -3.193  10.444  1.00  0.00     0.068 C 
HETATM    3  C9  UNL     1      -6.827  -2.317  11.613  1.00  0.00     0.155 C 
HETATM    4  C16 UNL     1      -6.764  -0.897  11.109  1.00  0.00     0.214 C 
HETATM    5  C17 UNL     1      -5.366  -0.465  10.810  1.00  0.00     0.070 C 
HETATM    6  C18 UNL     1      -4.677  -1.531   9.981  1.00  0.00     0.214 C 
ENDROOT
BRANCH   1   7
HETATM    7  O3  UNL     1      -5.063  -3.398   8.559  1.00  0.00    -0.350 OA
BRANCH   7   8
HETATM    8  C6  UNL     1      -5.968  -4.188   7.879  1.00  0.00     0.352 C 
HETATM    9  N1  UNL     1      -6.366  -3.608   6.609  1.00  0.00    -0.021 N 
HETATM   10  C4  UNL     1      -5.309  -3.679   5.623  1.00  0.00     0.322 C 
ATOM     11  H12 UNL     1      -6.697  -2.650   6.727  1.00  0.00     0.283 HD
ATOM     12  H11 UNL     1      -7.225  -4.034   6.262  1.00  0.00     0.283 HD
HETATM   13  O2  UNL     1      -4.210  -4.378   6.062  1.00  0.00    -0.327 OA
HETATM   14  C5  UNL     1      -4.843  -2.239   5.386  1.00  0.00     0.071 C 
HETATM   15  C3  UNL     1      -4.517  -5.675   6.488  1.00  0.00     0.289 C 
HETATM   16  C19 UNL     1      -5.455  -5.601   7.670  1.00  0.00     0.196 C 
BRANCH  15  17
HETATM   17  O1  UNL     1      -5.089  -6.433   5.497  1.00  0.00    -0.359 OA
BRANCH  17  18
HETATM   18  C2  UNL     1      -4.216  -6.990   4.599  1.00  0.00     0.166 C 
HETATM   19  C1  UNL     1      -4.296  -6.465   3.203  1.00  0.00     0.033 C 
ENDBRANCH  17  18
ENDBRANCH  15  17
BRANCH  16  20
HETATM   20  N5  UNL     1      -6.632  -6.432   7.518  1.00  0.00    -0.348 N 
HETATM   21  C20 UNL     1      -7.222  -7.135   8.598  1.00  0.00     0.214 C 
HETATM   22  C21 UNL     1      -8.417  -7.973   8.424  1.00  0.00     0.117 C 
HETATM   23  O6  UNL     1      -6.696  -7.030   9.749  1.00  0.00    -0.274 OA
ATOM     24  H5  UNL     1      -7.054  -6.516   6.593  1.00  0.00     0.163 HD
ENDBRANCH  16  20
ENDBRANCH   7   8
ENDBRANCH   1   7
BRANCH   6  25
HETATM   25  N4  UNL     1      -3.812  -2.368  10.779  1.00  0.00    -0.072 N 
ATOM     26  H43 UNL     1      -3.948  -3.362  10.596  1.00  0.00     0.274 HD
ATOM     27  H42 UNL     1      -2.834  -2.307  10.495  1.00  0.00     0.274 HD
ATOM     28  H41 UNL     1      -3.953  -2.125  11.759  1.00  0.00     0.274 HD
ENDBRANCH   6  25
BRANCH   3  29
HETATM   29  O4  UNL     1      -6.095  -2.587  12.740  1.00  0.00    -0.373 OA
BRANCH  29  30
HETATM   30  C10 UNL     1      -6.685  -3.335  13.710  1.00  0.00     0.185 C 
HETATM   31  C11 UNL     1      -7.211  -2.570  14.906  1.00  0.00     0.171 C 
HETATM   32  C12 UNL     1      -8.223  -3.466  15.513  1.00  0.00     0.003 C 
HETATM   33  C13 UNL     1      -7.960  -4.756  15.585  1.00  0.00    -0.026 C 
HETATM   34  C14 UNL     1      -6.696  -5.359  15.089  1.00  0.00     0.062 C 
HETATM   35  C15 UNL     1      -5.809  -4.419  14.321  1.00  0.00     0.218 C 
BRANCH  31  36
HETATM   36  O5  UNL     1      -7.668  -1.310  14.649  1.00  0.00    -0.389 OA
ATOM     37  H5  UNL     1      -7.851  -1.116  13.737  1.00  0.00     0.210 HD
ENDBRANCH  31  36
BRANCH  35  38
HETATM   38  N2  UNL     1      -4.949  -5.081  13.401  1.00  0.00    -0.072 N 
ATOM     39  H23 UNL     1      -4.480  -5.863  13.857  1.00  0.00     0.274 HD
ATOM     40  H22 UNL     1      -5.498  -5.586  12.705  1.00  0.00     0.274 HD
ATOM     41  H21 UNL     1      -4.267  -4.478  12.943  1.00  0.00     0.274 HD
ENDBRANCH  35  38
ENDBRANCH  29  30
ENDBRANCH   3  29
BRANCH   4  42
HETATM   42  N3  UNL     1      -7.497   0.058  11.887  1.00  0.00    -0.072 N 
ATOM     43  H33 UNL     1      -8.499  -0.056  11.731  1.00  0.00     0.274 HD
ATOM     44  H32 UNL     1      -7.443  -0.179  12.878  1.00  0.00     0.274 HD
ATOM     45  H31 UNL     1      -7.229   1.031  11.744  1.00  0.00     0.274 HD
ENDBRANCH   4  42
TORSDOF 11
ENDMDL
MODEL 2
REMARK VINA RESULT: -6.626799289      3.305      5.858
REMARK  11 active torsions:
REMARK  status: ('A' for Active; 'I' for Inactive)
REMARK    1  A    between atoms: C2_2  and  O1_3 
REMARK    2  A    between atoms: O1_3  and  C3_4 
REMARK    3  A    between atoms: C6_11  and  O3_12 
REMARK    4  A    between atoms: O3_12  and  C7_13 
REMARK    5  A    between atoms: C9_15  and  O4_16 
REMARK    6  A    between atoms: O4_16  and  C10_17 
REMARK    7  A    between atoms: C11_18  and  O5_19 
REMARK    8  A    between atoms: C15_24  and  N2_25 
REMARK    9  A    between atoms: C16_29  and  N3_30 
REMARK   10  A    between atoms: C18_35  and  N4_36 
REMARK   11  A    between atoms: C19_40  and  N5_41 
REMARK       I    between atoms: N5_41  and  C20_43 
ROOT
HETATM    1  C7  UNL     1      -4.555  -3.915   8.528  1.00  0.00     0.157 C 
HETATM    2  C8  UNL     1      -3.578  -2.798   8.845  1.00  0.00     0.068 C 
HETATM    3  C9  UNL     1      -4.009  -1.952  10.031  1.00  0.00     0.155 C 
HETATM    4  C16 UNL     1      -5.076  -2.748  10.740  1.00  0.00     0.214 C 
HETATM    5  C17 UNL     1      -6.317  -2.885   9.921  1.00  0.00     0.070 C 
HETATM    6  C18 UNL     1      -5.946  -3.314   8.515  1.00  0.00     0.214 C 
ENDROOT
BRANCH   1   7
HETATM    7  O3  UNL     1      -4.230  -4.317   7.209  1.00  0.00    -0.350 OA
BRANCH   7   8
HETATM    8  C6  UNL     1      -2.947  -4.823   7.144  1.00  0.00     0.352 C 
HETATM    9  N1  UNL     1      -2.913  -6.267   7.283  1.00  0.00    -0.021 N 
HETATM   10  C4  UNL     1      -3.417  -6.940   6.104  1.00  0.00     0.322 C 
ATOM     11  H12 UNL     1      -3.409  -6.570   8.121  1.00  0.00     0.283 HD
ATOM     12  H11 UNL     1      -1.977  -6.593   7.523  1.00  0.00     0.283 HD
HETATM   13  O2  UNL     1      -3.705  -6.076   5.074  1.00  0.00    -0.327 OA
HETATM   14  C5  UNL     1      -4.743  -7.590   6.512  1.00  0.00     0.071 C 
HETATM   15  C3  UNL     1      -2.619  -5.274   4.707  1.00  0.00     0.289 C 
HETATM   16  C19 UNL     1      -2.227  -4.403   5.876  1.00  0.00     0.196 C 
BRANCH  15  17
HETATM   17  O1  UNL     1      -1.534  -6.013   4.303  1.00  0.00    -0.359 OA
BRANCH  17  18
HETATM   18  C2  UNL     1      -1.651  -6.612   3.076  1.00  0.00     0.166 C 
HETATM   19  C1  UNL     1      -2.140  -5.737   1.968  1.00  0.00     0.033 C 
ENDBRANCH  17  18
ENDBRANCH  15  17
BRANCH  16  20
HETATM   20  N5  UNL     1      -0.812  -4.463   6.185  1.00  0.00    -0.348 N 
HETATM   21  C20 UNL     1      -0.050  -3.320   6.532  1.00  0.00     0.214 C 
HETATM   22  C21 UNL     1       1.385  -3.403   6.843  1.00  0.00     0.117 C 
HETATM   23  O6  UNL     1      -0.633  -2.193   6.574  1.00  0.00    -0.274 OA
ATOM     24  H5  UNL     1      -0.343  -5.369   6.151  1.00  0.00     0.163 HD
ENDBRANCH  16  20
ENDBRANCH   7   8
ENDBRANCH   1   7
BRANCH   6  25
HETATM   25  N4  UNL     1      -5.948  -2.205   7.589  1.00  0.00    -0.072 N 
ATOM     26  H43 UNL     1      -5.303  -1.463   7.862  1.00  0.00     0.274 HD
ATOM     27  H42 UNL     1      -5.517  -2.439   6.694  1.00  0.00     0.274 HD
ATOM     28  H41 UNL     1      -6.908  -1.876   7.490  1.00  0.00     0.274 HD
ENDBRANCH   6  25
BRANCH   3  29
HETATM   29  O4  UNL     1      -4.359  -0.682   9.653  1.00  0.00    -0.373 OA
BRANCH  29  30
HETATM   30  C10 UNL     1      -3.429   0.298   9.803  1.00  0.00     0.185 C 
HETATM   31  C11 UNL     1      -2.176   0.154   8.966  1.00  0.00     0.171 C 
HETATM   32  C12 UNL     1      -1.609   1.520   8.894  1.00  0.00     0.003 C 
HETATM   33  C13 UNL     1      -1.627   2.268   9.979  1.00  0.00    -0.026 C 
HETATM   34  C14 UNL     1      -2.185   1.807  11.277  1.00  0.00     0.062 C 
HETATM   35  C15 UNL     1      -2.907   0.490  11.220  1.00  0.00     0.218 C 
BRANCH  31  36
HETATM   36  O5  UNL     1      -2.341  -0.444   7.750  1.00  0.00    -0.389 OA
ATOM     37  H5  UNL     1      -1.680  -0.242   7.099  1.00  0.00     0.210 HD
ENDBRANCH  31  36
BRANCH  35  38
HETATM   38  N2  UNL     1      -3.884   0.338  12.242  1.00  0.00    -0.072 N 
ATOM     39  H23 UNL     1      -4.650   0.996  12.099  1.00  0.00     0.274 HD
ATOM     40  H22 UNL     1      -4.384  -0.543  12.125  1.00  0.00     0.274 HD
ATOM     41  H21 UNL     1      -3.524   0.416  13.193  1.00  0.00     0.274 HD
ENDBRANCH  35  38
ENDBRANCH  29  30
ENDBRANCH   3  29
BRANCH   4  42
HETATM   42  N3  UNL     1      -5.333  -2.351  12.094  1.00  0.00    -0.072 N 
ATOM     43  H33 UNL     1      -4.453  -2.185  12.584  1.00  0.00     0.274 HD
ATOM     44  H32 UNL     1      -5.729  -1.411  12.116  1.00  0.00     0.274 HD
ATOM     45  H31 UNL     1      -5.918  -2.991  12.629  1.00  0.00     0.274 HD
ENDBRANCH   4  42
TORSDOF 11
ENDMDL
MODEL 3
REMARK VINA RESULT: -6.464988843      2.804      6.396
REMARK  11 active torsions:
REMARK  status: ('A' for Active; 'I' for Inactive)
REMARK    1  A    between atoms: C2_2  and  O1_3 
REMARK    2  A    between atoms: O1_3  and  C3_4 
REMARK    3  A    between atoms: C6_11  and  O3_12 
REMARK    4  A    between atoms: O3_12  and  C7_13 
REMARK    5  A    between atoms: C9_15  and  O4_16 
REMARK    6  A    between atoms: O4_16  and  C10_17 
REMARK    7  A    between atoms: C11_18  and  O5_19 
REMARK    8  A    between atoms: C15_24  and  N2_25 
REMARK    9  A    between atoms: C16_29  and  N3_30 
REMARK   10  A    between atoms: C18_35  and  N4_36 
REMARK   11  A    between atoms: C19_40  and  N5_41 
REMARK       I    between atoms: N5_41  and  C20_43 
ROOT
HETATM    1  C7  UNL     1      -5.519  -3.021  10.932  1.00  0.00     0.157 C 
HETATM    2  C8  UNL     1      -4.148  -3.105  10.285  1.00  0.00     0.068 C 
HETATM    3  C9  UNL     1      -3.467  -1.753  10.161  1.00  0.00     0.155 C 
HETATM    4  C16 UNL     1      -4.223  -0.824  11.078  1.00  0.00     0.214 C 
HETATM    5  C17 UNL     1      -5.617  -0.573  10.605  1.00  0.00     0.070 C 
HETATM    6  C18 UNL     1      -6.273  -1.895  10.255  1.00  0.00     0.214 C 
ENDROOT
BRANCH   1   7
HETATM    7  O3  UNL     1      -6.151  -4.244  10.600  1.00  0.00    -0.350 OA
BRANCH   7   8
HETATM    8  C6  UNL     1      -5.246  -5.286  10.590  1.00  0.00     0.352 C 
HETATM    9  N1  UNL     1      -4.736  -5.590  11.915  1.00  0.00    -0.021 N 
HETATM   10  C4  UNL     1      -5.729  -6.240  12.745  1.00  0.00     0.322 C 
ATOM     11  H12 UNL     1      -4.364  -4.756  12.368  1.00  0.00     0.283 HD
ATOM     12  H11 UNL     1      -3.880  -6.141  11.863  1.00  0.00     0.283 HD
HETATM   13  O2  UNL     1      -6.889  -6.530  12.067  1.00  0.00    -0.327 OA
HETATM   14  C5  UNL     1      -6.102  -5.233  13.838  1.00  0.00     0.071 C 
HETATM   15  C3  UNL     1      -6.679  -7.309  10.924  1.00  0.00     0.289 C 
HETATM   16  C19 UNL     1      -5.818  -6.539   9.951  1.00  0.00     0.196 C 
BRANCH  15  17
HETATM   17  O1  UNL     1      -6.083  -8.512  11.209  1.00  0.00    -0.359 OA
BRANCH  17  18
HETATM   18  C2  UNL     1      -6.835  -9.624  10.938  1.00  0.00     0.166 C 
HETATM   19  C1  UNL     1      -8.244  -9.369  10.510  1.00  0.00     0.033 C 
ENDBRANCH  17  18
ENDBRANCH  15  17
BRANCH  16  20
HETATM   20  N5  UNL     1      -4.678  -7.296   9.473  1.00  0.00    -0.348 N 
HETATM   21  C20 UNL     1      -4.116  -7.111   8.185  1.00  0.00     0.214 C 
HETATM   22  C21 UNL     1      -2.959  -7.889   7.720  1.00  0.00     0.117 C 
HETATM   23  O6  UNL     1      -4.634  -6.243   7.417  1.00  0.00    -0.274 OA
ATOM     24  H5  UNL     1      -4.262  -7.993  10.091  1.00  0.00     0.163 HD
ENDBRANCH  16  20
ENDBRANCH   7   8
ENDBRANCH   1   7
BRANCH   6  25
HETATM   25  N4  UNL     1      -6.272  -2.143   8.832  1.00  0.00    -0.072 N 
ATOM     26  H43 UNL     1      -5.385  -1.898   8.391  1.00  0.00     0.274 HD
ATOM     27  H42 UNL     1      -6.267  -3.138   8.606  1.00  0.00     0.274 HD
ATOM     28  H41 UNL     1      -7.065  -1.651   8.423  1.00  0.00     0.274 HD
ENDBRANCH   6  25
BRANCH   3  29
HETATM   29  O4  UNL     1      -3.360  -1.352   8.855  1.00  0.00    -0.373 OA
BRANCH  29  30
HETATM   30  C10 UNL     1      -2.280  -1.783   8.150  1.00  0.00     0.185 C 
HETATM   31  C11 UNL     1      -1.242  -0.730   7.824  1.00  0.00     0.171 C 
HETATM   32  C12 UNL     1      -0.000  -1.493   7.560  1.00  0.00     0.003 C 
HETATM   33  C13 UNL     1      -0.082  -2.612   6.869  1.00  0.00    -0.026 C 
HETATM   34  C14 UNL     1      -1.362  -3.148   6.337  1.00  0.00     0.062 C 
HETATM   35  C15 UNL     1      -2.592  -2.422   6.805  1.00  0.00     0.218 C 
BRANCH  31  36
HETATM   36  O5  UNL     1      -1.097   0.265   8.747  1.00  0.00    -0.389 OA
ATOM     37  H5  UNL     1      -1.611   1.049   8.592  1.00  0.00     0.210 HD
ENDBRANCH  31  36
BRANCH  35  38
HETATM   38  N2  UNL     1      -3.764  -3.229   6.785  1.00  0.00    -0.072 N 
ATOM     39  H23 UNL     1      -3.512  -4.217   6.794  1.00  0.00     0.274 HD
ATOM     40  H22 UNL     1      -4.254  -3.163   7.677  1.00  0.00     0.274 HD
ATOM     41  H21 UNL     1      -4.404  -3.034   6.016  1.00  0.00     0.274 HD
ENDBRANCH  35  38
ENDBRANCH  29  30
ENDBRANCH   3  29
BRANCH   4  42
HETATM   42  N3  UNL     1      -3.524   0.374  11.440  1.00  0.00    -0.072 N 
ATOM     43  H33 UNL     1      -2.549   0.162  11.654  1.00  0.00     0.274 HD
ATOM     44  H32 UNL     1      -3.401   0.971  10.622  1.00  0.00     0.274 HD
ATOM     45  H31 UNL     1      -3.942   0.906  12.203  1.00  0.00     0.274 HD
ENDBRANCH   4  42
TORSDOF 11
ENDMDL
MODEL 4
REMARK VINA RESULT: -6.442922287      2.707      6.283
REMARK  11 active torsions:
REMARK  status: ('A' for Active; 'I' for Inactive)
REMARK    1  A    between atoms: C2_2  and  O1_3 
REMARK    2  A    between atoms: O1_3  and  C3_4 
REMARK    3  A    between atoms: C6_11  and  O3_12 
REMARK    4  A    between atoms: O3_12  and  C7_13 
REMARK    5  A    between atoms: C9_15  and  O4_16 
REMARK    6  A    between atoms: O4_16  and  C10_17 
REMARK    7  A    between atoms: C11_18  and  O5_19 
REMARK    8  A    between atoms: C15_24  and  N2_25 
REMARK    9  A    between atoms: C16_29  and  N3_30 
REMARK   10  A    between atoms: C18_35  and  N4_36 
REMARK   11  A    between atoms: C19_40  and  N5_41 
REMARK       I    between atoms: N5_41  and  C20_43 
ROOT
HETATM    1  C7  UNL     1      -4.822  -3.104   6.595  1.00  0.00     0.157 C 
HETATM    2  C8  UNL     1      -4.442  -4.175   7.603  1.00  0.00     0.068 C 
HETATM    3  C9  UNL     1      -5.361  -5.383   7.559  1.00  0.00     0.155 C 
HETATM    4  C16 UNL     1      -6.116  -5.281   6.257  1.00  0.00     0.214 C 
HETATM    5  C17 UNL     1      -7.048  -4.114   6.233  1.00  0.00     0.070 C 
HETATM    6  C18 UNL     1      -6.315  -2.877   6.714  1.00  0.00     0.214 C 
ENDROOT
BRANCH   1   7
HETATM    7  O3  UNL     1      -4.155  -1.936   7.040  1.00  0.00    -0.350 OA
BRANCH   7   8
HETATM    8  C6  UNL     1      -3.800  -2.041   8.369  1.00  0.00     0.352 C 
HETATM    9  N1  UNL     1      -2.436  -2.507   8.544  1.00  0.00    -0.021 N 
HETATM   10  C4  UNL     1      -1.464  -1.494   8.192  1.00  0.00     0.322 C 
ATOM     11  H12 UNL     1      -2.272  -3.372   8.028  1.00  0.00     0.283 HD
ATOM     12  H11 UNL     1      -2.282  -2.853   9.491  1.00  0.00     0.283 HD
HETATM   13  O2  UNL     1      -2.038  -0.283   7.883  1.00  0.00    -0.327 OA
HETATM   14  C5  UNL     1      -0.772  -1.986   6.916  1.00  0.00     0.071 C 
HETATM   15  C3  UNL     1      -2.858   0.214   8.903  1.00  0.00     0.289 C 
HETATM   16  C19 UNL     1      -4.007  -0.741   9.125  1.00  0.00     0.196 C 
BRANCH  15  17
HETATM   17  O1  UNL     1      -2.179   0.394  10.082  1.00  0.00    -0.359 OA
BRANCH  17  18
HETATM   18  C2  UNL     1      -2.122   1.683  10.542  1.00  0.00     0.166 C 
HETATM   19  C1  UNL     1      -1.704   2.712   9.543  1.00  0.00     0.033 C 
ENDBRANCH  17  18
ENDBRANCH  15  17
BRANCH  16  20
HETATM   20  N5  UNL     1      -4.181  -1.113  10.515  1.00  0.00    -0.348 N 
HETATM   21  C20 UNL     1      -5.437  -1.075  11.170  1.00  0.00     0.214 C 
HETATM   22  C21 UNL     1      -5.593  -1.457  12.581  1.00  0.00     0.117 C 
HETATM   23  O6  UNL     1      -6.454  -0.700  10.510  1.00  0.00    -0.274 OA
ATOM     24  H5  UNL     1      -3.364  -1.415  11.045  1.00  0.00     0.163 HD
ENDBRANCH  16  20
ENDBRANCH   7   8
ENDBRANCH   1   7
BRANCH   6  25
HETATM   25  N4  UNL     1      -6.615  -2.567   8.092  1.00  0.00    -0.072 N 
ATOM     26  H43 UNL     1      -7.604  -2.373   8.246  1.00  0.00     0.274 HD
ATOM     27  H42 UNL     1      -6.537  -3.380   8.704  1.00  0.00     0.274 HD
ATOM     28  H41 UNL     1      -6.013  -1.797   8.383  1.00  0.00     0.274 HD
ENDBRANCH   6  25
BRANCH   3  29
HETATM   29  O4  UNL     1      -6.127  -5.484   8.691  1.00  0.00    -0.373 OA
BRANCH  29  30
HETATM   30  C10 UNL     1      -5.858  -6.507   9.544  1.00  0.00     0.185 C 
HETATM   31  C11 UNL     1      -6.917  -7.585   9.638  1.00  0.00     0.171 C 
HETATM   32  C12 UNL     1      -6.203  -8.771  10.165  1.00  0.00     0.003 C 
HETATM   33  C13 UNL     1      -5.314  -8.598  11.122  1.00  0.00    -0.026 C 
HETATM   34  C14 UNL     1      -4.992  -7.270  11.704  1.00  0.00     0.062 C 
HETATM   35  C15 UNL     1      -5.615  -6.102  10.991  1.00  0.00     0.218 C 
BRANCH  31  36
HETATM   36  O5  UNL     1      -7.622  -7.824   8.494  1.00  0.00    -0.389 OA
ATOM     37  H5  UNL     1      -8.554  -7.967   8.607  1.00  0.00     0.210 HD
ENDBRANCH  31  36
BRANCH  35  38
HETATM   38  N2  UNL     1      -4.892  -4.889  11.158  1.00  0.00    -0.072 N 
ATOM     39  H23 UNL     1      -5.309  -4.329  11.901  1.00  0.00     0.274 HD
ATOM     40  H22 UNL     1      -3.977  -5.076  11.570  1.00  0.00     0.274 HD
ATOM     41  H21 UNL     1      -4.789  -4.332  10.310  1.00  0.00     0.274 HD
ENDBRANCH  35  38
ENDBRANCH  29  30
ENDBRANCH   3  29
BRANCH   4  42
HETATM   42  N3  UNL     1      -6.724  -6.500   5.809  1.00  0.00    -0.072 N 
ATOM     43  H33 UNL     1      -6.119  -6.967   5.134  1.00  0.00     0.274 HD
ATOM     44  H32 UNL     1      -6.721  -7.191   6.560  1.00  0.00     0.274 HD
ATOM     45  H31 UNL     1      -7.665  -6.400   5.428  1.00  0.00     0.274 HD
ENDBRANCH   4  42
TORSDOF 11
ENDMDL
MODEL 5
REMARK VINA RESULT: -6.434675696      3.307      7.895
REMARK  11 active torsions:
REMARK  status: ('A' for Active; 'I' for Inactive)
REMARK    1  A    between atoms: C2_2  and  O1_3 
REMARK    2  A    between atoms: O1_3  and  C3_4 
REMARK    3  A    between atoms: C6_11  and  O3_12 
REMARK    4  A    between atoms: O3_12  and  C7_13 
REMARK    5  A    between atoms: C9_15  and  O4_16 
REMARK    6  A    between atoms: O4_16  and  C10_17 
REMARK    7  A    between atoms: C11_18  and  O5_19 
REMARK    8  A    between atoms: C15_24  and  N2_25 
REMARK    9  A    between atoms: C16_29  and  N3_30 
REMARK   10  A    between atoms: C18_35  and  N4_36 
REMARK   11  A    between atoms: C19_40  and  N5_41 
REMARK       I    between atoms: N5_41  and  C20_43 
ROOT
HETATM    1  C7  UNL     1      -6.860  -2.890  11.665  1.00  0.00     0.157 C 
HETATM    2  C8  UNL     1      -6.160  -1.549  11.524  1.00  0.00     0.068 C 
HETATM    3  C9  UNL     1      -5.452  -1.388  10.190  1.00  0.00     0.155 C 
HETATM    4  C16 UNL     1      -6.008  -2.466   9.293  1.00  0.00     0.214 C 
HETATM    5  C17 UNL     1      -5.620  -3.835   9.748  1.00  0.00     0.070 C 
HETATM    6  C18 UNL     1      -5.880  -3.962  11.236  1.00  0.00     0.214 C 
ENDROOT
BRANCH   1   7
HETATM    7  O3  UNL     1      -7.096  -3.030  13.054  1.00  0.00    -0.350 OA
BRANCH   7   8
HETATM    8  C6  UNL     1      -7.532  -4.303  13.360  1.00  0.00     0.352 C 
HETATM    9  N1  UNL     1      -6.624  -5.002  14.251  1.00  0.00    -0.021 N 
HETATM   10  C4  UNL     1      -6.676  -4.480  15.600  1.00  0.00     0.322 C 
ATOM     11  H12 UNL     1      -5.670  -4.993  13.888  1.00  0.00     0.283 HD
ATOM     12  H11 UNL     1      -6.792  -6.007  14.237  1.00  0.00     0.283 HD
HETATM   13  O2  UNL     1      -7.650  -3.524  15.770  1.00  0.00    -0.327 OA
HETATM   14  C5  UNL     1      -5.334  -3.782  15.845  1.00  0.00     0.071 C 
HETATM   15  C3  UNL     1      -8.927  -3.969  15.408  1.00  0.00     0.289 C 
HETATM   16  C19 UNL     1      -8.936  -4.308  13.937  1.00  0.00     0.196 C 
BRANCH  15  17
HETATM   17  O1  UNL     1      -9.326  -5.065  16.133  1.00  0.00    -0.359 OA
BRANCH  17  18
HETATM   18  C2  UNL     1     -10.382  -4.860  16.982  1.00  0.00     0.166 C 
HETATM   19  C1  UNL     1     -10.209  -3.764  17.982  1.00  0.00     0.033 C 
ENDBRANCH  17  18
ENDBRANCH  15  17
BRANCH  16  20
HETATM   20  N5  UNL     1      -9.476  -5.624  13.657  1.00  0.00    -0.348 N 
HETATM   21  C20 UNL     1     -10.867  -5.888  13.593  1.00  0.00     0.214 C 
HETATM   22  C21 UNL     1     -11.394  -7.230  13.307  1.00  0.00     0.117 C 
HETATM   23  O6  UNL     1     -11.675  -4.929  13.790  1.00  0.00    -0.274 OA
ATOM     24  H5  UNL     1      -8.826  -6.394  13.498  1.00  0.00     0.163 HD
ENDBRANCH  16  20
ENDBRANCH   7   8
ENDBRANCH   1   7
BRANCH   6  25
HETATM   25  N4  UNL     1      -4.673  -3.806  12.014  1.00  0.00    -0.072 N 
ATOM     26  H43 UNL     1      -4.546  -4.553  12.698  1.00  0.00     0.274 HD
ATOM     27  H42 UNL     1      -3.828  -3.974  11.468  1.00  0.00     0.274 HD
ATOM     28  H41 UNL     1      -4.688  -2.880  12.441  1.00  0.00     0.274 HD
ENDBRANCH   6  25
BRANCH   3  29
HETATM   29  O4  UNL     1      -4.089  -1.370  10.333  1.00  0.00    -0.373 OA
BRANCH  29  30
HETATM   30  C10 UNL     1      -3.434  -0.231   9.983  1.00  0.00     0.185 C 
HETATM   31  C11 UNL     1      -2.419  -0.369   8.869  1.00  0.00     0.171 C 
HETATM   32  C12 UNL     1      -2.257   1.003   8.334  1.00  0.00     0.003 C 
HETATM   33  C13 UNL     1      -2.210   2.009   9.183  1.00  0.00    -0.026 C 
HETATM   34  C14 UNL     1      -2.309   1.837  10.655  1.00  0.00     0.062 C 
HETATM   35  C15 UNL     1      -2.661   0.447  11.105  1.00  0.00     0.218 C 
BRANCH  31  36
HETATM   36  O5  UNL     1      -2.707  -1.305   7.918  1.00  0.00    -0.389 OA
ATOM     37  H5  UNL     1      -2.455  -2.197   8.128  1.00  0.00     0.210 HD
ENDBRANCH  31  36
BRANCH  35  38
HETATM   38  N2  UNL     1      -3.297   0.409  12.377  1.00  0.00    -0.072 N 
ATOM     39  H23 UNL     1      -2.605   0.272  13.113  1.00  0.00     0.274 HD
ATOM     40  H22 UNL     1      -3.640   1.336  12.628  1.00  0.00     0.274 HD
ATOM     41  H21 UNL     1      -4.045  -0.278  12.461  1.00  0.00     0.274 HD
ENDBRANCH  35  38
ENDBRANCH  29  30
ENDBRANCH   3  29
BRANCH   4  42
HETATM   42  N3  UNL     1      -5.803  -2.256   7.890  1.00  0.00    -0.072 N 
ATOM     43  H33 UNL     1      -4.830  -2.004   7.710  1.00  0.00     0.274 HD
ATOM     44  H32 UNL     1      -5.852  -3.144   7.391  1.00  0.00     0.274 HD
ATOM     45  H31 UNL     1      -6.427  -1.576   7.458  1.00  0.00     0.274 HD
ENDBRANCH   4  42
TORSDOF 11
ENDMDL
