MODEL 1
REMARK VINA RESULT: -8.791725040      0.000      0.000
REMARK  11 active torsions:
REMARK  status: ('A' for Active; 'I' for Inactive)
REMARK    1  A    between atoms: C4_4  and  O1_5 
REMARK    2  A    between atoms: O1_5  and  C5_6 
REMARK    3  A    between atoms: C5_6  and  C6_7 
REMARK    4  A    between atoms: C7_9  and  O3_10 
REMARK    5  A    between atoms: C8_12  and  O4_13 
REMARK    6  A    between atoms: C9_15  and  O5_16 
REMARK    7  A    between atoms: C10_18  and  O6_19 
REMARK    8  A    between atoms: C12_23  and  O8_24 
REMARK    9  A    between atoms: O8_24  and  C13_25 
REMARK   10  A    between atoms: C17_29  and  C18_30 
REMARK   11  A    between atoms: C18_30  and  C19_31 
REMARK       I    between atoms: C19_31  and  N1_33 
ROOT
HETATM    1  C19 UNL     1     -10.281  -5.035  15.212  1.00  0.00     0.233 C 
HETATM    2  O9  UNL     1     -10.965  -4.997  16.259  1.00  0.00    -0.272 OA
HETATM    3  N1  UNL     1     -10.734  -5.868  14.156  1.00  0.00    -0.264 N 
ATOM      4  H1  UNL     1     -10.195  -5.916  13.292  1.00  0.00     0.181 HD
HETATM    5  C20 UNL     1     -11.897  -6.619  14.275  1.00  0.00     0.184 C 
HETATM    6  N2  UNL     1     -12.874  -7.251  14.360  1.00  0.00    -0.172 NA
ENDROOT
BRANCH   1   7
HETATM    7  C18 UNL     1      -9.059  -4.235  15.107  1.00  0.00     0.135 C 
BRANCH   7   8
HETATM    8  C17 UNL     1      -7.848  -4.931  14.602  1.00  0.00     0.133 C 
HETATM    9  C16 UNL     1      -6.586  -4.709  15.353  1.00  0.00     0.033 C 
HETATM   10  C15 UNL     1      -6.301  -3.223  15.342  1.00  0.00     0.007 C 
HETATM   11  C14 UNL     1      -6.552  -2.655  13.971  1.00  0.00     0.061 C 
HETATM   12  C13 UNL     1      -6.859  -3.681  12.917  1.00  0.00     0.263 C 
HETATM   13  O10 UNL     1      -7.741  -4.653  13.247  1.00  0.00    -0.355 OA
BRANCH  12  14
HETATM   14  O8  UNL     1      -7.405  -2.950  11.835  1.00  0.00    -0.328 OA
BRANCH  14  15
HETATM   15  C12 UNL     1      -6.603  -3.059  10.702  1.00  0.00     0.292 C 
HETATM   16  C2  UNL     1      -5.710  -1.882  10.644  1.00  0.00    -0.032 C 
HETATM   17  C1  UNL     1      -6.115  -0.650  10.777  1.00  0.00     0.019 C 
HETATM   18  C3  UNL     1      -4.262  -2.182  10.414  1.00  0.00     0.072 C 
HETATM   19  C4  UNL     1      -4.237  -3.253   9.351  1.00  0.00     0.149 C 
HETATM   20  C11 UNL     1      -4.987  -4.501   9.869  1.00  0.00     0.203 C 
HETATM   21  O7  UNL     1      -5.769  -4.170  10.939  1.00  0.00    -0.355 OA
BRANCH  19  22
HETATM   22  O1  UNL     1      -4.965  -2.845   8.260  1.00  0.00    -0.381 OA
BRANCH  22  23
HETATM   23  C5  UNL     1      -4.279  -2.130   7.329  1.00  0.00     0.203 C 
BRANCH  23  24
HETATM   24  C6  UNL     1      -4.205  -2.811   5.992  1.00  0.00     0.179 C 
HETATM   25  O2  UNL     1      -2.961  -2.504   5.460  1.00  0.00    -0.349 OA
HETATM   26  C7  UNL     1      -1.904  -3.227   5.921  1.00  0.00     0.288 C 
HETATM   27  C8  UNL     1      -2.088  -4.646   5.364  1.00  0.00     0.204 C 
HETATM   28  C9  UNL     1      -3.303  -5.188   6.081  1.00  0.00     0.183 C 
HETATM   29  C10 UNL     1      -4.472  -4.282   6.059  1.00  0.00     0.180 C 
BRANCH  26  30
HETATM   30  O3  UNL     1      -0.712  -2.675   5.448  1.00  0.00    -0.369 OA
ATOM     31  H3  UNL     1      -0.513  -3.027   4.588  1.00  0.00     0.212 HD
ENDBRANCH  26  30
BRANCH  27  32
HETATM   32  O4  UNL     1      -2.425  -4.497   4.028  1.00  0.00    -0.388 OA
ATOM     33  H4  UNL     1      -3.081  -3.811   3.997  1.00  0.00     0.210 HD
ENDBRANCH  27  32
BRANCH  28  34
HETATM   34  O5  UNL     1      -2.887  -5.505   7.381  1.00  0.00    -0.390 OA
ATOM     35  H5  UNL     1      -2.811  -4.681   7.847  1.00  0.00     0.210 HD
ENDBRANCH  28  34
BRANCH  29  36
HETATM   36  O6  UNL     1      -5.270  -4.650   4.949  1.00  0.00    -0.390 OA
ATOM     37  H6  UNL     1      -6.158  -4.807   5.250  1.00  0.00     0.210 HD
ENDBRANCH  29  36
ENDBRANCH  23  24
ENDBRANCH  22  23
ENDBRANCH  19  22
ENDBRANCH  14  15
ENDBRANCH  12  14
ENDBRANCH   7   8
ENDBRANCH   1   7
TORSDOF 11
ENDMDL
MODEL 2
REMARK VINA RESULT: -8.625023606      2.868      8.240
REMARK  11 active torsions:
REMARK  status: ('A' for Active; 'I' for Inactive)
REMARK    1  A    between atoms: C4_4  and  O1_5 
REMARK    2  A    between atoms: O1_5  and  C5_6 
REMARK    3  A    between atoms: C5_6  and  C6_7 
REMARK    4  A    between atoms: C7_9  and  O3_10 
REMARK    5  A    between atoms: C8_12  and  O4_13 
REMARK    6  A    between atoms: C9_15  and  O5_16 
REMARK    7  A    between atoms: C10_18  and  O6_19 
REMARK    8  A    between atoms: C12_23  and  O8_24 
REMARK    9  A    between atoms: O8_24  and  C13_25 
REMARK   10  A    between atoms: C17_29  and  C18_30 
REMARK   11  A    between atoms: C18_30  and  C19_31 
REMARK       I    between atoms: C19_31  and  N1_33 
ROOT
HETATM    1  C19 UNL     1      -5.767  -2.301   9.307  1.00  0.00     0.233 C 
HETATM    2  O9  UNL     1      -6.572  -3.154   9.744  1.00  0.00    -0.272 OA
HETATM    3  N1  UNL     1      -5.668  -1.068  10.003  1.00  0.00    -0.264 N 
ATOM      4  H1  UNL     1      -5.019  -0.356   9.669  1.00  0.00     0.181 HD
HETATM    5  C20 UNL     1      -6.437  -0.811  11.131  1.00  0.00     0.184 C 
HETATM    6  N2  UNL     1      -7.073  -0.583  12.083  1.00  0.00    -0.172 NA
ENDROOT
BRANCH   1   7
HETATM    7  C18 UNL     1      -4.966  -2.594   8.117  1.00  0.00     0.135 C 
BRANCH   7   8
HETATM    8  C17 UNL     1      -3.556  -3.000   8.345  1.00  0.00     0.133 C 
HETATM    9  C16 UNL     1      -2.581  -2.663   7.277  1.00  0.00     0.033 C 
HETATM   10  C15 UNL     1      -3.050  -3.328   6.002  1.00  0.00     0.007 C 
HETATM   11  C14 UNL     1      -3.505  -4.735   6.285  1.00  0.00     0.061 C 
HETATM   12  C13 UNL     1      -3.248  -5.203   7.689  1.00  0.00     0.263 C 
HETATM   13  O10 UNL     1      -3.559  -4.344   8.689  1.00  0.00    -0.355 OA
BRANCH  12  14
HETATM   14  O8  UNL     1      -4.049  -6.360   7.849  1.00  0.00    -0.328 OA
BRANCH  14  15
HETATM   15  C12 UNL     1      -4.752  -6.320   9.049  1.00  0.00     0.292 C 
HETATM   16  C2  UNL     1      -6.185  -6.545   8.761  1.00  0.00    -0.032 C 
HETATM   17  C1  UNL     1      -6.855  -5.910   7.840  1.00  0.00     0.019 C 
HETATM   18  C3  UNL     1      -6.859  -7.575   9.612  1.00  0.00     0.072 C 
HETATM   19  C4  UNL     1      -6.358  -7.330  11.014  1.00  0.00     0.149 C 
HETATM   20  C11 UNL     1      -4.822  -7.503  11.043  1.00  0.00     0.203 C 
HETATM   21  O7  UNL     1      -4.318  -7.446   9.775  1.00  0.00    -0.355 OA
BRANCH  19  22
HETATM   22  O1  UNL     1      -6.559  -6.015  11.358  1.00  0.00    -0.381 OA
BRANCH  22  23
HETATM   23  C5  UNL     1      -6.666  -5.765  12.691  1.00  0.00     0.203 C 
BRANCH  23  24
HETATM   24  C6  UNL     1      -6.855  -4.310  13.010  1.00  0.00     0.179 C 
HETATM   25  O2  UNL     1      -8.217  -4.119  13.192  1.00  0.00    -0.349 OA
HETATM   26  C7  UNL     1      -8.729  -4.481  14.401  1.00  0.00     0.288 C 
HETATM   27  C8  UNL     1      -8.180  -3.465  15.414  1.00  0.00     0.204 C 
HETATM   28  C9  UNL     1      -6.698  -3.756  15.488  1.00  0.00     0.183 C 
HETATM   29  C10 UNL     1      -6.033  -3.843  14.170  1.00  0.00     0.180 C 
BRANCH  26  30
HETATM   30  O3  UNL     1     -10.123  -4.417  14.362  1.00  0.00    -0.369 OA
ATOM     31  H3  UNL     1     -10.406  -3.515  14.456  1.00  0.00     0.212 HD
ENDBRANCH  26  30
BRANCH  27  32
HETATM   32  O4  UNL     1      -8.330  -2.217  14.830  1.00  0.00    -0.388 OA
ATOM     33  H4  UNL     1      -7.588  -2.107  14.247  1.00  0.00     0.210 HD
ENDBRANCH  27  32
BRANCH  28  34
HETATM   34  O5  UNL     1      -6.563  -4.928  16.244  1.00  0.00    -0.390 OA
ATOM     35  H5  UNL     1      -5.835  -5.408  15.866  1.00  0.00     0.210 HD
ENDBRANCH  28  34
BRANCH  29  36
HETATM   36  O6  UNL     1      -5.514  -2.560  13.873  1.00  0.00    -0.390 OA
ATOM     37  H6  UNL     1      -4.648  -2.485  14.256  1.00  0.00     0.210 HD
ENDBRANCH  29  36
ENDBRANCH  23  24
ENDBRANCH  22  23
ENDBRANCH  19  22
ENDBRANCH  14  15
ENDBRANCH  12  14
ENDBRANCH   7   8
ENDBRANCH   1   7
TORSDOF 11
ENDMDL
MODEL 3
REMARK VINA RESULT: -8.569682915      4.252      6.114
REMARK  11 active torsions:
REMARK  status: ('A' for Active; 'I' for Inactive)
REMARK    1  A    between atoms: C4_4  and  O1_5 
REMARK    2  A    between atoms: O1_5  and  C5_6 
REMARK    3  A    between atoms: C5_6  and  C6_7 
REMARK    4  A    between atoms: C7_9  and  O3_10 
REMARK    5  A    between atoms: C8_12  and  O4_13 
REMARK    6  A    between atoms: C9_15  and  O5_16 
REMARK    7  A    between atoms: C10_18  and  O6_19 
REMARK    8  A    between atoms: C12_23  and  O8_24 
REMARK    9  A    between atoms: O8_24  and  C13_25 
REMARK   10  A    between atoms: C17_29  and  C18_30 
REMARK   11  A    between atoms: C18_30  and  C19_31 
REMARK       I    between atoms: C19_31  and  N1_33 
ROOT
HETATM    1  C19 UNL     1      -2.956   0.005  10.564  1.00  0.00     0.233 C 
HETATM    2  O9  UNL     1      -2.431   0.487  11.593  1.00  0.00    -0.272 OA
HETATM    3  N1  UNL     1      -2.684   0.640   9.324  1.00  0.00    -0.264 N 
ATOM      4  H1  UNL     1      -3.099   0.266   8.470  1.00  0.00     0.181 HD
HETATM    5  C20 UNL     1      -1.865   1.759   9.248  1.00  0.00     0.184 C 
HETATM    6  N2  UNL     1      -1.176   2.697   9.169  1.00  0.00    -0.172 NA
ENDROOT
BRANCH   1   7
HETATM    7  C18 UNL     1      -3.816  -1.176  10.666  1.00  0.00     0.135 C 
BRANCH   7   8
HETATM    8  C17 UNL     1      -5.238  -1.002  10.273  1.00  0.00     0.133 C 
HETATM    9  C16 UNL     1      -6.164  -0.496  11.318  1.00  0.00     0.033 C 
HETATM   10  C15 UNL     1      -6.123  -1.468  12.477  1.00  0.00     0.007 C 
HETATM   11  C14 UNL     1      -6.152  -2.884  11.969  1.00  0.00     0.061 C 
HETATM   12  C13 UNL     1      -6.373  -3.012  10.488  1.00  0.00     0.263 C 
HETATM   13  O10 UNL     1      -5.658  -2.187   9.688  1.00  0.00    -0.355 OA
BRANCH  12  14
HETATM   14  O8  UNL     1      -6.011  -4.344  10.171  1.00  0.00    -0.328 OA
BRANCH  14  15
HETATM   15  C12 UNL     1      -5.881  -4.513   8.796  1.00  0.00     0.292 C 
HETATM   16  C2  UNL     1      -5.557  -5.930   8.526  1.00  0.00    -0.032 C 
HETATM   17  C1  UNL     1      -4.620  -6.597   9.140  1.00  0.00     0.019 C 
HETATM   18  C3  UNL     1      -6.388  -6.591   7.471  1.00  0.00     0.072 C 
HETATM   19  C4  UNL     1      -6.509  -5.576   6.360  1.00  0.00     0.149 C 
HETATM   20  C11 UNL     1      -7.206  -4.309   6.903  1.00  0.00     0.203 C 
HETATM   21  O7  UNL     1      -7.169  -4.298   8.268  1.00  0.00    -0.355 OA
BRANCH  19  22
HETATM   22  O1  UNL     1      -5.260  -5.145   5.984  1.00  0.00    -0.381 OA
BRANCH  22  23
HETATM   23  C5  UNL     1      -5.178  -3.842   5.601  1.00  0.00     0.203 C 
BRANCH  23  24
HETATM   24  C6  UNL     1      -3.895  -3.510   4.894  1.00  0.00     0.179 C 
HETATM   25  O2  UNL     1      -3.329  -2.447   5.582  1.00  0.00    -0.349 OA
HETATM   26  C7  UNL     1      -2.656  -2.748   6.726  1.00  0.00     0.288 C 
HETATM   27  C8  UNL     1      -1.384  -3.488   6.286  1.00  0.00     0.204 C 
HETATM   28  C9  UNL     1      -1.876  -4.808   5.735  1.00  0.00     0.183 C 
HETATM   29  C10 UNL     1      -2.974  -4.681   4.753  1.00  0.00     0.180 C 
BRANCH  26  30
HETATM   30  O3  UNL     1      -2.320  -1.574   7.401  1.00  0.00    -0.369 OA
ATOM     31  H3  UNL     1      -1.383  -1.548   7.556  1.00  0.00     0.212 HD
ENDBRANCH  26  30
BRANCH  27  32
HETATM   32  O4  UNL     1      -0.862  -2.764   5.227  1.00  0.00    -0.388 OA
ATOM     33  H4  UNL     1      -0.158  -3.290   4.868  1.00  0.00     0.210 HD
ENDBRANCH  27  32
BRANCH  28  34
HETATM   34  O5  UNL     1      -2.225  -5.593   6.843  1.00  0.00    -0.390 OA
ATOM     35  H5  UNL     1      -2.671  -6.358   6.499  1.00  0.00     0.210 HD
ENDBRANCH  28  34
BRANCH  29  36
HETATM   36  O6  UNL     1      -2.387  -4.645   3.465  1.00  0.00    -0.390 OA
ATOM     37  H6  UNL     1      -1.730  -5.330   3.410  1.00  0.00     0.210 HD
ENDBRANCH  29  36
ENDBRANCH  23  24
ENDBRANCH  22  23
ENDBRANCH  19  22
ENDBRANCH  14  15
ENDBRANCH  12  14
ENDBRANCH   7   8
ENDBRANCH   1   7
TORSDOF 11
ENDMDL
MODEL 4
REMARK VINA RESULT: -8.329166355      3.843      9.477
REMARK  11 active torsions:
REMARK  status: ('A' for Active; 'I' for Inactive)
REMARK    1  A    between atoms: C4_4  and  O1_5 
REMARK    2  A    between atoms: O1_5  and  C5_6 
REMARK    3  A    between atoms: C5_6  and  C6_7 
REMARK    4  A    between atoms: C7_9  and  O3_10 
REMARK    5  A    between atoms: C8_12  and  O4_13 
REMARK    6  A    between atoms: C9_15  and  O5_16 
REMARK    7  A    between atoms: C10_18  and  O6_19 
REMARK    8  A    between atoms: C12_23  and  O8_24 
REMARK    9  A    between atoms: O8_24  and  C13_25 
REMARK   10  A    between atoms: C17_29  and  C18_30 
REMARK   11  A    between atoms: C18_30  and  C19_31 
REMARK       I    between atoms: C19_31  and  N1_33 
ROOT
HETATM    1  C19 UNL     1      -0.860  -3.504   6.187  1.00  0.00     0.233 C 
HETATM    2  O9  UNL     1       0.372  -3.725   6.232  1.00  0.00    -0.272 OA
HETATM    3  N1  UNL     1      -1.339  -2.309   6.783  1.00  0.00    -0.264 N 
ATOM      4  H1  UNL     1      -2.338  -2.105   6.759  1.00  0.00     0.181 HD
HETATM    5  C20 UNL     1      -0.476  -1.409   7.396  1.00  0.00     0.184 C 
HETATM    6  N2  UNL     1       0.237  -0.643   7.911  1.00  0.00    -0.172 NA
ENDROOT
BRANCH   1   7
HETATM    7  C18 UNL     1      -1.751  -4.466   5.535  1.00  0.00     0.135 C 
BRANCH   7   8
HETATM    8  C17 UNL     1      -2.577  -5.320   6.426  1.00  0.00     0.133 C 
HETATM    9  C16 UNL     1      -3.761  -5.976   5.815  1.00  0.00     0.033 C 
HETATM   10  C15 UNL     1      -4.655  -4.887   5.265  1.00  0.00     0.007 C 
HETATM   11  C14 UNL     1      -4.760  -3.753   6.249  1.00  0.00     0.061 C 
HETATM   12  C13 UNL     1      -4.111  -4.018   7.578  1.00  0.00     0.263 C 
HETATM   13  O10 UNL     1      -2.878  -4.576   7.557  1.00  0.00    -0.355 OA
BRANCH  12  14
HETATM   14  O8  UNL     1      -4.001  -2.750   8.198  1.00  0.00    -0.328 OA
BRANCH  14  15
HETATM   15  C12 UNL     1      -4.679  -2.727   9.413  1.00  0.00     0.292 C 
HETATM   16  C2  UNL     1      -4.591  -1.361   9.973  1.00  0.00    -0.032 C 
HETATM   17  C1  UNL     1      -3.483  -0.682  10.077  1.00  0.00     0.019 C 
HETATM   18  C3  UNL     1      -5.885  -0.770  10.437  1.00  0.00     0.072 C 
HETATM   19  C4  UNL     1      -6.599  -1.884  11.163  1.00  0.00     0.149 C 
HETATM   20  C11 UNL     1      -6.842  -3.056  10.185  1.00  0.00     0.203 C 
HETATM   21  O7  UNL     1      -6.035  -2.930   9.090  1.00  0.00    -0.355 OA
BRANCH  19  22
HETATM   22  O1  UNL     1      -5.778  -2.412  12.130  1.00  0.00    -0.381 OA
BRANCH  22  23
HETATM   23  C5  UNL     1      -6.144  -2.157  13.416  1.00  0.00     0.203 C 
BRANCH  23  24
HETATM   24  C6  UNL     1      -6.034  -3.356  14.313  1.00  0.00     0.179 C 
HETATM   25  O2  UNL     1      -6.662  -3.018  15.503  1.00  0.00    -0.349 OA
HETATM   26  C7  UNL     1      -8.021  -3.092  15.521  1.00  0.00     0.288 C 
HETATM   27  C8  UNL     1      -8.364  -4.588  15.455  1.00  0.00     0.204 C 
HETATM   28  C9  UNL     1      -7.943  -5.020  14.069  1.00  0.00     0.183 C 
HETATM   29  C10 UNL     1      -6.571  -4.610  13.699  1.00  0.00     0.180 C 
BRANCH  26  30
HETATM   30  O3  UNL     1      -8.510  -2.537  16.704  1.00  0.00    -0.369 OA
ATOM     31  H3  UNL     1      -8.335  -3.124  17.431  1.00  0.00     0.212 HD
ENDBRANCH  26  30
BRANCH  27  32
HETATM   32  O4  UNL     1      -7.523  -5.216  16.360  1.00  0.00    -0.388 OA
ATOM     33  H4  UNL     1      -6.817  -5.591  15.848  1.00  0.00     0.210 HD
ENDBRANCH  27  32
BRANCH  28  34
HETATM   34  O5  UNL     1      -8.915  -4.525  13.189  1.00  0.00    -0.390 OA
ATOM     35  H5  UNL     1      -9.613  -5.168  13.171  1.00  0.00     0.210 HD
ENDBRANCH  28  34
BRANCH  29  36
HETATM   36  O6  UNL     1      -5.707  -5.683  14.026  1.00  0.00    -0.390 OA
ATOM     37  H6  UNL     1      -4.911  -5.602  13.513  1.00  0.00     0.210 HD
ENDBRANCH  29  36
ENDBRANCH  23  24
ENDBRANCH  22  23
ENDBRANCH  19  22
ENDBRANCH  14  15
ENDBRANCH  12  14
ENDBRANCH   7   8
ENDBRANCH   1   7
TORSDOF 11
ENDMDL
MODEL 5
REMARK VINA RESULT: -8.306084513      1.702      2.393
REMARK  11 active torsions:
REMARK  status: ('A' for Active; 'I' for Inactive)
REMARK    1  A    between atoms: C4_4  and  O1_5 
REMARK    2  A    between atoms: O1_5  and  C5_6 
REMARK    3  A    between atoms: C5_6  and  C6_7 
REMARK    4  A    between atoms: C7_9  and  O3_10 
REMARK    5  A    between atoms: C8_12  and  O4_13 
REMARK    6  A    between atoms: C9_15  and  O5_16 
REMARK    7  A    between atoms: C10_18  and  O6_19 
REMARK    8  A    between atoms: C12_23  and  O8_24 
REMARK    9  A    between atoms: O8_24  and  C13_25 
REMARK   10  A    between atoms: C17_29  and  C18_30 
REMARK   11  A    between atoms: C18_30  and  C19_31 
REMARK       I    between atoms: C19_31  and  N1_33 
ROOT
HETATM    1  C19 UNL     1     -10.246  -5.007  15.185  1.00  0.00     0.233 C 
HETATM    2  O9  UNL     1     -10.983  -4.917  16.193  1.00  0.00    -0.272 OA
HETATM    3  N1  UNL     1     -10.671  -5.853  14.128  1.00  0.00    -0.264 N 
ATOM      4  H1  UNL     1     -10.089  -5.943  13.296  1.00  0.00     0.181 HD
HETATM    5  C20 UNL     1     -11.864  -6.560  14.203  1.00  0.00     0.184 C 
HETATM    6  N2  UNL     1     -12.867  -7.157  14.250  1.00  0.00    -0.172 NA
ENDROOT
BRANCH   1   7
HETATM    7  C18 UNL     1      -8.992  -4.252  15.127  1.00  0.00     0.135 C 
BRANCH   7   8
HETATM    8  C17 UNL     1      -7.807  -4.969  14.590  1.00  0.00     0.133 C 
HETATM    9  C16 UNL     1      -6.531  -4.799  15.331  1.00  0.00     0.033 C 
HETATM   10  C15 UNL     1      -6.205  -3.322  15.351  1.00  0.00     0.007 C 
HETATM   11  C14 UNL     1      -6.456  -2.715  13.997  1.00  0.00     0.061 C 
HETATM   12  C13 UNL     1      -6.804  -3.707  12.923  1.00  0.00     0.263 C 
HETATM   13  O10 UNL     1      -7.709  -4.662  13.241  1.00  0.00    -0.355 OA
BRANCH  12  14
HETATM   14  O8  UNL     1      -7.342  -2.936  11.865  1.00  0.00    -0.328 OA
BRANCH  14  15
HETATM   15  C12 UNL     1      -6.533  -3.004  10.735  1.00  0.00     0.292 C 
HETATM   16  C2  UNL     1      -5.781  -1.735  10.619  1.00  0.00    -0.032 C 
HETATM   17  C1  UNL     1      -6.325  -0.553  10.698  1.00  0.00     0.019 C 
HETATM   18  C3  UNL     1      -4.308  -1.877  10.396  1.00  0.00     0.072 C 
HETATM   19  C4  UNL     1      -4.159  -2.985   9.382  1.00  0.00     0.149 C 
HETATM   20  C11 UNL     1      -4.762  -4.286   9.959  1.00  0.00     0.203 C 
HETATM   21  O7  UNL     1      -5.577  -3.999  11.017  1.00  0.00    -0.355 OA
BRANCH  19  22
HETATM   22  O1  UNL     1      -4.929  -2.713   8.278  1.00  0.00    -0.381 OA
BRANCH  22  23
HETATM   23  C5  UNL     1      -4.671  -3.473   7.179  1.00  0.00     0.203 C 
BRANCH  23  24
HETATM   24  C6  UNL     1      -5.890  -3.742   6.343  1.00  0.00     0.179 C 
HETATM   25  O2  UNL     1      -5.509  -4.660   5.375  1.00  0.00    -0.349 OA
HETATM   26  C7  UNL     1      -5.448  -5.964   5.759  1.00  0.00     0.288 C 
HETATM   27  C8  UNL     1      -6.901  -6.407   5.988  1.00  0.00     0.204 C 
HETATM   28  C9  UNL     1      -7.350  -5.636   7.209  1.00  0.00     0.183 C 
HETATM   29  C10 UNL     1      -7.074  -4.185   7.143  1.00  0.00     0.180 C 
BRANCH  26  30
HETATM   30  O3  UNL     1      -4.866  -6.729   4.746  1.00  0.00    -0.369 OA
ATOM     31  H3  UNL     1      -4.578  -7.563   5.098  1.00  0.00     0.212 HD
ENDBRANCH  26  30
BRANCH  27  32
HETATM   32  O4  UNL     1      -7.624  -5.932   4.906  1.00  0.00    -0.388 OA
ATOM     33  H4  UNL     1      -7.545  -4.986   4.930  1.00  0.00     0.210 HD
ENDBRANCH  27  32
BRANCH  28  34
HETATM   34  O5  UNL     1      -6.747  -6.255   8.312  1.00  0.00    -0.390 OA
ATOM     35  H5  UNL     1      -7.452  -6.516   8.892  1.00  0.00     0.210 HD
ENDBRANCH  28  34
BRANCH  29  36
HETATM   36  O6  UNL     1      -8.233  -3.557   6.626  1.00  0.00    -0.390 OA
ATOM     37  H6  UNL     1      -8.175  -2.624   6.794  1.00  0.00     0.210 HD
ENDBRANCH  29  36
ENDBRANCH  23  24
ENDBRANCH  22  23
ENDBRANCH  19  22
ENDBRANCH  14  15
ENDBRANCH  12  14
ENDBRANCH   7   8
ENDBRANCH   1   7
TORSDOF 11
ENDMDL
