MODEL 1
REMARK VINA RESULT: -6.214600560      0.000      0.000
REMARK  5 active torsions:
REMARK  status: ('A' for Active; 'I' for Inactive)
REMARK    1  A    between atoms: C2_2  and  C3_3 
REMARK    2  A    between atoms: C3_3  and  C4_4 
REMARK    3  A    between atoms: C5_5  and  O1_6 
REMARK    4  A    between atoms: C6_8  and  C7_9 
REMARK    5  A    between atoms: C10_14  and  O2_15 
ROOT
HETATM    1  C4  UNL     1      21.252  43.274   8.283  1.00  0.00     0.004 A 
HETATM    2  C5  UNL     1      21.332  43.305   6.890  1.00  0.00     0.084 A 
HETATM    3  C6  UNL     1      21.700  42.194   6.134  1.00  0.00     0.003 A 
HETATM    4  C9  UNL     1      22.000  41.015   6.762  1.00  0.00     0.052 A 
HETATM    5  C10 UNL     1      21.926  40.968   8.133  1.00  0.00     0.088 A 
HETATM    6  C11 UNL     1      21.558  42.082   8.884  1.00  0.00     0.076 A 
HETATM    7 CL3  UNL     1      21.510  41.888  10.634  1.00  0.00    -0.081 Cl
ENDROOT
BRANCH   3   8
HETATM    8  C7  UNL     1      21.781  42.258   4.680  1.00  0.00     0.050 C 
HETATM    9  C8  UNL     1      20.868  41.837   3.844  1.00  0.00     0.104 C 
HETATM   10 CL1  UNL     1      21.080  41.961   2.114  1.00  0.00    -0.071 Cl
HETATM   11 CL2  UNL     1      19.387  41.159   4.472  1.00  0.00    -0.071 Cl
ENDBRANCH   3   8
BRANCH   2  12
HETATM   12  O1  UNL     1      21.053  44.443   6.203  1.00  0.00    -0.359 OA
ATOM     13  H1  UNL     1      21.669  44.791   5.570  1.00  0.00     0.217 HD
ENDBRANCH   2  12
BRANCH   1  14
HETATM   14  C3  UNL     1      20.828  44.472   9.014  1.00  0.00     0.069 C 
BRANCH  14  15
HETATM   15  C2  UNL     1      21.866  45.434   9.384  1.00  0.00    -0.032 C 
HETATM   16  C1  UNL     1      22.654  45.157  10.440  1.00  0.00     0.007 C 
ENDBRANCH  14  15
ENDBRANCH   1  14
BRANCH   5  17
HETATM   17  O2  UNL     1      22.228  39.778   8.792  1.00  0.00    -0.359 OA
ATOM     18  H2  UNL     1      22.914  39.772   9.449  1.00  0.00     0.217 HD
ENDBRANCH   5  17
TORSDOF 5
ENDMDL
MODEL 2
REMARK VINA RESULT: -6.201486182      1.897      3.478
REMARK  5 active torsions:
REMARK  status: ('A' for Active; 'I' for Inactive)
REMARK    1  A    between atoms: C2_2  and  C3_3 
REMARK    2  A    between atoms: C3_3  and  C4_4 
REMARK    3  A    between atoms: C5_5  and  O1_6 
REMARK    4  A    between atoms: C6_8  and  C7_9 
REMARK    5  A    between atoms: C10_14  and  O2_15 
ROOT
HETATM    1  C4  UNL     1      21.919  42.037   8.287  1.00  0.00     0.004 A 
HETATM    2  C5  UNL     1      21.838  42.004   6.894  1.00  0.00     0.084 A 
HETATM    3  C6  UNL     1      21.475  43.114   6.136  1.00  0.00     0.003 A 
HETATM    4  C9  UNL     1      21.181  44.296   6.762  1.00  0.00     0.052 A 
HETATM    5  C10 UNL     1      21.255  44.345   8.133  1.00  0.00     0.088 A 
HETATM    6  C11 UNL     1      21.619  43.231   8.886  1.00  0.00     0.076 A 
HETATM    7 CL3  UNL     1      21.669  43.429  10.636  1.00  0.00    -0.081 Cl
ENDROOT
BRANCH   3   8
HETATM    8  C7  UNL     1      21.392  43.048   4.682  1.00  0.00     0.050 C 
HETATM    9  C8  UNL     1      22.304  43.468   3.845  1.00  0.00     0.104 C 
HETATM   10 CL1  UNL     1      22.090  43.341   2.115  1.00  0.00    -0.071 Cl
HETATM   11 CL2  UNL     1      23.785  44.148   4.470  1.00  0.00    -0.071 Cl
ENDBRANCH   3   8
BRANCH   2  12
HETATM   12  O1  UNL     1      22.111  40.863   6.209  1.00  0.00    -0.359 OA
ATOM     13  H1  UNL     1      22.893  40.793   5.674  1.00  0.00     0.217 HD
ENDBRANCH   2  12
BRANCH   1  14
HETATM   14  C3  UNL     1      22.337  40.838   9.020  1.00  0.00     0.069 C 
BRANCH  14  15
HETATM   15  C2  UNL     1      21.296  39.880   9.388  1.00  0.00    -0.032 C 
HETATM   16  C1  UNL     1      20.513  40.155  10.449  1.00  0.00     0.007 C 
ENDBRANCH  14  15
ENDBRANCH   1  14
BRANCH   5  17
HETATM   17  O2  UNL     1      20.960  45.538   8.789  1.00  0.00    -0.359 OA
ATOM     18  H2  UNL     1      20.397  45.520   9.554  1.00  0.00     0.217 HD
ENDBRANCH   5  17
TORSDOF 5
ENDMDL
MODEL 3
REMARK VINA RESULT: -5.987761971      1.344      1.583
REMARK  5 active torsions:
REMARK  status: ('A' for Active; 'I' for Inactive)
REMARK    1  A    between atoms: C2_2  and  C3_3 
REMARK    2  A    between atoms: C3_3  and  C4_4 
REMARK    3  A    between atoms: C5_5  and  O1_6 
REMARK    4  A    between atoms: C6_8  and  C7_9 
REMARK    5  A    between atoms: C10_14  and  O2_15 
ROOT
HETATM    1  C4  UNL     1      21.323  43.300   8.049  1.00  0.00     0.004 A 
HETATM    2  C5  UNL     1      21.276  43.456   6.663  1.00  0.00     0.084 A 
HETATM    3  C6  UNL     1      21.691  42.460   5.781  1.00  0.00     0.003 A 
HETATM    4  C9  UNL     1      22.167  41.274   6.272  1.00  0.00     0.052 A 
HETATM    5  C10 UNL     1      22.221  41.106   7.635  1.00  0.00     0.088 A 
HETATM    6  C11 UNL     1      21.805  42.105   8.512  1.00  0.00     0.076 A 
HETATM    7 CL3  UNL     1      21.933  41.762  10.235  1.00  0.00    -0.081 Cl
ENDROOT
BRANCH   3   8
HETATM    8  C7  UNL     1      21.636  42.653   4.337  1.00  0.00     0.050 C 
HETATM    9  C8  UNL     1      22.488  43.346   3.626  1.00  0.00     0.104 C 
HETATM   10 CL1  UNL     1      22.317  43.513   1.896  1.00  0.00    -0.071 Cl
HETATM   11 CL2  UNL     1      23.847  44.098   4.422  1.00  0.00    -0.071 Cl
ENDBRANCH   3   8
BRANCH   2  12
HETATM   12  O1  UNL     1      20.820  44.608   6.108  1.00  0.00    -0.359 OA
ATOM     13  H1  UNL     1      21.291  45.023   5.395  1.00  0.00     0.217 HD
ENDBRANCH   2  12
BRANCH   1  14
HETATM   14  C3  UNL     1      20.843  44.379   8.918  1.00  0.00     0.069 C 
BRANCH  14  15
HETATM   15  C2  UNL     1      21.806  45.410   9.303  1.00  0.00    -0.032 C 
HETATM   16  C1  UNL     1      22.580  45.197  10.384  1.00  0.00     0.007 C 
ENDBRANCH  14  15
ENDBRANCH   1  14
BRANCH   5  17
HETATM   17  O2  UNL     1      22.703  39.907   8.155  1.00  0.00    -0.359 OA
ATOM     18  H2  UNL     1      22.421  39.628   9.018  1.00  0.00     0.217 HD
ENDBRANCH   5  17
TORSDOF 5
ENDMDL
MODEL 4
REMARK VINA RESULT: -5.970240955      1.514      3.142
REMARK  5 active torsions:
REMARK  status: ('A' for Active; 'I' for Inactive)
REMARK    1  A    between atoms: C2_2  and  C3_3 
REMARK    2  A    between atoms: C3_3  and  C4_4 
REMARK    3  A    between atoms: C5_5  and  O1_6 
REMARK    4  A    between atoms: C6_8  and  C7_9 
REMARK    5  A    between atoms: C10_14  and  O2_15 
ROOT
HETATM    1  C4  UNL     1      21.854  42.020   8.078  1.00  0.00     0.004 A 
HETATM    2  C5  UNL     1      21.900  41.855   6.694  1.00  0.00     0.084 A 
HETATM    3  C6  UNL     1      21.489  42.846   5.805  1.00  0.00     0.003 A 
HETATM    4  C9  UNL     1      21.018  44.038   6.288  1.00  0.00     0.052 A 
HETATM    5  C10 UNL     1      20.966  44.215   7.650  1.00  0.00     0.088 A 
HETATM    6  C11 UNL     1      21.378  43.221   8.534  1.00  0.00     0.076 A 
HETATM    7 CL3  UNL     1      21.252  43.576  10.254  1.00  0.00    -0.081 Cl
ENDROOT
BRANCH   3   8
HETATM    8  C7  UNL     1      21.542  42.643   4.363  1.00  0.00     0.050 C 
HETATM    9  C8  UNL     1      20.681  41.959   3.655  1.00  0.00     0.104 C 
HETATM   10 CL1  UNL     1      20.852  41.778   1.926  1.00  0.00    -0.071 Cl
HETATM   11 CL2  UNL     1      19.310  41.231   4.454  1.00  0.00    -0.071 Cl
ENDBRANCH   3   8
BRANCH   2  12
HETATM   12  O1  UNL     1      22.351  40.697   6.146  1.00  0.00    -0.359 OA
ATOM     13  H1  UNL     1      22.074  40.430   5.277  1.00  0.00     0.217 HD
ENDBRANCH   2  12
BRANCH   1  14
HETATM   14  C3  UNL     1      22.331  40.946   8.955  1.00  0.00     0.069 C 
BRANCH  14  15
HETATM   15  C2  UNL     1      21.366  39.915   9.338  1.00  0.00    -0.032 C 
HETATM   16  C1  UNL     1      20.581  40.134  10.409  1.00  0.00     0.007 C 
ENDBRANCH  14  15
ENDBRANCH   1  14
BRANCH   5  17
HETATM   17  O2  UNL     1      20.489  45.420   8.162  1.00  0.00    -0.359 OA
ATOM     18  H2  UNL     1      20.111  46.059   7.570  1.00  0.00     0.217 HD
ENDBRANCH   5  17
TORSDOF 5
ENDMDL
MODEL 5
REMARK VINA RESULT: -5.883773641      3.482      5.644
REMARK  5 active torsions:
REMARK  status: ('A' for Active; 'I' for Inactive)
REMARK    1  A    between atoms: C2_2  and  C3_3 
REMARK    2  A    between atoms: C3_3  and  C4_4 
REMARK    3  A    between atoms: C5_5  and  O1_6 
REMARK    4  A    between atoms: C6_8  and  C7_9 
REMARK    5  A    between atoms: C10_14  and  O2_15 
ROOT
HETATM    1  C4  UNL     1      21.116  42.003   3.660  1.00  0.00     0.004 A 
HETATM    2  C5  UNL     1      21.670  42.697   2.584  1.00  0.00     0.084 A 
HETATM    3  C6  UNL     1      22.561  43.755   2.751  1.00  0.00     0.003 A 
HETATM    4  C9  UNL     1      22.920  44.147   4.012  1.00  0.00     0.052 A 
HETATM    5  C10 UNL     1      22.382  43.474   5.083  1.00  0.00     0.088 A 
HETATM    6  C11 UNL     1      21.492  42.416   4.910  1.00  0.00     0.076 A 
HETATM    7 CL3  UNL     1      20.873  41.645   6.367  1.00  0.00    -0.081 Cl
ENDROOT
BRANCH   3   8
HETATM    8  C7  UNL     1      23.119  44.466   1.607  1.00  0.00     0.050 C 
HETATM    9  C8  UNL     1      24.389  44.562   1.312  1.00  0.00     0.104 C 
HETATM   10 CL1  UNL     1      24.942  45.449  -0.087  1.00  0.00    -0.071 Cl
HETATM   11 CL2  UNL     1      25.561  43.757   2.325  1.00  0.00    -0.071 Cl
ENDBRANCH   3   8
BRANCH   2  12
HETATM   12  O1  UNL     1      21.354  42.365   1.305  1.00  0.00    -0.359 OA
ATOM     13  H1  UNL     1      21.117  43.034   0.674  1.00  0.00     0.217 HD
ENDBRANCH   2  12
BRANCH   1  14
HETATM   14  C3  UNL     1      20.208  40.879   3.410  1.00  0.00     0.069 C 
BRANCH  14  15
HETATM   15  C2  UNL     1      18.773  41.149   3.480  1.00  0.00    -0.032 C 
HETATM   16  C1  UNL     1      18.077  41.234   2.330  1.00  0.00     0.007 C 
ENDBRANCH  14  15
ENDBRANCH   1  14
BRANCH   5  17
HETATM   17  O2  UNL     1      22.734  43.857   6.375  1.00  0.00    -0.359 OA
ATOM     18  H2  UNL     1      22.457  43.323   7.110  1.00  0.00     0.217 HD
ENDBRANCH   5  17
TORSDOF 5
ENDMDL
