MODEL 1
REMARK VINA RESULT: -7.135498659      0.000      0.000
REMARK  3 active torsions:
REMARK  status: ('A' for Active; 'I' for Inactive)
REMARK    1  A    between atoms: C7_9  and  C8_10 
REMARK    2  A    between atoms: C8_10  and  C9_11 
REMARK    3  A    between atoms: C9_11  and  C10_12 
ROOT
HETATM    1  C8  UNL     1      22.161  42.014   7.238  1.00  0.00     0.018 C 
ENDROOT
BRANCH   1   2
HETATM    2  C7  UNL     1      21.981  43.054   8.304  1.00  0.00     0.058 C 
HETATM    3  C1  UNL     1      21.382  42.532   9.567  1.00  0.00     0.247 C 
HETATM    4  F1  UNL     1      19.990  42.467   9.422  1.00  0.00    -0.206 F 
HETATM    5  F2  UNL     1      21.872  41.229   9.745  1.00  0.00    -0.206 F 
HETATM    6  C2  UNL     1      21.665  43.336  10.779  1.00  0.00     0.079 C 
HETATM    7  C3  UNL     1      22.679  44.424  10.593  1.00  0.00     0.006 C 
HETATM    8  C4  UNL     1      22.286  45.488   9.638  1.00  0.00     0.000 C 
HETATM    9  C5  UNL     1      21.026  45.243   8.887  1.00  0.00     0.001 C 
HETATM   10  C6  UNL     1      21.183  44.217   7.784  1.00  0.00     0.010 C 
ENDBRANCH   1   2
BRANCH   1  11
HETATM   11  C9  UNL     1      20.967  41.867   6.346  1.00  0.00     0.078 C 
BRANCH  11  12
HETATM   12  C10 UNL     1      21.392  42.300   4.970  1.00  0.00     0.098 A 
HETATM   13  N1  UNL     1      20.845  41.910   3.797  1.00  0.00    -0.287 N 
HETATM   14  N2  UNL     1      21.486  42.502   2.791  1.00  0.00    -0.275 N 
ATOM     15  H1  UNL     1      20.063  41.263   3.698  1.00  0.00     0.188 HD
HETATM   16  C11 UNL     1      22.456  43.281   3.300  1.00  0.00     0.192 A 
ATOM     17  H2  UNL     1      21.275  42.383   1.801  1.00  0.00     0.189 HD
HETATM   18  S1  UNL     1      23.508  44.207   2.436  1.00  0.00    -0.039 SA
HETATM   19  N3  UNL     1      22.382  43.145   4.633  1.00  0.00    -0.321 N 
ATOM     20  H3  UNL     1      22.994  43.617   5.298  1.00  0.00     0.169 HD
ENDBRANCH  11  12
ENDBRANCH   1  11
TORSDOF 3
ENDMDL
MODEL 2
REMARK VINA RESULT: -7.100135883      2.093      2.367
REMARK  3 active torsions:
REMARK  status: ('A' for Active; 'I' for Inactive)
REMARK    1  A    between atoms: C7_9  and  C8_10 
REMARK    2  A    between atoms: C8_10  and  C9_11 
REMARK    3  A    between atoms: C9_11  and  C10_12 
ROOT
HETATM    1  C8  UNL     1      21.469  41.920   6.382  1.00  0.00     0.018 C 
ENDROOT
BRANCH   1   2
HETATM    2  C7  UNL     1      21.490  42.767   7.621  1.00  0.00     0.058 C 
HETATM    3  C1  UNL     1      20.725  42.190   8.764  1.00  0.00     0.247 C 
HETATM    4  F1  UNL     1      19.365  42.491   8.605  1.00  0.00    -0.206 F 
HETATM    5  F2  UNL     1      20.882  40.797   8.701  1.00  0.00    -0.206 F 
HETATM    6  C2  UNL     1      21.133  42.673  10.104  1.00  0.00     0.079 C 
HETATM    7  C3  UNL     1      22.384  43.497  10.125  1.00  0.00     0.006 C 
HETATM    8  C4  UNL     1      22.301  44.778   9.380  1.00  0.00     0.000 C 
HETATM    9  C5  UNL     1      21.057  44.982   8.592  1.00  0.00     0.001 C 
HETATM   10  C6  UNL     1      21.018  44.161   7.320  1.00  0.00     0.010 C 
ENDBRANCH   1   2
BRANCH   1  11
HETATM   11  C9  UNL     1      21.321  42.717   5.122  1.00  0.00     0.078 C 
BRANCH  11  12
HETATM   12  C10 UNL     1      20.568  41.856   4.146  1.00  0.00     0.098 A 
HETATM   13  N1  UNL     1      20.937  40.635   3.697  1.00  0.00    -0.287 N 
HETATM   14  N2  UNL     1      20.020  40.182   2.844  1.00  0.00    -0.275 N 
ATOM     15  H1  UNL     1      21.785  40.139   3.968  1.00  0.00     0.188 HD
HETATM   16  C11 UNL     1      19.049  41.103   2.729  1.00  0.00     0.192 A 
ATOM     17  H2  UNL     1      20.051  39.286   2.359  1.00  0.00     0.189 HD
HETATM   18  S1  UNL     1      17.704  40.982   1.785  1.00  0.00    -0.039 SA
HETATM   19  N3  UNL     1      19.400  42.118   3.532  1.00  0.00    -0.321 N 
ATOM     20  H3  UNL     1      18.857  42.972   3.660  1.00  0.00     0.169 HD
ENDBRANCH  11  12
ENDBRANCH   1  11
TORSDOF 3
ENDMDL
MODEL 3
REMARK VINA RESULT: -7.098205195      1.987      2.914
REMARK  3 active torsions:
REMARK  status: ('A' for Active; 'I' for Inactive)
REMARK    1  A    between atoms: C7_9  and  C8_10 
REMARK    2  A    between atoms: C8_10  and  C9_11 
REMARK    3  A    between atoms: C9_11  and  C10_12 
ROOT
HETATM    1  C8  UNL     1      21.690  43.375   6.371  1.00  0.00     0.018 C 
ENDROOT
BRANCH   1   2
HETATM    2  C7  UNL     1      21.682  42.544   7.621  1.00  0.00     0.058 C 
HETATM    3  C1  UNL     1      22.452  43.141   8.751  1.00  0.00     0.247 C 
HETATM    4  F1  UNL     1      23.813  42.845   8.585  1.00  0.00    -0.206 F 
HETATM    5  F2  UNL     1      22.287  44.532   8.670  1.00  0.00    -0.206 F 
HETATM    6  C2  UNL     1      22.057  42.673  10.100  1.00  0.00     0.079 C 
HETATM    7  C3  UNL     1      20.811  41.841  10.141  1.00  0.00     0.006 C 
HETATM    8  C4  UNL     1      20.896  40.552   9.412  1.00  0.00     0.000 C 
HETATM    9  C5  UNL     1      22.136  40.345   8.618  1.00  0.00     0.001 C 
HETATM   10  C6  UNL     1      22.161  41.149   7.335  1.00  0.00     0.010 C 
ENDBRANCH   1   2
BRANCH   1  11
HETATM   11  C9  UNL     1      21.889  42.569   5.124  1.00  0.00     0.078 C 
BRANCH  11  12
HETATM   12  C10 UNL     1      22.632  43.442   4.152  1.00  0.00     0.098 A 
HETATM   13  N1  UNL     1      22.254  44.665   3.716  1.00  0.00    -0.287 N 
HETATM   14  N2  UNL     1      23.164  45.131   2.862  1.00  0.00    -0.275 N 
ATOM     15  H1  UNL     1      21.405  45.154   3.996  1.00  0.00     0.188 HD
HETATM   16  C11 UNL     1      24.140  44.216   2.734  1.00  0.00     0.192 A 
ATOM     17  H2  UNL     1      23.126  46.031   2.385  1.00  0.00     0.189 HD
HETATM   18  S1  UNL     1      25.479  44.353   1.784  1.00  0.00    -0.039 SA
HETATM   19  N3  UNL     1      23.798  43.192   3.530  1.00  0.00    -0.321 N 
ATOM     20  H3  UNL     1      24.346  42.340   3.648  1.00  0.00     0.169 HD
ENDBRANCH  11  12
ENDBRANCH   1  11
TORSDOF 3
ENDMDL
MODEL 4
REMARK VINA RESULT: -7.095482831      2.010      3.049
REMARK  3 active torsions:
REMARK  status: ('A' for Active; 'I' for Inactive)
REMARK    1  A    between atoms: C7_9  and  C8_10 
REMARK    2  A    between atoms: C8_10  and  C9_11 
REMARK    3  A    between atoms: C9_11  and  C10_12 
ROOT
HETATM    1  C8  UNL     1      21.109  43.335   7.022  1.00  0.00     0.018 C 
ENDROOT
BRANCH   1   2
HETATM    2  C7  UNL     1      21.286  42.318   8.110  1.00  0.00     0.058 C 
HETATM    3  C1  UNL     1      21.875  42.868   9.365  1.00  0.00     0.247 C 
HETATM    4  F1  UNL     1      23.269  42.934   9.227  1.00  0.00    -0.206 F 
HETATM    5  F2  UNL     1      21.381  44.173   9.512  1.00  0.00    -0.206 F 
HETATM    6  C2  UNL     1      21.588  42.089  10.592  1.00  0.00     0.079 C 
HETATM    7  C3  UNL     1      20.578  40.995  10.424  1.00  0.00     0.006 C 
HETATM    8  C4  UNL     1      20.979  39.912   9.493  1.00  0.00     0.000 C 
HETATM    9  C5  UNL     1      22.243  40.145   8.745  1.00  0.00     0.001 C 
HETATM   10  C6  UNL     1      22.089  41.147   7.620  1.00  0.00     0.010 C 
ENDBRANCH   1   2
BRANCH   1  11
HETATM   11  C9  UNL     1      22.255  43.376   6.057  1.00  0.00     0.078 C 
BRANCH  11  12
HETATM   12  C10 UNL     1      21.727  42.908   4.730  1.00  0.00     0.098 A 
HETATM   13  N1  UNL     1      22.242  43.191   3.512  1.00  0.00    -0.287 N 
HETATM   14  N2  UNL     1      21.506  42.601   2.572  1.00  0.00    -0.275 N 
ATOM     15  H1  UNL     1      23.066  43.767   3.340  1.00  0.00     0.188 HD
HETATM   16  C11 UNL     1      20.505  41.931   3.169  1.00  0.00     0.192 A 
ATOM     17  H2  UNL     1      21.674  42.650   1.568  1.00  0.00     0.189 HD
HETATM   18  S1  UNL     1      19.341  41.048   2.408  1.00  0.00    -0.039 SA
HETATM   19  N3  UNL     1      20.657  42.129   4.487  1.00  0.00    -0.321 N 
ATOM     20  H3  UNL     1      20.046  41.743   5.206  1.00  0.00     0.169 HD
ENDBRANCH  11  12
ENDBRANCH   1  11
TORSDOF 3
ENDMDL
MODEL 5
REMARK VINA RESULT: -6.907577813      1.758      1.977
REMARK  3 active torsions:
REMARK  status: ('A' for Active; 'I' for Inactive)
REMARK    1  A    between atoms: C7_9  and  C8_10 
REMARK    2  A    between atoms: C8_10  and  C9_11 
REMARK    3  A    between atoms: C9_11  and  C10_12 
ROOT
HETATM    1  C8  UNL     1      21.766  42.236   6.602  1.00  0.00     0.018 C 
ENDROOT
BRANCH   1   2
HETATM    2  C7  UNL     1      21.687  42.937   7.926  1.00  0.00     0.058 C 
HETATM    3  C1  UNL     1      20.775  42.280   8.907  1.00  0.00     0.247 C 
HETATM    4  F1  UNL     1      19.456  42.673   8.641  1.00  0.00    -0.206 F 
HETATM    5  F2  UNL     1      20.877  40.896   8.698  1.00  0.00    -0.206 F 
HETATM    6  C2  UNL     1      21.052  42.587  10.329  1.00  0.00     0.079 C 
HETATM    7  C3  UNL     1      22.328  43.332  10.578  1.00  0.00     0.006 C 
HETATM    8  C4  UNL     1      22.385  44.690   9.984  1.00  0.00     0.000 C 
HETATM    9  C5  UNL     1      21.245  45.051   9.099  1.00  0.00     0.001 C 
HETATM   10  C6  UNL     1      21.312  44.380   7.742  1.00  0.00     0.010 C 
ENDBRANCH   1   2
BRANCH   1  11
HETATM   11  C9  UNL     1      22.096  43.153   5.464  1.00  0.00     0.078 C 
BRANCH  11  12
HETATM   12  C10 UNL     1      21.399  42.610   4.247  1.00  0.00     0.098 A 
HETATM   13  N1  UNL     1      21.859  42.637   2.976  1.00  0.00    -0.287 N 
HETATM   14  N2  UNL     1      20.968  42.063   2.171  1.00  0.00    -0.275 N 
ATOM     15  H1  UNL     1      22.750  43.035   2.680  1.00  0.00     0.188 HD
HETATM   16  C11 UNL     1      19.920  41.660   2.909  1.00  0.00     0.192 A 
ATOM     17  H2  UNL     1      21.064  41.949   1.162  1.00  0.00     0.189 HD
HETATM   18  S1  UNL     1      18.573  40.898   2.346  1.00  0.00    -0.039 SA
HETATM   19  N3  UNL     1      20.202  42.002   4.175  1.00  0.00    -0.321 N 
ATOM     20  H3  UNL     1      19.593  41.826   4.973  1.00  0.00     0.169 HD
ENDBRANCH  11  12
ENDBRANCH   1  11
TORSDOF 3
ENDMDL
