MODEL 1
REMARK VINA RESULT: -6.366389660      0.000      0.000
REMARK  11 active torsions:
REMARK  status: ('A' for Active; 'I' for Inactive)
REMARK       I    between atoms: N1_2  and  C2_4 
REMARK    1  A    between atoms: C2_4  and  C3_6 
REMARK    2  A    between atoms: C3_6  and  N2_7 
REMARK    3  A    between atoms: C3_6  and  C17_25 
REMARK    4  A    between atoms: N2_7  and  C4_9 
REMARK    5  A    between atoms: C4_9  and  C5_10 
REMARK    6  A    between atoms: C4_9  and  N3_22 
REMARK    7  A    between atoms: C5_10  and  C6_11 
REMARK    8  A    between atoms: C6_11  and  C7_12 
REMARK    9  A    between atoms: C7_12  and  C8_13 
REMARK   10  A    between atoms: C8_13  and  C9_14 
REMARK   11  A    between atoms: C9_14  and  C10_15 
ROOT
HETATM    1  C4  UNL     1      42.190  19.607  36.551  1.00  0.00     0.178 C 
ENDROOT
BRANCH   1   2
HETATM    2  N2  UNL     1      41.754  20.797  37.266  1.00  0.00    -0.385 N 
ATOM      3  H2  UNL     1      42.093  20.958  38.214  1.00  0.00     0.156 HD
BRANCH   2   4
HETATM    4  C3  UNL     1      40.892  21.714  36.697  1.00  0.00     0.207 C 
BRANCH   4   5
HETATM    5  C2  UNL     1      40.780  23.076  37.264  1.00  0.00     0.244 C 
HETATM    6  N1  UNL     1      41.263  23.363  38.591  1.00  0.00    -0.363 N 
HETATM    7  C1  UNL     1      41.187  24.647  39.212  1.00  0.00     0.149 C 
ATOM      8  H1  UNL     1      41.687  22.601  39.120  1.00  0.00     0.161 HD
HETATM    9  O1  UNL     1      40.274  24.064  36.668  1.00  0.00    -0.271 OA
ENDBRANCH   4   5
BRANCH   4  10
HETATM   10  C17 UNL     1      39.488  21.157  36.729  1.00  0.00     0.007 A 
HETATM   11  C18 UNL     1      38.660  21.148  37.821  1.00  0.00     0.098 A 
HETATM   12  N4  UNL     1      37.483  20.577  37.508  1.00  0.00    -0.373 N 
HETATM   13  C19 UNL     1      37.543  20.216  36.217  1.00  0.00     0.107 A 
ATOM     14  H4  UNL     1      36.691  20.443  38.137  1.00  0.00     0.164 HD
HETATM   15  C20 UNL     1      38.786  20.564  35.697  1.00  0.00     0.036 A 
HETATM   16 BR2  UNL     1      39.459  20.319  33.951  1.00  0.00    -0.049 Br
ENDBRANCH   4  10
ENDBRANCH   2   4
ENDBRANCH   1   2
BRANCH   1  17
HETATM   17  C5  UNL     1      43.415  19.837  35.758  1.00  0.00     0.046 C 
BRANCH  17  18
HETATM   18  C6  UNL     1      43.240  19.860  34.231  1.00  0.00     0.004 C 
BRANCH  18  19
HETATM   19  C7  UNL     1      43.336  21.229  33.694  1.00  0.00     0.000 C 
BRANCH  19  20
HETATM   20  C8  UNL     1      44.000  21.395  32.400  1.00  0.00     0.000 C 
BRANCH  20  21
HETATM   21  C9  UNL     1      45.320  22.009  32.239  1.00  0.00     0.005 C 
BRANCH  21  22
HETATM   22  C10 UNL     1      45.370  23.466  31.991  1.00  0.00    -0.010 C 
HETATM   23  C11 UNL     1      46.745  23.883  31.443  1.00  0.00     0.009 C 
HETATM   24  C12 UNL     1      46.407  25.271  30.928  1.00  0.00     0.056 C 
HETATM   25  C13 UNL     1      45.005  25.099  30.326  1.00  0.00     0.160 C 
HETATM   26  F1  UNL     1      44.129  26.046  30.802  1.00  0.00    -0.231 F 
HETATM   27 BR1  UNL     1      45.092  25.296  28.388  1.00  0.00    -0.049 Br
HETATM   28  C14 UNL     1      44.558  23.715  30.670  1.00  0.00     0.060 C 
ENDBRANCH  21  22
ENDBRANCH  20  21
ENDBRANCH  19  20
ENDBRANCH  18  19
ENDBRANCH  17  18
ENDBRANCH   1  17
BRANCH   1  29
HETATM   29  N3  UNL     1      42.378  18.632  37.562  1.00  0.00    -0.383 N 
HETATM   30  C15 UNL     1      42.855  17.358  37.404  1.00  0.00     0.116 C 
HETATM   31  C16 UNL     1      41.710  18.906  38.820  1.00  0.00     0.150 C 
ENDBRANCH   1  29
TORSDOF 11
ENDMDL
MODEL 2
REMARK VINA RESULT: -6.284505018      5.450     10.163
REMARK  11 active torsions:
REMARK  status: ('A' for Active; 'I' for Inactive)
REMARK       I    between atoms: N1_2  and  C2_4 
REMARK    1  A    between atoms: C2_4  and  C3_6 
REMARK    2  A    between atoms: C3_6  and  N2_7 
REMARK    3  A    between atoms: C3_6  and  C17_25 
REMARK    4  A    between atoms: N2_7  and  C4_9 
REMARK    5  A    between atoms: C4_9  and  C5_10 
REMARK    6  A    between atoms: C4_9  and  N3_22 
REMARK    7  A    between atoms: C5_10  and  C6_11 
REMARK    8  A    between atoms: C6_11  and  C7_12 
REMARK    9  A    between atoms: C7_12  and  C8_13 
REMARK   10  A    between atoms: C8_13  and  C9_14 
REMARK   11  A    between atoms: C9_14  and  C10_15 
ROOT
HETATM    1  C4  UNL     1      38.271  20.271  36.315  1.00  0.00     0.178 C 
ENDROOT
BRANCH   1   2
HETATM    2  N2  UNL     1      38.991  21.536  36.333  1.00  0.00    -0.385 N 
ATOM      3  H2  UNL     1      38.705  22.280  35.697  1.00  0.00     0.156 HD
BRANCH   2   4
HETATM    4  C3  UNL     1      40.053  21.757  37.189  1.00  0.00     0.207 C 
BRANCH   4   5
HETATM    5  C2  UNL     1      40.474  23.139  37.505  1.00  0.00     0.244 C 
HETATM    6  N1  UNL     1      41.176  23.434  38.729  1.00  0.00    -0.363 N 
HETATM    7  C1  UNL     1      41.610  24.741  39.110  1.00  0.00     0.149 C 
ATOM      8  H1  UNL     1      41.376  22.661  39.363  1.00  0.00     0.161 HD
HETATM    9  O1  UNL     1      40.266  24.141  36.769  1.00  0.00    -0.271 OA
ENDBRANCH   4   5
BRANCH   4  10
HETATM   10  C17 UNL     1      41.286  21.088  36.628  1.00  0.00     0.007 A 
HETATM   11  C18 UNL     1      41.946  21.465  35.487  1.00  0.00     0.098 A 
HETATM   12  N4  UNL     1      43.000  20.657  35.271  1.00  0.00    -0.373 N 
HETATM   13  C19 UNL     1      43.028  19.758  36.267  1.00  0.00     0.107 A 
ATOM     14  H4  UNL     1      43.658  20.717  34.494  1.00  0.00     0.164 HD
HETATM   15  C20 UNL     1      41.966  19.999  37.136  1.00  0.00     0.036 A 
HETATM   16 BR2  UNL     1      41.484  19.078  38.711  1.00  0.00    -0.049 Br
ENDBRANCH   4  10
ENDBRANCH   2   4
ENDBRANCH   1   2
BRANCH   1  17
HETATM   17  C5  UNL     1      37.830  19.848  37.660  1.00  0.00     0.046 C 
BRANCH  17  18
HETATM   18  C6  UNL     1      37.860  18.337  37.939  1.00  0.00     0.004 C 
BRANCH  18  19
HETATM   19  C7  UNL     1      37.791  18.050  39.383  1.00  0.00     0.000 C 
BRANCH  19  20
HETATM   20  C8  UNL     1      36.588  17.377  39.875  1.00  0.00     0.000 C 
BRANCH  20  21
HETATM   21  C9  UNL     1      35.913  17.734  41.125  1.00  0.00     0.005 C 
BRANCH  21  22
HETATM   22  C10 UNL     1      34.481  18.095  41.049  1.00  0.00    -0.010 C 
HETATM   23  C11 UNL     1      34.112  18.587  39.639  1.00  0.00     0.009 C 
HETATM   24  C12 UNL     1      32.598  18.508  39.727  1.00  0.00     0.056 C 
HETATM   25  C13 UNL     1      32.350  17.221  40.528  1.00  0.00     0.160 C 
HETATM   26  F1  UNL     1      31.499  17.438  41.585  1.00  0.00    -0.231 F 
HETATM   27 BR1  UNL     1      31.533  15.877  39.376  1.00  0.00    -0.049 Br
HETATM   28  C14 UNL     1      33.688  16.741  40.989  1.00  0.00     0.060 C 
ENDBRANCH  21  22
ENDBRANCH  20  21
ENDBRANCH  19  20
ENDBRANCH  18  19
ENDBRANCH  17  18
ENDBRANCH   1  17
BRANCH   1  29
HETATM   29  N3  UNL     1      37.181  20.495  35.437  1.00  0.00    -0.383 N 
HETATM   30  C15 UNL     1      36.480  19.552  34.732  1.00  0.00     0.116 C 
HETATM   31  C16 UNL     1      37.002  21.869  35.007  1.00  0.00     0.150 C 
ENDBRANCH   1  29
TORSDOF 11
ENDMDL
MODEL 3
REMARK VINA RESULT: -6.264833481      5.339      9.765
REMARK  11 active torsions:
REMARK  status: ('A' for Active; 'I' for Inactive)
REMARK       I    between atoms: N1_2  and  C2_4 
REMARK    1  A    between atoms: C2_4  and  C3_6 
REMARK    2  A    between atoms: C3_6  and  N2_7 
REMARK    3  A    between atoms: C3_6  and  C17_25 
REMARK    4  A    between atoms: N2_7  and  C4_9 
REMARK    5  A    between atoms: C4_9  and  C5_10 
REMARK    6  A    between atoms: C4_9  and  N3_22 
REMARK    7  A    between atoms: C5_10  and  C6_11 
REMARK    8  A    between atoms: C6_11  and  C7_12 
REMARK    9  A    between atoms: C7_12  and  C8_13 
REMARK   10  A    between atoms: C8_13  and  C9_14 
REMARK   11  A    between atoms: C9_14  and  C10_15 
ROOT
HETATM    1  C4  UNL     1      38.161  20.930  35.543  1.00  0.00     0.178 C 
ENDROOT
BRANCH   1   2
HETATM    2  N2  UNL     1      39.016  22.068  35.851  1.00  0.00    -0.385 N 
ATOM      3  H2  UNL     1      38.997  22.882  35.238  1.00  0.00     0.156 HD
BRANCH   2   4
HETATM    4  C3  UNL     1      39.853  22.074  36.950  1.00  0.00     0.207 C 
BRANCH   4   5
HETATM    5  C2  UNL     1      40.392  23.352  37.462  1.00  0.00     0.244 C 
HETATM    6  N1  UNL     1      41.093  23.405  38.721  1.00  0.00    -0.363 N 
HETATM    7  C1  UNL     1      41.636  24.598  39.288  1.00  0.00     0.149 C 
ATOM      8  H1  UNL     1      41.208  22.535  39.240  1.00  0.00     0.161 HD
HETATM    9  O1  UNL     1      40.292  24.463  36.875  1.00  0.00    -0.271 OA
ENDBRANCH   4   5
BRANCH   4  10
HETATM   10  C17 UNL     1      41.067  21.227  36.649  1.00  0.00     0.007 A 
HETATM   11  C18 UNL     1      42.045  21.532  35.738  1.00  0.00     0.098 A 
HETATM   12  N4  UNL     1      42.979  20.565  35.717  1.00  0.00    -0.373 N 
HETATM   13  C19 UNL     1      42.613  19.633  36.610  1.00  0.00     0.107 A 
ATOM     14  H4  UNL     1      43.813  20.543  35.130  1.00  0.00     0.164 HD
HETATM   15  C20 UNL     1      41.418  20.015  37.213  1.00  0.00     0.036 A 
HETATM   16 BR2  UNL     1      40.414  19.126  38.541  1.00  0.00    -0.049 Br
ENDBRANCH   4  10
ENDBRANCH   2   4
ENDBRANCH   1   2
BRANCH   1  17
HETATM   17  C5  UNL     1      37.120  20.708  36.568  1.00  0.00     0.046 C 
BRANCH  17  18
HETATM   18  C6  UNL     1      36.295  19.419  36.429  1.00  0.00     0.004 C 
BRANCH  18  19
HETATM   19  C7  UNL     1      37.096  18.224  36.748  1.00  0.00     0.000 C 
BRANCH  19  20
HETATM   20  C8  UNL     1      36.611  17.363  37.828  1.00  0.00     0.000 C 
BRANCH  20  21
HETATM   21  C9  UNL     1      37.273  17.243  39.129  1.00  0.00     0.005 C 
BRANCH  21  22
HETATM   22  C10 UNL     1      36.521  17.685  40.322  1.00  0.00    -0.010 C 
HETATM   23  C11 UNL     1      35.130  18.211  39.931  1.00  0.00     0.009 C 
HETATM   24  C12 UNL     1      34.464  18.217  41.296  1.00  0.00     0.056 C 
HETATM   25  C13 UNL     1      34.993  16.938  41.960  1.00  0.00     0.160 C 
HETATM   26  F1  UNL     1      35.507  17.191  43.210  1.00  0.00    -0.231 F 
HETATM   27 BR1  UNL     1      33.541  15.654  42.166  1.00  0.00    -0.049 Br
HETATM   28  C14 UNL     1      36.031  16.378  41.042  1.00  0.00     0.060 C 
ENDBRANCH  21  22
ENDBRANCH  20  21
ENDBRANCH  19  20
ENDBRANCH  18  19
ENDBRANCH  17  18
ENDBRANCH   1  17
BRANCH   1  29
HETATM   29  N3  UNL     1      37.611  21.231  34.273  1.00  0.00    -0.383 N 
HETATM   30  C15 UNL     1      36.474  21.950  34.013  1.00  0.00     0.116 C 
HETATM   31  C16 UNL     1      38.125  20.439  33.171  1.00  0.00     0.150 C 
ENDBRANCH   1  29
TORSDOF 11
ENDMDL
MODEL 4
REMARK VINA RESULT: -6.103207398      5.125      9.673
REMARK  11 active torsions:
REMARK  status: ('A' for Active; 'I' for Inactive)
REMARK       I    between atoms: N1_2  and  C2_4 
REMARK    1  A    between atoms: C2_4  and  C3_6 
REMARK    2  A    between atoms: C3_6  and  N2_7 
REMARK    3  A    between atoms: C3_6  and  C17_25 
REMARK    4  A    between atoms: N2_7  and  C4_9 
REMARK    5  A    between atoms: C4_9  and  C5_10 
REMARK    6  A    between atoms: C4_9  and  N3_22 
REMARK    7  A    between atoms: C5_10  and  C6_11 
REMARK    8  A    between atoms: C6_11  and  C7_12 
REMARK    9  A    between atoms: C7_12  and  C8_13 
REMARK   10  A    between atoms: C8_13  and  C9_14 
REMARK   11  A    between atoms: C9_14  and  C10_15 
ROOT
HETATM    1  C4  UNL     1      41.649  18.638  38.985  1.00  0.00     0.178 C 
ENDROOT
BRANCH   1   2
HETATM    2  N2  UNL     1      41.545  19.255  37.671  1.00  0.00    -0.385 N 
ATOM      3  H2  UNL     1      41.158  18.714  36.898  1.00  0.00     0.156 HD
BRANCH   2   4
HETATM    4  C3  UNL     1      41.956  20.554  37.442  1.00  0.00     0.207 C 
BRANCH   4   5
HETATM    5  C2  UNL     1      41.031  21.679  37.700  1.00  0.00     0.244 C 
HETATM    6  N1  UNL     1      41.507  22.902  38.295  1.00  0.00    -0.363 N 
HETATM    7  C1  UNL     1      40.679  24.031  38.582  1.00  0.00     0.149 C 
ATOM      8  H1  UNL     1      42.498  22.967  38.528  1.00  0.00     0.161 HD
HETATM    9  O1  UNL     1      39.799  21.673  37.436  1.00  0.00    -0.271 OA
ENDBRANCH   4   5
BRANCH   4  10
HETATM   10  C17 UNL     1      42.356  20.696  35.993  1.00  0.00     0.007 A 
HETATM   11  C18 UNL     1      43.455  21.375  35.532  1.00  0.00     0.098 A 
HETATM   12  N4  UNL     1      43.515  21.307  34.191  1.00  0.00    -0.373 N 
HETATM   13  C19 UNL     1      42.461  20.587  33.777  1.00  0.00     0.107 A 
ATOM     14  H4  UNL     1      44.230  21.726  33.596  1.00  0.00     0.164 HD
HETATM   15  C20 UNL     1      41.713  20.188  34.881  1.00  0.00     0.036 A 
HETATM   16 BR2  UNL     1      40.132  19.158  34.940  1.00  0.00    -0.049 Br
ENDBRANCH   4  10
ENDBRANCH   2   4
ENDBRANCH   1   2
BRANCH   1  17
HETATM   17  C5  UNL     1      40.346  18.539  39.673  1.00  0.00     0.046 C 
BRANCH  17  18
HETATM   18  C6  UNL     1      39.103  18.516  38.770  1.00  0.00     0.004 C 
BRANCH  18  19
HETATM   19  C7  UNL     1      38.591  17.146  38.584  1.00  0.00     0.000 C 
BRANCH  19  20
HETATM   20  C8  UNL     1      37.145  16.952  38.697  1.00  0.00     0.000 C 
BRANCH  20  21
HETATM   21  C9  UNL     1      36.211  18.016  39.073  1.00  0.00     0.005 C 
BRANCH  21  22
HETATM   22  C10 UNL     1      35.774  18.075  40.484  1.00  0.00    -0.010 C 
HETATM   23  C11 UNL     1      34.239  18.049  40.586  1.00  0.00     0.009 C 
HETATM   24  C12 UNL     1      34.085  17.730  42.062  1.00  0.00     0.056 C 
HETATM   25  C13 UNL     1      35.209  16.719  42.332  1.00  0.00     0.160 C 
HETATM   26  F1  UNL     1      35.972  17.086  43.416  1.00  0.00    -0.231 F 
HETATM   27 BR1  UNL     1      34.441  14.969  42.715  1.00  0.00    -0.049 Br
HETATM   28  C14 UNL     1      36.027  16.646  41.084  1.00  0.00     0.060 C 
ENDBRANCH  21  22
ENDBRANCH  20  21
ENDBRANCH  19  20
ENDBRANCH  18  19
ENDBRANCH  17  18
ENDBRANCH   1  17
BRANCH   1  29
HETATM   29  N3  UNL     1      42.224  17.366  38.737  1.00  0.00    -0.383 N 
HETATM   30  C15 UNL     1      42.401  16.349  39.637  1.00  0.00     0.116 C 
HETATM   31  C16 UNL     1      42.975  17.256  37.501  1.00  0.00     0.150 C 
ENDBRANCH   1  29
TORSDOF 11
ENDMDL
MODEL 5
REMARK VINA RESULT: -6.095514340      3.004      3.804
REMARK  11 active torsions:
REMARK  status: ('A' for Active; 'I' for Inactive)
REMARK       I    between atoms: N1_2  and  C2_4 
REMARK    1  A    between atoms: C2_4  and  C3_6 
REMARK    2  A    between atoms: C3_6  and  N2_7 
REMARK    3  A    between atoms: C3_6  and  C17_25 
REMARK    4  A    between atoms: N2_7  and  C4_9 
REMARK    5  A    between atoms: C4_9  and  C5_10 
REMARK    6  A    between atoms: C4_9  and  N3_22 
REMARK    7  A    between atoms: C5_10  and  C6_11 
REMARK    8  A    between atoms: C6_11  and  C7_12 
REMARK    9  A    between atoms: C7_12  and  C8_13 
REMARK   10  A    between atoms: C8_13  and  C9_14 
REMARK   11  A    between atoms: C9_14  and  C10_15 
ROOT
HETATM    1  C4  UNL     1      42.159  19.684  36.497  1.00  0.00     0.178 C 
ENDROOT
BRANCH   1   2
HETATM    2  N2  UNL     1      41.719  20.857  37.239  1.00  0.00    -0.385 N 
ATOM      3  H2  UNL     1      42.076  21.010  38.182  1.00  0.00     0.156 HD
BRANCH   2   4
HETATM    4  C3  UNL     1      40.830  21.768  36.701  1.00  0.00     0.207 C 
BRANCH   4   5
HETATM    5  C2  UNL     1      40.714  23.121  37.287  1.00  0.00     0.244 C 
HETATM    6  N1  UNL     1      41.225  23.400  38.605  1.00  0.00    -0.363 N 
HETATM    7  C1  UNL     1      41.147  24.677  39.243  1.00  0.00     0.149 C 
ATOM      8  H1  UNL     1      41.672  22.639  39.116  1.00  0.00     0.161 HD
HETATM    9  O1  UNL     1      40.181  24.110  36.715  1.00  0.00    -0.271 OA
ENDBRANCH   4   5
BRANCH   4  10
HETATM   10  C17 UNL     1      39.436  21.191  36.762  1.00  0.00     0.007 A 
HETATM   11  C18 UNL     1      38.637  21.153  37.876  1.00  0.00     0.098 A 
HETATM   12  N4  UNL     1      37.461  20.572  37.585  1.00  0.00    -0.373 N 
HETATM   13  C19 UNL     1      37.490  20.231  36.287  1.00  0.00     0.107 A 
ATOM     14  H4  UNL     1      36.687  20.417  38.232  1.00  0.00     0.164 HD
HETATM   15  C20 UNL     1      38.715  20.605  35.740  1.00  0.00     0.036 A 
HETATM   16 BR2  UNL     1      39.344  20.396  33.973  1.00  0.00    -0.049 Br
ENDBRANCH   4  10
ENDBRANCH   2   4
ENDBRANCH   1   2
BRANCH   1  17
HETATM   17  C5  UNL     1      43.369  19.943  35.690  1.00  0.00     0.046 C 
BRANCH  17  18
HETATM   18  C6  UNL     1      43.164  20.744  34.395  1.00  0.00     0.004 C 
BRANCH  18  19
HETATM   19  C7  UNL     1      43.746  22.095  34.493  1.00  0.00     0.000 C 
BRANCH  19  20
HETATM   20  C8  UNL     1      45.172  22.231  34.198  1.00  0.00     0.000 C 
BRANCH  20  21
HETATM   21  C9  UNL     1      45.842  21.536  33.095  1.00  0.00     0.005 C 
BRANCH  21  22
HETATM   22  C10 UNL     1      46.868  20.530  33.443  1.00  0.00    -0.010 C 
HETATM   23  C11 UNL     1      47.078  20.464  34.966  1.00  0.00     0.009 C 
HETATM   24  C12 UNL     1      47.837  19.153  35.064  1.00  0.00     0.056 C 
HETATM   25  C13 UNL     1      47.148  18.259  34.023  1.00  0.00     0.160 C 
HETATM   26  F1  UNL     1      48.057  17.680  33.169  1.00  0.00    -0.231 F 
HETATM   27 BR1  UNL     1      46.185  16.822  34.924  1.00  0.00    -0.049 Br
HETATM   28  C14 UNL     1      46.179  19.127  33.288  1.00  0.00     0.060 C 
ENDBRANCH  21  22
ENDBRANCH  20  21
ENDBRANCH  19  20
ENDBRANCH  18  19
ENDBRANCH  17  18
ENDBRANCH   1  17
BRANCH   1  29
HETATM   29  N3  UNL     1      42.373  18.695  37.488  1.00  0.00    -0.383 N 
HETATM   30  C15 UNL     1      42.856  17.427  37.299  1.00  0.00     0.116 C 
HETATM   31  C16 UNL     1      41.728  18.944  38.763  1.00  0.00     0.150 C 
ENDBRANCH   1  29
TORSDOF 11
ENDMDL
