MODEL 1
REMARK VINA RESULT: -6.584704683      0.000      0.000
REMARK  13 active torsions:
REMARK  status: ('A' for Active; 'I' for Inactive)
REMARK    1  A    between atoms: N1_2  and  C2_3 
REMARK    2  A    between atoms: N1_2  and  C18_30 
REMARK    3  A    between atoms: C2_3  and  C3_4 
REMARK    4  A    between atoms: C3_4  and  C4_5 
REMARK    5  A    between atoms: C4_5  and  N2_6 
REMARK    6  A    between atoms: N2_6  and  C5_8 
REMARK    7  A    between atoms: C8_15  and  N5_16 
REMARK    8  A    between atoms: N5_16  and  C9_18 
REMARK    9  A    between atoms: C9_18  and  C10_19 
REMARK   10  A    between atoms: C13_22  and  C14_23 
REMARK   11  A    between atoms: C14_23  and  C15_24 
REMARK   12  A    between atoms: C18_30  and  C19_31 
REMARK   13  A    between atoms: C19_31  and  C20_32 
ROOT
HETATM    1  C5  UNL     1      42.151  21.167  36.953  1.00  0.00     0.145 A 
HETATM    2  N3  UNL     1      42.700  21.940  36.020  1.00  0.00    -0.348 N 
ATOM      3  H3  UNL     1      42.611  22.954  36.093  1.00  0.00     0.167 HD
HETATM    4  C6  UNL     1      43.366  21.413  34.990  1.00  0.00     0.107 A 
HETATM    5  C7  UNL     1      43.480  20.047  34.899  1.00  0.00     0.107 A 
HETATM    6  N4  UNL     1      42.938  19.242  35.819  1.00  0.00    -0.348 N 
ATOM      7  H4  UNL     1      43.030  18.230  35.738  1.00  0.00     0.167 HD
HETATM    8  C8  UNL     1      42.255  19.799  36.879  1.00  0.00     0.145 A 
ENDROOT
BRANCH   1   9
HETATM    9  N2  UNL     1      41.505  21.638  37.967  1.00  0.00    -0.373 N 
ATOM     10  H2  UNL     1      41.925  21.469  38.881  1.00  0.00     0.161 HD
BRANCH   9  11
HETATM   11  C4  UNL     1      40.286  22.359  37.968  1.00  0.00     0.123 C 
BRANCH  11  12
HETATM   12  C3  UNL     1      39.189  21.790  37.099  1.00  0.00     0.039 C 
BRANCH  12  13
HETATM   13  C2  UNL     1      38.539  20.656  37.837  1.00  0.00     0.123 C 
BRANCH  13  14
HETATM   14  N1  UNL     1      38.072  19.607  36.987  1.00  0.00    -0.397 N 
HETATM   15  C1  UNL     1      38.674  19.488  35.715  1.00  0.00     0.148 C 
BRANCH  14  16
HETATM   16  C18 UNL     1      36.673  19.473  37.094  1.00  0.00     0.062 C 
BRANCH  16  17
HETATM   17  C19 UNL     1      36.109  18.094  37.141  1.00  0.00     0.083 C 
BRANCH  17  18
HETATM   18  C20 UNL     1      35.947  17.574  38.519  1.00  0.00    -0.052 A 
HETATM   19  C21 UNL     1      36.214  18.345  39.633  1.00  0.00     0.009 A 
HETATM   20  C22 UNL     1      36.048  17.829  40.882  1.00  0.00     0.026 A 
HETATM   21  C23 UNL     1      35.614  16.539  41.091  1.00  0.00     0.055 A 
HETATM   22 CL1  UNL     1      35.409  15.897  42.726  1.00  0.00    -0.083 Cl
HETATM   23  C24 UNL     1      35.347  15.773  39.978  1.00  0.00     0.056 A 
HETATM   24 CL2  UNL     1      34.802  14.144  40.219  1.00  0.00    -0.083 Cl
HETATM   25  C25 UNL     1      35.510  16.283  38.685  1.00  0.00     0.033 A 
ENDBRANCH  17  18
ENDBRANCH  16  17
ENDBRANCH  14  16
ENDBRANCH  13  14
ENDBRANCH  12  13
ENDBRANCH  11  12
ENDBRANCH   9  11
ENDBRANCH   1   9
BRANCH   8  26
HETATM   26  N5  UNL     1      41.782  18.955  37.705  1.00  0.00    -0.373 N 
ATOM     27  H5  UNL     1      40.870  19.198  38.092  1.00  0.00     0.161 HD
BRANCH  26  28
HETATM   28  C9  UNL     1      42.323  17.731  38.170  1.00  0.00     0.128 C 
BRANCH  28  29
HETATM   29  C10 UNL     1      41.600  17.270  39.456  1.00  0.00     0.037 C 
HETATM   30  C11 UNL     1      40.150  17.603  39.428  1.00  0.00     0.009 C 
HETATM   31  C12 UNL     1      39.299  16.676  38.653  1.00  0.00     0.006 C 
HETATM   32  C13 UNL     1      39.647  15.237  38.666  1.00  0.00    -0.002 C 
HETATM   33  C16 UNL     1      41.068  14.882  38.919  1.00  0.00     0.042 C 
HETATM   34  C17 UNL     1      41.862  15.831  39.743  1.00  0.00     0.176 C 
HETATM   35  F1  UNL     1      43.216  15.608  39.450  1.00  0.00    -0.249 F 
BRANCH  32  36
HETATM   36  C14 UNL     1      38.700  14.386  39.522  1.00  0.00     0.117 C 
BRANCH  36  37
HETATM   37  C15 UNL     1      39.259  13.113  39.939  1.00  0.00     0.172 C 
HETATM   38  O1  UNL     1      39.614  12.926  41.121  1.00  0.00    -0.648 OA
HETATM   39  O2  UNL     1      39.409  12.084  39.032  1.00  0.00    -0.648 OA
ENDBRANCH  36  37
ENDBRANCH  32  36
ENDBRANCH  28  29
ENDBRANCH  26  28
ENDBRANCH   8  26
TORSDOF 13
ENDMDL
MODEL 2
REMARK VINA RESULT: -6.353408349      3.863      6.088
REMARK  13 active torsions:
REMARK  status: ('A' for Active; 'I' for Inactive)
REMARK    1  A    between atoms: N1_2  and  C2_3 
REMARK    2  A    between atoms: N1_2  and  C18_30 
REMARK    3  A    between atoms: C2_3  and  C3_4 
REMARK    4  A    between atoms: C3_4  and  C4_5 
REMARK    5  A    between atoms: C4_5  and  N2_6 
REMARK    6  A    between atoms: N2_6  and  C5_8 
REMARK    7  A    between atoms: C8_15  and  N5_16 
REMARK    8  A    between atoms: N5_16  and  C9_18 
REMARK    9  A    between atoms: C9_18  and  C10_19 
REMARK   10  A    between atoms: C13_22  and  C14_23 
REMARK   11  A    between atoms: C14_23  and  C15_24 
REMARK   12  A    between atoms: C18_30  and  C19_31 
REMARK   13  A    between atoms: C19_31  and  C20_32 
ROOT
HETATM    1  C5  UNL     1      41.623  15.305  38.831  1.00  0.00     0.145 A 
HETATM    2  N3  UNL     1      42.643  14.488  39.081  1.00  0.00    -0.348 N 
ATOM      3  H3  UNL     1      42.536  13.754  39.782  1.00  0.00     0.167 HD
HETATM    4  C6  UNL     1      43.803  14.612  38.433  1.00  0.00     0.107 A 
HETATM    5  C7  UNL     1      43.938  15.605  37.493  1.00  0.00     0.107 A 
HETATM    6  N4  UNL     1      42.933  16.443  37.219  1.00  0.00    -0.348 N 
ATOM      7  H4  UNL     1      43.048  17.176  36.519  1.00  0.00     0.167 HD
HETATM    8  C8  UNL     1      41.739  16.303  37.895  1.00  0.00     0.145 A 
ENDROOT
BRANCH   1   9
HETATM    9  N2  UNL     1      40.484  15.215  39.432  1.00  0.00    -0.373 N 
ATOM     10  H2  UNL     1      40.282  15.943  40.118  1.00  0.00     0.161 HD
BRANCH   9  11
HETATM   11  C4  UNL     1      39.480  14.231  39.259  1.00  0.00     0.123 C 
BRANCH  11  12
HETATM   12  C3  UNL     1      38.057  14.734  39.303  1.00  0.00     0.039 C 
BRANCH  12  13
HETATM   13  C2  UNL     1      37.725  15.339  37.970  1.00  0.00     0.123 C 
BRANCH  13  14
HETATM   14  N1  UNL     1      37.066  16.603  38.058  1.00  0.00    -0.397 N 
HETATM   15  C1  UNL     1      36.780  17.269  36.845  1.00  0.00     0.148 C 
BRANCH  14  16
HETATM   16  C18 UNL     1      37.573  17.349  39.141  1.00  0.00     0.062 C 
BRANCH  16  17
HETATM   17  C19 UNL     1      36.752  18.485  39.647  1.00  0.00     0.083 C 
BRANCH  17  18
HETATM   18  C20 UNL     1      35.518  18.052  40.343  1.00  0.00    -0.052 A 
HETATM   19  C21 UNL     1      35.549  17.362  41.538  1.00  0.00     0.009 A 
HETATM   20  C22 UNL     1      34.392  16.986  42.146  1.00  0.00     0.026 A 
HETATM   21  C23 UNL     1      33.156  17.269  41.609  1.00  0.00     0.055 A 
HETATM   22 CL1  UNL     1      31.667  16.765  42.422  1.00  0.00    -0.083 Cl
HETATM   23  C24 UNL     1      33.126  17.957  40.417  1.00  0.00     0.056 A 
HETATM   24 CL2  UNL     1      31.580  18.322  39.721  1.00  0.00    -0.083 Cl
HETATM   25  C25 UNL     1      34.305  18.355  39.775  1.00  0.00     0.033 A 
ENDBRANCH  17  18
ENDBRANCH  16  17
ENDBRANCH  14  16
ENDBRANCH  13  14
ENDBRANCH  12  13
ENDBRANCH  11  12
ENDBRANCH   9  11
ENDBRANCH   1   9
BRANCH   8  26
HETATM   26  N5  UNL     1      40.843  17.141  37.561  1.00  0.00    -0.373 N 
ATOM     27  H5  UNL     1      40.186  16.809  36.855  1.00  0.00     0.161 HD
BRANCH  26  28
HETATM   28  C9  UNL     1      40.613  18.463  38.017  1.00  0.00     0.128 C 
BRANCH  28  29
HETATM   29  C10 UNL     1      40.447  19.429  36.821  1.00  0.00     0.037 C 
HETATM   30  C11 UNL     1      39.175  20.197  36.900  1.00  0.00     0.009 C 
HETATM   31  C12 UNL     1      39.191  21.366  37.804  1.00  0.00     0.006 C 
HETATM   32  C13 UNL     1      40.443  22.149  37.906  1.00  0.00    -0.002 C 
HETATM   33  C16 UNL     1      41.716  21.441  37.607  1.00  0.00     0.042 C 
HETATM   34  C17 UNL     1      41.644  20.302  36.655  1.00  0.00     0.176 C 
HETATM   35  F1  UNL     1      42.764  19.488  36.892  1.00  0.00    -0.249 F 
BRANCH  32  36
HETATM   36  C14 UNL     1      40.378  23.503  37.187  1.00  0.00     0.117 C 
BRANCH  36  37
HETATM   37  C15 UNL     1      40.988  24.596  37.923  1.00  0.00     0.172 C 
HETATM   38  O1  UNL     1      42.156  24.961  37.675  1.00  0.00    -0.648 OA
HETATM   39  O2  UNL     1      40.285  25.251  38.913  1.00  0.00    -0.648 OA
ENDBRANCH  36  37
ENDBRANCH  32  36
ENDBRANCH  28  29
ENDBRANCH  26  28
ENDBRANCH   8  26
TORSDOF 13
ENDMDL
MODEL 3
REMARK VINA RESULT: -6.347797209      3.763      6.642
REMARK  13 active torsions:
REMARK  status: ('A' for Active; 'I' for Inactive)
REMARK    1  A    between atoms: N1_2  and  C2_3 
REMARK    2  A    between atoms: N1_2  and  C18_30 
REMARK    3  A    between atoms: C2_3  and  C3_4 
REMARK    4  A    between atoms: C3_4  and  C4_5 
REMARK    5  A    between atoms: C4_5  and  N2_6 
REMARK    6  A    between atoms: N2_6  and  C5_8 
REMARK    7  A    between atoms: C8_15  and  N5_16 
REMARK    8  A    between atoms: N5_16  and  C9_18 
REMARK    9  A    between atoms: C9_18  and  C10_19 
REMARK   10  A    between atoms: C13_22  and  C14_23 
REMARK   11  A    between atoms: C14_23  and  C15_24 
REMARK   12  A    between atoms: C18_30  and  C19_31 
REMARK   13  A    between atoms: C19_31  and  C20_32 
ROOT
HETATM    1  C5  UNL     1      36.308  19.237  36.350  1.00  0.00     0.145 A 
HETATM    2  N3  UNL     1      36.386  18.652  35.157  1.00  0.00    -0.348 N 
ATOM      3  H3  UNL     1      36.557  19.223  34.329  1.00  0.00     0.167 HD
HETATM    4  C6  UNL     1      36.246  17.331  35.025  1.00  0.00     0.107 A 
HETATM    5  C7  UNL     1      36.015  16.570  36.145  1.00  0.00     0.107 A 
HETATM    6  N4  UNL     1      35.929  17.127  37.357  1.00  0.00    -0.348 N 
ATOM      7  H4  UNL     1      35.756  16.549  38.180  1.00  0.00     0.167 HD
HETATM    8  C8  UNL     1      36.077  18.492  37.481  1.00  0.00     0.145 A 
ENDROOT
BRANCH   1   9
HETATM    9  N2  UNL     1      36.443  20.509  36.520  1.00  0.00    -0.373 N 
ATOM     10  H2  UNL     1      35.932  20.911  37.306  1.00  0.00     0.161 HD
BRANCH   9  11
HETATM   11  C4  UNL     1      37.212  21.416  35.752  1.00  0.00     0.123 C 
BRANCH  11  12
HETATM   12  C3  UNL     1      38.693  21.126  35.686  1.00  0.00     0.039 C 
BRANCH  12  13
HETATM   13  C2  UNL     1      39.432  22.289  36.281  1.00  0.00     0.123 C 
BRANCH  13  14
HETATM   14  N1  UNL     1      40.636  21.924  36.957  1.00  0.00    -0.397 N 
HETATM   15  C1  UNL     1      41.799  21.771  36.169  1.00  0.00     0.148 C 
BRANCH  14  16
HETATM   16  C18 UNL     1      40.366  20.978  37.966  1.00  0.00     0.062 C 
BRANCH  16  17
HETATM   17  C19 UNL     1      41.472  20.067  38.377  1.00  0.00     0.083 C 
BRANCH  17  18
HETATM   18  C20 UNL     1      41.020  18.682  38.646  1.00  0.00    -0.052 A 
HETATM   19  C21 UNL     1      39.711  18.284  38.456  1.00  0.00     0.009 A 
HETATM   20  C22 UNL     1      39.339  17.000  38.712  1.00  0.00     0.026 A 
HETATM   21  C23 UNL     1      40.231  16.053  39.163  1.00  0.00     0.055 A 
HETATM   22 CL1  UNL     1      39.717  14.392  39.487  1.00  0.00    -0.083 Cl
HETATM   23  C24 UNL     1      41.536  16.452  39.351  1.00  0.00     0.056 A 
HETATM   24 CL2  UNL     1      42.676  15.276  39.922  1.00  0.00    -0.083 Cl
HETATM   25  C25 UNL     1      41.941  17.767  39.093  1.00  0.00     0.033 A 
ENDBRANCH  17  18
ENDBRANCH  16  17
ENDBRANCH  14  16
ENDBRANCH  13  14
ENDBRANCH  12  13
ENDBRANCH  11  12
ENDBRANCH   9  11
ENDBRANCH   1   9
BRANCH   8  26
HETATM   26  N5  UNL     1      35.986  18.927  38.672  1.00  0.00    -0.373 N 
ATOM     27  H5  UNL     1      35.958  19.943  38.757  1.00  0.00     0.161 HD
BRANCH  26  28
HETATM   28  C9  UNL     1      35.918  18.223  39.900  1.00  0.00     0.128 C 
BRANCH  28  29
HETATM   29  C10 UNL     1      34.604  18.553  40.644  1.00  0.00     0.037 C 
HETATM   30  C11 UNL     1      33.439  18.597  39.720  1.00  0.00     0.009 C 
HETATM   31  C12 UNL     1      32.866  17.286  39.353  1.00  0.00     0.006 C 
HETATM   32  C13 UNL     1      32.855  16.219  40.381  1.00  0.00    -0.002 C 
HETATM   33  C16 UNL     1      33.887  16.291  41.448  1.00  0.00     0.042 C 
HETATM   34  C17 UNL     1      34.392  17.642  41.806  1.00  0.00     0.176 C 
HETATM   35  F1  UNL     1      35.648  17.473  42.411  1.00  0.00    -0.249 F 
BRANCH  32  36
HETATM   36  C14 UNL     1      31.464  15.952  40.970  1.00  0.00     0.117 C 
BRANCH  36  37
HETATM   37  C15 UNL     1      30.919  17.061  41.732  1.00  0.00     0.172 C 
HETATM   38  O1  UNL     1      30.304  17.986  41.163  1.00  0.00    -0.648 OA
HETATM   39  O2  UNL     1      31.073  17.111  43.102  1.00  0.00    -0.648 OA
ENDBRANCH  36  37
ENDBRANCH  32  36
ENDBRANCH  28  29
ENDBRANCH  26  28
ENDBRANCH   8  26
TORSDOF 13
ENDMDL
MODEL 4
REMARK VINA RESULT: -6.330384757      4.420      6.997
REMARK  13 active torsions:
REMARK  status: ('A' for Active; 'I' for Inactive)
REMARK    1  A    between atoms: N1_2  and  C2_3 
REMARK    2  A    between atoms: N1_2  and  C18_30 
REMARK    3  A    between atoms: C2_3  and  C3_4 
REMARK    4  A    between atoms: C3_4  and  C4_5 
REMARK    5  A    between atoms: C4_5  and  N2_6 
REMARK    6  A    between atoms: N2_6  and  C5_8 
REMARK    7  A    between atoms: C8_15  and  N5_16 
REMARK    8  A    between atoms: N5_16  and  C9_18 
REMARK    9  A    between atoms: C9_18  and  C10_19 
REMARK   10  A    between atoms: C13_22  and  C14_23 
REMARK   11  A    between atoms: C14_23  and  C15_24 
REMARK   12  A    between atoms: C18_30  and  C19_31 
REMARK   13  A    between atoms: C19_31  and  C20_32 
ROOT
HETATM    1  C5  UNL     1      38.014  17.967  37.504  1.00  0.00     0.145 A 
HETATM    2  N3  UNL     1      38.722  17.517  36.472  1.00  0.00    -0.348 N 
ATOM      3  H3  UNL     1      38.771  18.072  35.617  1.00  0.00     0.167 HD
HETATM    4  C6  UNL     1      39.371  16.352  36.535  1.00  0.00     0.107 A 
HETATM    5  C7  UNL     1      39.298  15.610  37.689  1.00  0.00     0.107 A 
HETATM    6  N4  UNL     1      38.594  16.034  38.743  1.00  0.00    -0.348 N 
ATOM      7  H4  UNL     1      38.549  15.472  39.594  1.00  0.00     0.167 HD
HETATM    8  C8  UNL     1      37.930  17.240  38.666  1.00  0.00     0.145 A 
ENDROOT
BRANCH   1   9
HETATM    9  N2  UNL     1      37.378  19.090  37.485  1.00  0.00    -0.373 N 
ATOM     10  H2  UNL     1      37.224  19.532  38.392  1.00  0.00     0.161 HD
BRANCH   9  11
HETATM   11  C4  UNL     1      36.867  19.786  36.362  1.00  0.00     0.123 C 
BRANCH  11  12
HETATM   12  C3  UNL     1      37.292  21.230  36.238  1.00  0.00     0.039 C 
BRANCH  12  13
HETATM   13  C2  UNL     1      38.686  21.269  35.683  1.00  0.00     0.123 C 
BRANCH  13  14
HETATM   14  N1  UNL     1      39.676  21.667  36.633  1.00  0.00    -0.397 N 
HETATM   15  C1  UNL     1      40.142  22.999  36.562  1.00  0.00     0.148 C 
BRANCH  14  16
HETATM   16  C18 UNL     1      40.607  20.629  36.839  1.00  0.00     0.062 C 
BRANCH  16  17
HETATM   17  C19 UNL     1      41.002  20.318  38.242  1.00  0.00     0.083 C 
BRANCH  17  18
HETATM   18  C20 UNL     1      41.618  18.978  38.393  1.00  0.00    -0.052 A 
HETATM   19  C21 UNL     1      41.492  18.236  39.551  1.00  0.00     0.009 A 
HETATM   20  C22 UNL     1      42.071  17.008  39.647  1.00  0.00     0.026 A 
HETATM   21  C23 UNL     1      42.795  16.457  38.614  1.00  0.00     0.055 A 
HETATM   22 CL1  UNL     1      43.537  14.858  38.769  1.00  0.00    -0.083 Cl
HETATM   23  C24 UNL     1      42.918  17.198  37.460  1.00  0.00     0.056 A 
HETATM   24 CL2  UNL     1      43.829  16.522  36.147  1.00  0.00    -0.083 Cl
HETATM   25  C25 UNL     1      42.331  18.463  37.340  1.00  0.00     0.033 A 
ENDBRANCH  17  18
ENDBRANCH  16  17
ENDBRANCH  14  16
ENDBRANCH  13  14
ENDBRANCH  12  13
ENDBRANCH  11  12
ENDBRANCH   9  11
ENDBRANCH   1   9
BRANCH   8  26
HETATM   26  N5  UNL     1      37.294  17.561  39.719  1.00  0.00    -0.373 N 
ATOM     27  H5  UNL     1      37.730  18.296  40.277  1.00  0.00     0.161 HD
BRANCH  26  28
HETATM   28  C9  UNL     1      36.076  17.058  40.240  1.00  0.00     0.128 C 
BRANCH  28  29
HETATM   29  C10 UNL     1      35.113  18.217  40.587  1.00  0.00     0.037 C 
HETATM   30  C11 UNL     1      34.267  18.602  39.426  1.00  0.00     0.009 C 
HETATM   31  C12 UNL     1      33.093  17.741  39.179  1.00  0.00     0.006 C 
HETATM   32  C13 UNL     1      32.388  17.172  40.351  1.00  0.00    -0.002 C 
HETATM   33  C16 UNL     1      33.177  16.990  41.597  1.00  0.00     0.042 C 
HETATM   34  C17 UNL     1      34.319  17.916  41.813  1.00  0.00     0.176 C 
HETATM   35  F1  UNL     1      35.198  17.294  42.713  1.00  0.00    -0.249 F 
BRANCH  32  36
HETATM   36  C14 UNL     1      31.040  17.846  40.640  1.00  0.00     0.117 C 
BRANCH  36  37
HETATM   37  C15 UNL     1      30.358  18.341  39.457  1.00  0.00     0.172 C 
HETATM   38  O1  UNL     1      29.585  17.605  38.809  1.00  0.00    -0.648 OA
HETATM   39  O2  UNL     1      30.555  19.637  39.027  1.00  0.00    -0.648 OA
ENDBRANCH  36  37
ENDBRANCH  32  36
ENDBRANCH  28  29
ENDBRANCH  26  28
ENDBRANCH   8  26
TORSDOF 13
ENDMDL
MODEL 5
REMARK VINA RESULT: -6.215207822      3.567      5.968
REMARK  13 active torsions:
REMARK  status: ('A' for Active; 'I' for Inactive)
REMARK    1  A    between atoms: N1_2  and  C2_3 
REMARK    2  A    between atoms: N1_2  and  C18_30 
REMARK    3  A    between atoms: C2_3  and  C3_4 
REMARK    4  A    between atoms: C3_4  and  C4_5 
REMARK    5  A    between atoms: C4_5  and  N2_6 
REMARK    6  A    between atoms: N2_6  and  C5_8 
REMARK    7  A    between atoms: C8_15  and  N5_16 
REMARK    8  A    between atoms: N5_16  and  C9_18 
REMARK    9  A    between atoms: C9_18  and  C10_19 
REMARK   10  A    between atoms: C13_22  and  C14_23 
REMARK   11  A    between atoms: C14_23  and  C15_24 
REMARK   12  A    between atoms: C18_30  and  C19_31 
REMARK   13  A    between atoms: C19_31  and  C20_32 
ROOT
HETATM    1  C5  UNL     1      39.948  19.326  38.846  1.00  0.00     0.145 A 
HETATM    2  N3  UNL     1      40.739  20.336  38.494  1.00  0.00    -0.348 N 
ATOM      3  H3  UNL     1      41.739  20.283  38.694  1.00  0.00     0.167 HD
HETATM    4  C6  UNL     1      40.249  21.418  37.885  1.00  0.00     0.107 A 
HETATM    5  C7  UNL     1      38.903  21.483  37.622  1.00  0.00     0.107 A 
HETATM    6  N4  UNL     1      38.080  20.485  37.964  1.00  0.00    -0.348 N 
ATOM      7  H4  UNL     1      37.082  20.547  37.763  1.00  0.00     0.167 HD
HETATM    8  C8  UNL     1      38.599  19.372  38.591  1.00  0.00     0.145 A 
ENDROOT
BRANCH   1   9
HETATM    9  N2  UNL     1      40.384  18.262  39.431  1.00  0.00    -0.373 N 
ATOM     10  H2  UNL     1      39.683  17.700  39.916  1.00  0.00     0.161 HD
BRANCH   9  11
HETATM   11  C4  UNL     1      41.713  17.775  39.484  1.00  0.00     0.123 C 
BRANCH  11  12
HETATM   12  C3  UNL     1      41.859  16.272  39.491  1.00  0.00     0.039 C 
BRANCH  12  13
HETATM   13  C2  UNL     1      40.523  15.663  39.183  1.00  0.00     0.123 C 
BRANCH  13  14
HETATM   14  N1  UNL     1      40.529  14.235  39.164  1.00  0.00    -0.397 N 
HETATM   15  C1  UNL     1      40.760  13.606  37.919  1.00  0.00     0.148 C 
BRANCH  14  16
HETATM   16  C18 UNL     1      39.522  13.726  40.008  1.00  0.00     0.062 C 
BRANCH  16  17
HETATM   17  C19 UNL     1      38.186  13.447  39.406  1.00  0.00     0.083 C 
BRANCH  17  18
HETATM   18  C20 UNL     1      37.088  13.433  40.401  1.00  0.00    -0.052 A 
HETATM   19  C21 UNL     1      37.326  13.431  41.761  1.00  0.00     0.009 A 
HETATM   20  C22 UNL     1      36.288  13.421  42.640  1.00  0.00     0.026 A 
HETATM   21  C23 UNL     1      34.974  13.412  42.225  1.00  0.00     0.055 A 
HETATM   22 CL1  UNL     1      33.646  13.399  43.393  1.00  0.00    -0.083 Cl
HETATM   23  C24 UNL     1      34.740  13.415  40.868  1.00  0.00     0.056 A 
HETATM   24 CL2  UNL     1      33.093  13.401  40.323  1.00  0.00    -0.083 Cl
HETATM   25  C25 UNL     1      35.793  13.426  39.946  1.00  0.00     0.033 A 
ENDBRANCH  17  18
ENDBRANCH  16  17
ENDBRANCH  14  16
ENDBRANCH  13  14
ENDBRANCH  12  13
ENDBRANCH  11  12
ENDBRANCH   9  11
ENDBRANCH   1   9
BRANCH   8  26
HETATM   26  N5  UNL     1      37.742  18.476  38.870  1.00  0.00    -0.373 N 
ATOM     27  H5  UNL     1      37.949  17.551  38.494  1.00  0.00     0.161 HD
BRANCH  26  28
HETATM   28  C9  UNL     1      36.544  18.560  39.623  1.00  0.00     0.128 C 
BRANCH  28  29
HETATM   29  C10 UNL     1      36.022  17.148  39.975  1.00  0.00     0.037 C 
HETATM   30  C11 UNL     1      35.926  16.942  41.445  1.00  0.00     0.009 C 
HETATM   31  C12 UNL     1      34.726  17.513  42.091  1.00  0.00     0.006 C 
HETATM   32  C13 UNL     1      33.452  17.493  41.335  1.00  0.00    -0.002 C 
HETATM   33  C16 UNL     1      33.542  17.471  39.851  1.00  0.00     0.042 C 
HETATM   34  C17 UNL     1      34.750  16.842  39.259  1.00  0.00     0.176 C 
HETATM   35  F1  UNL     1      34.894  17.353  37.959  1.00  0.00    -0.249 F 
BRANCH  32  36
HETATM   36  C14 UNL     1      32.454  16.447  41.847  1.00  0.00     0.117 C 
BRANCH  36  37
HETATM   37  C15 UNL     1      31.134  16.977  42.135  1.00  0.00     0.172 C 
HETATM   38  O1  UNL     1      30.716  17.050  43.310  1.00  0.00    -0.648 OA
HETATM   39  O2  UNL     1      30.315  17.410  41.113  1.00  0.00    -0.648 OA
ENDBRANCH  36  37
ENDBRANCH  32  36
ENDBRANCH  28  29
ENDBRANCH  26  28
ENDBRANCH   8  26
TORSDOF 13
ENDMDL
