MODEL 1
REMARK VINA RESULT: -6.408229088      0.000      0.000
REMARK  13 active torsions:
REMARK  status: ('A' for Active; 'I' for Inactive)
REMARK    1  A    between atoms: C1_2  and  C2_3 
REMARK       I    between atoms: C1_2  and  N5_33 
REMARK    2  A    between atoms: C2_3  and  C3_4 
REMARK    3  A    between atoms: C3_4  and  C4_5 
REMARK    4  A    between atoms: C4_5  and  N1_7 
REMARK    5  A    between atoms: N1_7  and  C5_9 
REMARK    6  A    between atoms: C5_9  and  C6_10 
REMARK    7  A    between atoms: C6_10  and  C7_11 
REMARK    8  A    between atoms: C7_11  and  N2_12 
REMARK    9  A    between atoms: N2_12  and  C8_15 
REMARK   10  A    between atoms: C8_15  and  C9_16 
REMARK   11  A    between atoms: C9_16  and  C10_17 
REMARK   12  A    between atoms: C10_17  and  N3_18 
REMARK   13  A    between atoms: N3_18  and  C11_20 
ROOT
HETATM    1  N2  UNL     1      39.883  19.687  34.455  1.00  0.00    -0.075 N 
ATOM      2  H21 UNL     1      39.739  19.016  35.209  1.00  0.00     0.277 HD
ATOM      3  H22 UNL     1      40.068  19.045  33.684  1.00  0.00     0.277 HD
ENDROOT
BRANCH   1   4
HETATM    4  C7  UNL     1      41.032  20.497  34.719  1.00  0.00     0.234 C 
BRANCH   4   5
HETATM    5  C6  UNL     1      42.350  19.828  34.419  1.00  0.00     0.047 C 
BRANCH   5   6
HETATM    6  C5  UNL     1      43.260  19.964  35.615  1.00  0.00     0.122 C 
BRANCH   6   7
HETATM    7  N1  UNL     1      43.800  21.299  35.674  1.00  0.00    -0.384 N 
ATOM      8  H1  UNL     1      43.329  21.994  36.253  1.00  0.00     0.160 HD
BRANCH   7   9
HETATM    9  C4  UNL     1      44.956  21.681  34.960  1.00  0.00     0.073 C 
HETATM   10  S1  UNL     1      46.365  20.932  35.255  1.00  0.00    -0.066 SA
BRANCH   9  11
HETATM   11  C3  UNL     1      44.874  22.754  33.953  1.00  0.00     0.078 C 
BRANCH  11  12
HETATM   12  C2  UNL     1      44.771  22.132  32.579  1.00  0.00     0.110 C 
BRANCH  12  13
HETATM   13  C1  UNL     1      45.872  22.600  31.690  1.00  0.00     0.220 C 
HETATM   14  O1  UNL     1      47.068  22.388  32.011  1.00  0.00    -0.273 OA
HETATM   15  N5  UNL     1      45.575  23.284  30.485  1.00  0.00    -0.352 N 
HETATM   16  C20 UNL     1      44.174  23.540  30.123  1.00  0.00     0.128 C 
HETATM   17  C24 UNL     1      46.568  23.762  29.572  1.00  0.00     0.128 C 
HETATM   18  C21 UNL     1      44.061  25.065  30.200  1.00  0.00     0.057 C 
HETATM   19  C22 UNL     1      44.917  25.619  29.100  1.00  0.00     0.173 C 
HETATM   20  F1  UNL     1      44.335  25.284  27.892  1.00  0.00    -0.249 F 
HETATM   21  C23 UNL     1      46.362  25.203  29.181  1.00  0.00     0.057 C 
ENDBRANCH  12  13
ENDBRANCH  11  12
ENDBRANCH   9  11
ENDBRANCH   7   9
ENDBRANCH   6   7
ENDBRANCH   5   6
ENDBRANCH   4   5
ENDBRANCH   1   4
BRANCH   1  22
HETATM   22  C8  UNL     1      38.672  20.439  34.208  1.00  0.00     0.234 C 
BRANCH  22  23
HETATM   23  C9  UNL     1      37.534  19.896  35.053  1.00  0.00     0.047 C 
BRANCH  23  24
HETATM   24  C10 UNL     1      37.077  20.913  36.067  1.00  0.00     0.121 C 
BRANCH  24  25
HETATM   25  N3  UNL     1      37.664  20.772  37.354  1.00  0.00    -0.389 N 
ATOM     26  H3  UNL     1      37.025  20.503  38.102  1.00  0.00     0.159 HD
BRANCH  25  27
HETATM   27  C11 UNL     1      38.869  20.933  37.696  1.00  0.00     0.042 A 
HETATM   28  C12 UNL     1      39.489  22.150  37.609  1.00  0.00     0.047 A 
HETATM   29  C13 UNL     1      40.803  22.253  37.991  1.00  0.00     0.090 A 
HETATM   30  N4  UNL     1      41.491  21.181  38.449  1.00  0.00    -0.365 N 
HETATM   31  C14 UNL     1      40.907  19.965  38.548  1.00  0.00     0.046 A 
ATOM     32  H4  UNL     1      42.466  21.292  38.724  1.00  0.00     0.165 HD
HETATM   33  C15 UNL     1      41.641  18.911  39.017  1.00  0.00     0.056 A 
HETATM   34  C19 UNL     1      39.573  19.821  38.170  1.00  0.00     0.019 A 
HETATM   35  C16 UNL     1      41.027  17.682  39.109  1.00  0.00     0.058 A 
HETATM   36 CL1  UNL     1      41.924  16.294  39.706  1.00  0.00    -0.082 Cl
HETATM   37  C17 UNL     1      39.700  17.500  38.742  1.00  0.00     0.056 A 
HETATM   38 CL2  UNL     1      38.958  15.903  38.882  1.00  0.00    -0.083 Cl
HETATM   39  C18 UNL     1      38.983  18.580  38.273  1.00  0.00     0.041 A 
ENDBRANCH  25  27
ENDBRANCH  24  25
ENDBRANCH  23  24
ENDBRANCH  22  23
ENDBRANCH   1  22
TORSDOF 13
ENDMDL
MODEL 2
REMARK VINA RESULT: -6.318462801      1.509      2.124
REMARK  13 active torsions:
REMARK  status: ('A' for Active; 'I' for Inactive)
REMARK    1  A    between atoms: C1_2  and  C2_3 
REMARK       I    between atoms: C1_2  and  N5_33 
REMARK    2  A    between atoms: C2_3  and  C3_4 
REMARK    3  A    between atoms: C3_4  and  C4_5 
REMARK    4  A    between atoms: C4_5  and  N1_7 
REMARK    5  A    between atoms: N1_7  and  C5_9 
REMARK    6  A    between atoms: C5_9  and  C6_10 
REMARK    7  A    between atoms: C6_10  and  C7_11 
REMARK    8  A    between atoms: C7_11  and  N2_12 
REMARK    9  A    between atoms: N2_12  and  C8_15 
REMARK   10  A    between atoms: C8_15  and  C9_16 
REMARK   11  A    between atoms: C9_16  and  C10_17 
REMARK   12  A    between atoms: C10_17  and  N3_18 
REMARK   13  A    between atoms: N3_18  and  C11_20 
ROOT
HETATM    1  N2  UNL     1      37.159  21.221  32.846  1.00  0.00    -0.075 N 
ATOM      2  H21 UNL     1      36.677  21.547  32.008  1.00  0.00     0.277 HD
ATOM      3  H22 UNL     1      37.830  21.979  32.966  1.00  0.00     0.277 HD
ENDROOT
BRANCH   1   4
HETATM    4  C7  UNL     1      37.836  19.989  32.587  1.00  0.00     0.234 C 
BRANCH   4   5
HETATM    5  C6  UNL     1      39.339  20.069  32.683  1.00  0.00     0.047 C 
BRANCH   5   6
HETATM    6  C5  UNL     1      39.785  19.492  34.004  1.00  0.00     0.122 C 
BRANCH   6   7
HETATM    7  N1  UNL     1      40.667  20.417  34.671  1.00  0.00    -0.384 N 
ATOM      8  H1  UNL     1      40.284  21.296  35.020  1.00  0.00     0.160 HD
BRANCH   7   9
HETATM    9  C4  UNL     1      42.040  20.153  34.860  1.00  0.00     0.073 C 
HETATM   10  S1  UNL     1      42.531  18.634  35.156  1.00  0.00    -0.066 SA
BRANCH   9  11
HETATM   11  C3  UNL     1      43.016  21.255  34.787  1.00  0.00     0.078 C 
BRANCH  11  12
HETATM   12  C2  UNL     1      43.539  21.353  33.372  1.00  0.00     0.110 C 
BRANCH  12  13
HETATM   13  C1  UNL     1      44.437  22.532  33.209  1.00  0.00     0.220 C 
HETATM   14  O1  UNL     1      44.877  23.127  34.224  1.00  0.00    -0.273 OA
HETATM   15  N5  UNL     1      44.798  22.982  31.915  1.00  0.00    -0.352 N 
HETATM   16  C20 UNL     1      44.269  22.288  30.732  1.00  0.00     0.128 C 
HETATM   17  C24 UNL     1      45.659  24.098  31.668  1.00  0.00     0.128 C 
HETATM   18  C21 UNL     1      43.360  23.336  30.084  1.00  0.00     0.057 C 
HETATM   19  C22 UNL     1      44.250  24.439  29.596  1.00  0.00     0.173 C 
HETATM   20  F1  UNL     1      45.015  23.947  28.556  1.00  0.00    -0.249 F 
HETATM   21  C23 UNL     1      45.084  25.077  30.676  1.00  0.00     0.057 C 
ENDBRANCH  12  13
ENDBRANCH  11  12
ENDBRANCH   9  11
ENDBRANCH   7   9
ENDBRANCH   6   7
ENDBRANCH   5   6
ENDBRANCH   4   5
ENDBRANCH   1   4
BRANCH   1  22
HETATM   22  C8  UNL     1      36.246  21.171  33.967  1.00  0.00     0.234 C 
BRANCH  22  23
HETATM   23  C9  UNL     1      36.933  21.666  35.228  1.00  0.00     0.047 C 
BRANCH  23  24
HETATM   24  C10 UNL     1      37.078  20.557  36.238  1.00  0.00     0.121 C 
BRANCH  24  25
HETATM   25  N3  UNL     1      37.700  20.944  37.456  1.00  0.00    -0.389 N 
ATOM     26  H3  UNL     1      37.067  21.137  38.232  1.00  0.00     0.159 HD
BRANCH  25  27
HETATM   27  C11 UNL     1      38.931  21.081  37.708  1.00  0.00     0.042 A 
HETATM   28  C12 UNL     1      39.572  22.279  37.550  1.00  0.00     0.047 A 
HETATM   29  C13 UNL     1      40.912  22.356  37.835  1.00  0.00     0.090 A 
HETATM   30  N4  UNL     1      41.605  21.276  38.266  1.00  0.00    -0.365 N 
HETATM   31  C14 UNL     1      41.000  20.078  38.432  1.00  0.00     0.046 A 
ATOM     32  H4  UNL     1      42.600  21.367  38.468  1.00  0.00     0.165 HD
HETATM   33  C15 UNL     1      41.740  19.015  38.870  1.00  0.00     0.056 A 
HETATM   34  C19 UNL     1      39.639  19.960  38.154  1.00  0.00     0.019 A 
HETATM   35  C16 UNL     1      41.105  17.804  39.032  1.00  0.00     0.058 A 
HETATM   36 CL1  UNL     1      42.008  16.405  39.593  1.00  0.00    -0.082 Cl
HETATM   37  C17 UNL     1      39.751  17.649  38.765  1.00  0.00     0.056 A 
HETATM   38 CL2  UNL     1      38.982  16.074  38.991  1.00  0.00    -0.083 Cl
HETATM   39  C18 UNL     1      39.028  18.738  38.325  1.00  0.00     0.041 A 
ENDBRANCH  25  27
ENDBRANCH  24  25
ENDBRANCH  23  24
ENDBRANCH  22  23
ENDBRANCH   1  22
TORSDOF 13
ENDMDL
MODEL 3
REMARK VINA RESULT: -6.144032160      7.369     11.080
REMARK  13 active torsions:
REMARK  status: ('A' for Active; 'I' for Inactive)
REMARK    1  A    between atoms: C1_2  and  C2_3 
REMARK       I    between atoms: C1_2  and  N5_33 
REMARK    2  A    between atoms: C2_3  and  C3_4 
REMARK    3  A    between atoms: C3_4  and  C4_5 
REMARK    4  A    between atoms: C4_5  and  N1_7 
REMARK    5  A    between atoms: N1_7  and  C5_9 
REMARK    6  A    between atoms: C5_9  and  C6_10 
REMARK    7  A    between atoms: C6_10  and  C7_11 
REMARK    8  A    between atoms: C7_11  and  N2_12 
REMARK    9  A    between atoms: N2_12  and  C8_15 
REMARK   10  A    between atoms: C8_15  and  C9_16 
REMARK   11  A    between atoms: C9_16  and  C10_17 
REMARK   12  A    between atoms: C10_17  and  N3_18 
REMARK   13  A    between atoms: N3_18  and  C11_20 
ROOT
HETATM    1  N2  UNL     1      35.565  16.487  35.652  1.00  0.00    -0.075 N 
ATOM      2  H21 UNL     1      34.854  17.195  35.468  1.00  0.00     0.277 HD
ATOM      3  H22 UNL     1      35.495  15.944  34.792  1.00  0.00     0.277 HD
ENDROOT
BRANCH   1   4
HETATM    4  C7  UNL     1      35.196  15.688  36.779  1.00  0.00     0.234 C 
BRANCH   4   5
HETATM    5  C6  UNL     1      36.297  15.490  37.792  1.00  0.00     0.047 C 
BRANCH   5   6
HETATM    6  C5  UNL     1      35.799  14.594  38.899  1.00  0.00     0.122 C 
BRANCH   6   7
HETATM    7  N1  UNL     1      36.472  14.915  40.133  1.00  0.00    -0.384 N 
ATOM      8  H1  UNL     1      36.868  15.849  40.246  1.00  0.00     0.160 HD
BRANCH   7   9
HETATM    9  C4  UNL     1      36.605  13.989  41.188  1.00  0.00     0.073 C 
HETATM   10  S1  UNL     1      37.464  12.631  40.959  1.00  0.00    -0.066 SA
BRANCH   9  11
HETATM   11  C3  UNL     1      35.966  14.262  42.488  1.00  0.00     0.078 C 
BRANCH  11  12
HETATM   12  C2  UNL     1      35.478  15.692  42.504  1.00  0.00     0.110 C 
BRANCH  12  13
HETATM   13  C1  UNL     1      33.989  15.755  42.486  1.00  0.00     0.220 C 
HETATM   14  O1  UNL     1      33.319  14.863  43.065  1.00  0.00    -0.273 OA
HETATM   15  N5  UNL     1      33.326  16.815  41.820  1.00  0.00    -0.352 N 
HETATM   16  C20 UNL     1      34.116  17.848  41.136  1.00  0.00     0.128 C 
HETATM   17  C24 UNL     1      31.903  16.955  41.760  1.00  0.00     0.128 C 
HETATM   18  C21 UNL     1      33.774  17.634  39.658  1.00  0.00     0.057 C 
HETATM   19  C22 UNL     1      32.327  17.992  39.493  1.00  0.00     0.173 C 
HETATM   20  F1  UNL     1      32.196  19.354  39.689  1.00  0.00    -0.249 F 
HETATM   21  C23 UNL     1      31.394  17.190  40.360  1.00  0.00     0.057 C 
ENDBRANCH  12  13
ENDBRANCH  11  12
ENDBRANCH   9  11
ENDBRANCH   7   9
ENDBRANCH   6   7
ENDBRANCH   5   6
ENDBRANCH   4   5
ENDBRANCH   1   4
BRANCH   1  22
HETATM   22  C8  UNL     1      36.871  17.098  35.761  1.00  0.00     0.234 C 
BRANCH  22  23
HETATM   23  C9  UNL     1      36.778  18.590  35.492  1.00  0.00     0.047 C 
BRANCH  23  24
HETATM   24  C10 UNL     1      36.307  19.334  36.715  1.00  0.00     0.121 C 
BRANCH  24  25
HETATM   25  N3  UNL     1      37.156  19.209  37.848  1.00  0.00    -0.389 N 
ATOM     26  H3  UNL     1      36.792  18.638  38.611  1.00  0.00     0.159 HD
BRANCH  25  27
HETATM   27  C11 UNL     1      38.300  19.709  38.038  1.00  0.00     0.042 A 
HETATM   28  C12 UNL     1      38.554  21.037  37.826  1.00  0.00     0.047 A 
HETATM   29  C13 UNL     1      39.822  21.512  38.046  1.00  0.00     0.090 A 
HETATM   30  N4  UNL     1      40.819  20.697  38.464  1.00  0.00    -0.365 N 
HETATM   31  C14 UNL     1      40.601  19.381  38.683  1.00  0.00     0.046 A 
ATOM     32  H4  UNL     1      41.750  21.083  38.617  1.00  0.00     0.165 HD
HETATM   33  C15 UNL     1      41.638  18.596  39.106  1.00  0.00     0.056 A 
HETATM   34  C19 UNL     1      39.325  18.860  38.472  1.00  0.00     0.019 A 
HETATM   35  C16 UNL     1      41.394  17.259  39.322  1.00  0.00     0.058 A 
HETATM   36 CL1  UNL     1      42.690  16.206  39.867  1.00  0.00    -0.082 Cl
HETATM   37  C17 UNL     1      40.136  16.705  39.123  1.00  0.00     0.056 A 
HETATM   38 CL2  UNL     1      39.874  14.983  39.417  1.00  0.00    -0.083 Cl
HETATM   39  C18 UNL     1      39.108  17.519  38.696  1.00  0.00     0.041 A 
ENDBRANCH  25  27
ENDBRANCH  24  25
ENDBRANCH  23  24
ENDBRANCH  22  23
ENDBRANCH   1  22
TORSDOF 13
ENDMDL
MODEL 4
REMARK VINA RESULT: -6.120810545      7.103     10.827
REMARK  13 active torsions:
REMARK  status: ('A' for Active; 'I' for Inactive)
REMARK    1  A    between atoms: C1_2  and  C2_3 
REMARK       I    between atoms: C1_2  and  N5_33 
REMARK    2  A    between atoms: C2_3  and  C3_4 
REMARK    3  A    between atoms: C3_4  and  C4_5 
REMARK    4  A    between atoms: C4_5  and  N1_7 
REMARK    5  A    between atoms: N1_7  and  C5_9 
REMARK    6  A    between atoms: C5_9  and  C6_10 
REMARK    7  A    between atoms: C6_10  and  C7_11 
REMARK    8  A    between atoms: C7_11  and  N2_12 
REMARK    9  A    between atoms: N2_12  and  C8_15 
REMARK   10  A    between atoms: C8_15  and  C9_16 
REMARK   11  A    between atoms: C9_16  and  C10_17 
REMARK   12  A    between atoms: C10_17  and  N3_18 
REMARK   13  A    between atoms: N3_18  and  C11_20 
ROOT
HETATM    1  N2  UNL     1      37.434  18.278  34.846  1.00  0.00    -0.075 N 
ATOM      2  H21 UNL     1      38.203  17.855  34.326  1.00  0.00     0.277 HD
ATOM      3  H22 UNL     1      37.903  18.458  35.734  1.00  0.00     0.277 HD
ENDROOT
BRANCH   1   4
HETATM    4  C7  UNL     1      36.371  17.338  35.021  1.00  0.00     0.234 C 
BRANCH   4   5
HETATM    5  C6  UNL     1      36.216  16.826  36.432  1.00  0.00     0.047 C 
BRANCH   5   6
HETATM    6  C5  UNL     1      35.559  17.890  37.278  1.00  0.00     0.122 C 
BRANCH   6   7
HETATM    7  N1  UNL     1      34.712  17.276  38.269  1.00  0.00    -0.384 N 
ATOM      8  H1  UNL     1      34.417  16.309  38.132  1.00  0.00     0.160 HD
BRANCH   7   9
HETATM    9  C4  UNL     1      34.274  17.962  39.422  1.00  0.00     0.073 C 
HETATM   10  S1  UNL     1      32.683  18.144  39.691  1.00  0.00    -0.066 SA
BRANCH   9  11
HETATM   11  C3  UNL     1      35.261  18.504  40.372  1.00  0.00     0.078 C 
BRANCH  11  12
HETATM   12  C2  UNL     1      36.200  17.396  40.790  1.00  0.00     0.110 C 
BRANCH  12  13
HETATM   13  C1  UNL     1      35.588  16.538  41.845  1.00  0.00     0.220 C 
HETATM   14  O1  UNL     1      35.166  17.060  42.907  1.00  0.00    -0.273 OA
HETATM   15  N5  UNL     1      35.479  15.139  41.653  1.00  0.00    -0.352 N 
HETATM   16  C20 UNL     1      35.985  14.535  40.413  1.00  0.00     0.128 C 
HETATM   17  C24 UNL     1      34.900  14.245  42.609  1.00  0.00     0.128 C 
HETATM   18  C21 UNL     1      37.159  13.675  40.892  1.00  0.00     0.057 C 
HETATM   19  C22 UNL     1      36.576  12.572  41.723  1.00  0.00     0.173 C 
HETATM   20  F1  UNL     1      35.851  11.742  40.889  1.00  0.00    -0.249 F 
HETATM   21  C23 UNL     1      35.773  13.051  42.903  1.00  0.00     0.057 C 
ENDBRANCH  12  13
ENDBRANCH  11  12
ENDBRANCH   9  11
ENDBRANCH   7   9
ENDBRANCH   6   7
ENDBRANCH   5   6
ENDBRANCH   4   5
ENDBRANCH   1   4
BRANCH   1  22
HETATM   22  C8  UNL     1      37.029  19.521  34.227  1.00  0.00     0.234 C 
BRANCH  22  23
HETATM   23  C9  UNL     1      37.759  20.690  34.865  1.00  0.00     0.047 C 
BRANCH  23  24
HETATM   24  C10 UNL     1      37.037  21.175  36.095  1.00  0.00     0.121 C 
BRANCH  24  25
HETATM   25  N3  UNL     1      37.678  20.857  37.323  1.00  0.00    -0.389 N 
ATOM     26  H3  UNL     1      37.078  20.449  38.040  1.00  0.00     0.159 HD
BRANCH  25  27
HETATM   27  C11 UNL     1      38.890  21.009  37.646  1.00  0.00     0.042 A 
HETATM   28  C12 UNL     1      39.517  22.221  37.546  1.00  0.00     0.047 A 
HETATM   29  C13 UNL     1      40.838  22.314  37.908  1.00  0.00     0.090 A 
HETATM   30  N4  UNL     1      41.525  21.238  38.357  1.00  0.00    -0.365 N 
HETATM   31  C14 UNL     1      40.933  20.027  38.468  1.00  0.00     0.046 A 
ATOM     32  H4  UNL     1      42.505  21.342  38.617  1.00  0.00     0.165 HD
HETATM   33  C15 UNL     1      41.666  18.968  38.927  1.00  0.00     0.056 A 
HETATM   34  C19 UNL     1      39.592  19.892  38.111  1.00  0.00     0.019 A 
HETATM   35  C16 UNL     1      41.044  17.744  39.032  1.00  0.00     0.058 A 
HETATM   36 CL1  UNL     1      41.939  16.351  39.617  1.00  0.00    -0.082 Cl
HETATM   37  C17 UNL     1      39.711  17.572  38.686  1.00  0.00     0.056 A 
HETATM   38 CL2  UNL     1      38.958  15.981  38.840  1.00  0.00    -0.083 Cl
HETATM   39  C18 UNL     1      38.994  18.657  38.225  1.00  0.00     0.041 A 
ENDBRANCH  25  27
ENDBRANCH  24  25
ENDBRANCH  23  24
ENDBRANCH  22  23
ENDBRANCH   1  22
TORSDOF 13
ENDMDL
MODEL 5
REMARK VINA RESULT: -6.095144807      5.074      7.956
REMARK  13 active torsions:
REMARK  status: ('A' for Active; 'I' for Inactive)
REMARK    1  A    between atoms: C1_2  and  C2_3 
REMARK       I    between atoms: C1_2  and  N5_33 
REMARK    2  A    between atoms: C2_3  and  C3_4 
REMARK    3  A    between atoms: C3_4  and  C4_5 
REMARK    4  A    between atoms: C4_5  and  N1_7 
REMARK    5  A    between atoms: N1_7  and  C5_9 
REMARK    6  A    between atoms: C5_9  and  C6_10 
REMARK    7  A    between atoms: C6_10  and  C7_11 
REMARK    8  A    between atoms: C7_11  and  N2_12 
REMARK    9  A    between atoms: N2_12  and  C8_15 
REMARK   10  A    between atoms: C8_15  and  C9_16 
REMARK   11  A    between atoms: C9_16  and  C10_17 
REMARK   12  A    between atoms: C10_17  and  N3_18 
REMARK   13  A    between atoms: N3_18  and  C11_20 
ROOT
HETATM    1  N2  UNL     1      39.027  20.454  32.146  1.00  0.00    -0.075 N 
ATOM      2  H21 UNL     1      38.643  20.292  33.077  1.00  0.00     0.277 HD
ATOM      3  H22 UNL     1      39.121  21.470  32.172  1.00  0.00     0.277 HD
ENDROOT
BRANCH   1   4
HETATM    4  C7  UNL     1      38.086  20.064  31.142  1.00  0.00     0.234 C 
BRANCH   4   5
HETATM    5  C6  UNL     1      36.780  20.818  31.182  1.00  0.00     0.047 C 
BRANCH   5   6
HETATM    6  C5  UNL     1      35.726  19.954  31.831  1.00  0.00     0.122 C 
BRANCH   6   7
HETATM    7  N1  UNL     1      35.156  20.640  32.963  1.00  0.00    -0.384 N 
ATOM      8  H1  UNL     1      34.306  20.267  33.386  1.00  0.00     0.160 HD
BRANCH   7   9
HETATM    9  C4  UNL     1      35.729  21.808  33.509  1.00  0.00     0.073 C 
HETATM   10  S1  UNL     1      35.118  23.260  33.116  1.00  0.00    -0.066 SA
BRANCH   9  11
HETATM   11  C3  UNL     1      36.874  21.702  34.431  1.00  0.00     0.078 C 
BRANCH  11  12
HETATM   12  C2  UNL     1      36.522  20.736  35.540  1.00  0.00     0.110 C 
BRANCH  12  13
HETATM   13  C1  UNL     1      37.387  19.523  35.493  1.00  0.00     0.220 C 
HETATM   14  O1  UNL     1      37.556  18.917  34.405  1.00  0.00    -0.273 OA
HETATM   15  N5  UNL     1      38.020  19.050  36.669  1.00  0.00    -0.352 N 
HETATM   16  C20 UNL     1      37.808  19.757  37.940  1.00  0.00     0.128 C 
HETATM   17  C24 UNL     1      38.870  17.900  36.713  1.00  0.00     0.128 C 
HETATM   18  C21 UNL     1      37.034  18.742  38.786  1.00  0.00     0.057 C 
HETATM   19  C22 UNL     1      37.969  17.602  39.057  1.00  0.00     0.173 C 
HETATM   20  F1  UNL     1      38.973  18.058  39.889  1.00  0.00    -0.249 F 
HETATM   21  C23 UNL     1      38.503  16.939  37.815  1.00  0.00     0.057 C 
ENDBRANCH  12  13
ENDBRANCH  11  12
ENDBRANCH   9  11
ENDBRANCH   7   9
ENDBRANCH   6   7
ENDBRANCH   5   6
ENDBRANCH   4   5
ENDBRANCH   1   4
BRANCH   1  22
HETATM   22  C8  UNL     1      40.325  19.829  32.017  1.00  0.00     0.234 C 
BRANCH  22  23
HETATM   23  C9  UNL     1      40.847  19.414  33.381  1.00  0.00     0.047 C 
BRANCH  23  24
HETATM   24  C10 UNL     1      42.036  20.248  33.783  1.00  0.00     0.121 C 
BRANCH  24  25
HETATM   25  N3  UNL     1      42.636  19.868  35.015  1.00  0.00    -0.389 N 
ATOM     26  H3  UNL     1      43.543  19.408  34.939  1.00  0.00     0.159 HD
BRANCH  25  27
HETATM   27  C11 UNL     1      42.199  20.023  36.190  1.00  0.00     0.042 A 
HETATM   28  C12 UNL     1      41.649  21.204  36.606  1.00  0.00     0.047 A 
HETATM   29  C13 UNL     1      41.200  21.307  37.899  1.00  0.00     0.090 A 
HETATM   30  N4  UNL     1      41.291  20.268  38.762  1.00  0.00    -0.365 N 
HETATM   31  C14 UNL     1      41.828  19.087  38.381  1.00  0.00     0.046 A 
ATOM     32  H4  UNL     1      40.948  20.377  39.716  1.00  0.00     0.165 HD
HETATM   33  C15 UNL     1      41.899  18.065  39.287  1.00  0.00     0.056 A 
HETATM   34  C19 UNL     1      42.296  18.944  37.075  1.00  0.00     0.019 A 
HETATM   35  C16 UNL     1      42.451  16.871  38.878  1.00  0.00     0.058 A 
HETATM   36 CL1  UNL     1      42.565  15.526  40.001  1.00  0.00    -0.082 Cl
HETATM   37  C17 UNL     1      42.926  16.693  37.586  1.00  0.00     0.056 A 
HETATM   38 CL2  UNL     1      43.623  15.140  37.110  1.00  0.00    -0.083 Cl
HETATM   39  C18 UNL     1      42.842  17.740  36.692  1.00  0.00     0.041 A 
ENDBRANCH  25  27
ENDBRANCH  24  25
ENDBRANCH  23  24
ENDBRANCH  22  23
ENDBRANCH   1  22
TORSDOF 13
ENDMDL
