MODEL 1
REMARK VINA RESULT: -6.956120551      0.000      0.000
REMARK  14 active torsions:
REMARK  status: ('A' for Active; 'I' for Inactive)
REMARK       I    between atoms: C1_2  and  N1_3 
REMARK    1  A    between atoms: C1_2  and  C25_39 
REMARK    2  A    between atoms: N1_3  and  C2_5 
REMARK    3  A    between atoms: C2_5  and  C3_6 
REMARK    4  A    between atoms: C3_6  and  C4_7 
REMARK    5  A    between atoms: C4_7  and  C5_8 
REMARK    6  A    between atoms: C5_8  and  C6_9 
REMARK    7  A    between atoms: C6_9  and  C7_10 
REMARK    8  A    between atoms: C7_10  and  N2_11 
REMARK    9  A    between atoms: N2_11  and  C8_13 
REMARK   10  A    between atoms: C9_16  and  N4_17 
REMARK   11  A    between atoms: N4_17  and  C10_19 
REMARK   12  A    between atoms: C10_19  and  C11_20 
REMARK   13  A    between atoms: C11_20  and  C12_21 
REMARK   14  A    between atoms: C16_26  and  C17_27 
ROOT
HETATM    1  C8  UNL     1      39.954  14.664  39.021  1.00  0.00     0.125 A 
HETATM    2  N3  UNL     1      39.718  13.675  39.886  1.00  0.00    -0.176 N 
ATOM      3  H3  UNL     1      40.509  13.138  40.242  1.00  0.00     0.186 HD
HETATM    4  C9  UNL     1      38.482  13.356  40.308  1.00  0.00     0.679 A 
HETATM    5  N5  UNL     1      37.450  14.093  39.814  1.00  0.00    -0.195 N 
ATOM      6  H5  UNL     1      36.504  13.867  40.122  1.00  0.00     0.184 HD
HETATM    7  C19 UNL     1      37.611  15.097  38.947  1.00  0.00     0.036 A 
HETATM    8  C20 UNL     1      38.882  15.406  38.528  1.00  0.00     0.009 A 
HETATM    9  C21 UNL     1      39.071  16.512  37.565  1.00  0.00     0.044 C 
HETATM   10  C22 UNL     1      38.091  17.594  37.917  1.00  0.00     0.005 C 
HETATM   11  C23 UNL     1      36.662  17.136  37.867  1.00  0.00     0.006 C 
HETATM   12  C24 UNL     1      36.407  15.819  38.486  1.00  0.00     0.058 C 
ENDROOT
BRANCH   1  13
HETATM   13  N2  UNL     1      41.123  15.007  38.587  1.00  0.00    -0.375 N 
ATOM     14  H2  UNL     1      41.323  14.851  37.599  1.00  0.00     0.161 HD
BRANCH  13  15
HETATM   15  C7  UNL     1      42.144  15.583  39.383  1.00  0.00     0.121 C 
BRANCH  15  16
HETATM   16  C6  UNL     1      42.299  17.041  39.228  1.00  0.00     0.020 C 
BRANCH  16  17
HETATM   17  C5  UNL     1      41.356  17.951  39.918  1.00  0.00     0.002 C 
BRANCH  17  18
HETATM   18  C4  UNL     1      41.087  19.281  39.305  1.00  0.00     0.005 C 
BRANCH  18  19
HETATM   19  C3  UNL     1      41.800  19.425  38.006  1.00  0.00     0.044 C 
BRANCH  19  20
HETATM   20  C2  UNL     1      41.822  20.733  37.361  1.00  0.00     0.064 C 
BRANCH  20  21
HETATM   21  N1  UNL     1      41.399  21.884  38.050  1.00  0.00    -0.340 N 
HETATM   22  C1  UNL     1      40.791  23.077  37.690  1.00  0.00     0.225 C 
HETATM   23  O1  UNL     1      40.461  23.446  36.559  1.00  0.00    -0.273 OA
ATOM     24  H1  UNL     1      41.583  21.828  39.051  1.00  0.00     0.167 HD
BRANCH  22  25
HETATM   25  C25 UNL     1      40.478  24.077  38.806  1.00  0.00     0.078 A 
HETATM   26  C26 UNL     1      40.469  25.517  38.454  1.00  0.00     0.015 A 
HETATM   27  C27 UNL     1      41.644  24.948  39.157  1.00  0.00     0.015 A 
ENDBRANCH  22  25
ENDBRANCH  20  21
ENDBRANCH  19  20
ENDBRANCH  18  19
ENDBRANCH  17  18
ENDBRANCH  16  17
ENDBRANCH  15  16
ENDBRANCH  13  15
ENDBRANCH   1  13
BRANCH   4  28
HETATM   28  N4  UNL     1      38.260  12.401  41.143  1.00  0.00    -0.226 N 
ATOM     29  H4  UNL     1      39.012  11.782  41.449  1.00  0.00     0.177 HD
BRANCH  28  30
HETATM   30  C10 UNL     1      36.909  12.235  41.633  1.00  0.00     0.142 C 
BRANCH  30  31
HETATM   31  C11 UNL     1      36.672  13.026  42.904  1.00  0.00     0.058 C 
BRANCH  31  32
HETATM   32  C12 UNL     1      35.560  13.970  42.760  1.00  0.00    -0.056 A 
HETATM   33  C13 UNL     1      34.292  13.525  43.131  1.00  0.00     0.009 A 
HETATM   34  C14 UNL     1      33.182  14.336  43.032  1.00  0.00     0.025 A 
HETATM   35  C15 UNL     1      33.299  15.624  42.557  1.00  0.00     0.045 A 
HETATM   36 CL1  UNL     1      31.898  16.685  42.418  1.00  0.00    -0.084 Cl
HETATM   37  C16 UNL     1      34.560  16.088  42.180  1.00  0.00     0.028 A 
HETATM   38  C18 UNL     1      35.663  15.259  42.287  1.00  0.00     0.021 A 
BRANCH  37  39
HETATM   39  C17 UNL     1      34.638  17.474  41.677  1.00  0.00     0.388 C 
HETATM   40  F1  UNL     1      35.978  17.859  41.612  1.00  0.00    -0.209 F 
HETATM   41  F2  UNL     1      34.113  17.461  40.385  1.00  0.00    -0.209 F 
ENDBRANCH  37  39
ENDBRANCH  31  32
ENDBRANCH  30  31
ENDBRANCH  28  30
ENDBRANCH   4  28
TORSDOF 14
ENDMDL
MODEL 2
REMARK VINA RESULT: -6.884151010      2.607      4.047
REMARK  14 active torsions:
REMARK  status: ('A' for Active; 'I' for Inactive)
REMARK       I    between atoms: C1_2  and  N1_3 
REMARK    1  A    between atoms: C1_2  and  C25_39 
REMARK    2  A    between atoms: N1_3  and  C2_5 
REMARK    3  A    between atoms: C2_5  and  C3_6 
REMARK    4  A    between atoms: C3_6  and  C4_7 
REMARK    5  A    between atoms: C4_7  and  C5_8 
REMARK    6  A    between atoms: C5_8  and  C6_9 
REMARK    7  A    between atoms: C6_9  and  C7_10 
REMARK    8  A    between atoms: C7_10  and  N2_11 
REMARK    9  A    between atoms: N2_11  and  C8_13 
REMARK   10  A    between atoms: C9_16  and  N4_17 
REMARK   11  A    between atoms: N4_17  and  C10_19 
REMARK   12  A    between atoms: C10_19  and  C11_20 
REMARK   13  A    between atoms: C11_20  and  C12_21 
REMARK   14  A    between atoms: C16_26  and  C17_27 
ROOT
HETATM    1  C8  UNL     1      38.587  17.336  37.610  1.00  0.00     0.125 A 
HETATM    2  N3  UNL     1      37.698  17.627  38.562  1.00  0.00    -0.176 N 
ATOM      3  H3  UNL     1      37.567  16.965  39.327  1.00  0.00     0.186 HD
HETATM    4  C9  UNL     1      36.967  18.755  38.555  1.00  0.00     0.679 A 
HETATM    5  N5  UNL     1      37.167  19.616  37.521  1.00  0.00    -0.195 N 
ATOM      6  H5  UNL     1      36.622  20.478  37.497  1.00  0.00     0.184 HD
HETATM    7  C19 UNL     1      38.039  19.392  36.534  1.00  0.00     0.036 A 
HETATM    8  C20 UNL     1      38.776  18.233  36.560  1.00  0.00     0.009 A 
HETATM    9  C21 UNL     1      39.741  17.972  35.470  1.00  0.00     0.044 C 
HETATM   10  C22 UNL     1      40.378  19.282  35.103  1.00  0.00     0.005 C 
HETATM   11  C23 UNL     1      39.387  20.313  34.647  1.00  0.00     0.006 C 
HETATM   12  C24 UNL     1      38.162  20.407  35.468  1.00  0.00     0.058 C 
ENDROOT
BRANCH   1  13
HETATM   13  N2  UNL     1      39.312  16.266  37.573  1.00  0.00    -0.375 N 
ATOM     14  H2  UNL     1      39.852  16.090  36.726  1.00  0.00     0.161 HD
BRANCH  13  15
HETATM   15  C7  UNL     1      39.411  15.320  38.624  1.00  0.00     0.121 C 
BRANCH  15  16
HETATM   16  C6  UNL     1      40.778  15.100  39.131  1.00  0.00     0.020 C 
BRANCH  16  17
HETATM   17  C5  UNL     1      41.620  16.267  39.482  1.00  0.00     0.002 C 
BRANCH  17  18
HETATM   18  C4  UNL     1      42.561  16.790  38.453  1.00  0.00     0.005 C 
BRANCH  18  19
HETATM   19  C3  UNL     1      42.250  18.206  38.115  1.00  0.00     0.044 C 
BRANCH  19  20
HETATM   20  C2  UNL     1      41.525  19.016  39.088  1.00  0.00     0.064 C 
BRANCH  20  21
HETATM   21  N1  UNL     1      40.884  20.206  38.701  1.00  0.00    -0.340 N 
HETATM   22  C1  UNL     1      41.242  21.317  37.953  1.00  0.00     0.225 C 
HETATM   23  O1  UNL     1      42.328  21.546  37.412  1.00  0.00    -0.273 OA
ATOM     24  H1  UNL     1      39.930  20.267  39.055  1.00  0.00     0.167 HD
BRANCH  22  25
HETATM   25  C25 UNL     1      40.187  22.410  37.759  1.00  0.00     0.078 A 
HETATM   26  C26 UNL     1      40.562  23.586  36.937  1.00  0.00     0.015 A 
HETATM   27  C27 UNL     1      40.556  23.704  38.415  1.00  0.00     0.015 A 
ENDBRANCH  22  25
ENDBRANCH  20  21
ENDBRANCH  19  20
ENDBRANCH  18  19
ENDBRANCH  17  18
ENDBRANCH  16  17
ENDBRANCH  15  16
ENDBRANCH  13  15
ENDBRANCH   1  13
BRANCH   4  28
HETATM   28  N4  UNL     1      36.110  19.030  39.477  1.00  0.00    -0.226 N 
ATOM     29  H4  UNL     1      36.393  19.498  40.338  1.00  0.00     0.177 HD
BRANCH  28  30
HETATM   30  C10 UNL     1      34.731  18.653  39.249  1.00  0.00     0.142 C 
BRANCH  30  31
HETATM   31  C11 UNL     1      34.066  18.164  40.520  1.00  0.00     0.058 C 
BRANCH  31  32
HETATM   32  C12 UNL     1      34.696  16.942  41.029  1.00  0.00    -0.056 A 
HETATM   33  C13 UNL     1      35.045  16.919  42.379  1.00  0.00     0.009 A 
HETATM   34  C14 UNL     1      35.643  15.817  42.953  1.00  0.00     0.025 A 
HETATM   35  C15 UNL     1      35.914  14.698  42.197  1.00  0.00     0.045 A 
HETATM   36 CL1  UNL     1      36.678  13.273  42.903  1.00  0.00    -0.084 Cl
HETATM   37  C16 UNL     1      35.572  14.702  40.844  1.00  0.00     0.028 A 
HETATM   38  C18 UNL     1      34.973  15.817  40.286  1.00  0.00     0.021 A 
BRANCH  37  39
HETATM   39  C17 UNL     1      35.881  13.481  40.074  1.00  0.00     0.388 C 
HETATM   40  F1  UNL     1      34.702  12.766  39.862  1.00  0.00    -0.209 F 
HETATM   41  F2  UNL     1      36.378  13.901  38.840  1.00  0.00    -0.209 F 
ENDBRANCH  37  39
ENDBRANCH  31  32
ENDBRANCH  30  31
ENDBRANCH  28  30
ENDBRANCH   4  28
TORSDOF 14
ENDMDL
MODEL 3
REMARK VINA RESULT: -6.875678968      2.715      4.501
REMARK  14 active torsions:
REMARK  status: ('A' for Active; 'I' for Inactive)
REMARK       I    between atoms: C1_2  and  N1_3 
REMARK    1  A    between atoms: C1_2  and  C25_39 
REMARK    2  A    between atoms: N1_3  and  C2_5 
REMARK    3  A    between atoms: C2_5  and  C3_6 
REMARK    4  A    between atoms: C3_6  and  C4_7 
REMARK    5  A    between atoms: C4_7  and  C5_8 
REMARK    6  A    between atoms: C5_8  and  C6_9 
REMARK    7  A    between atoms: C6_9  and  C7_10 
REMARK    8  A    between atoms: C7_10  and  N2_11 
REMARK    9  A    between atoms: N2_11  and  C8_13 
REMARK   10  A    between atoms: C9_16  and  N4_17 
REMARK   11  A    between atoms: N4_17  and  C10_19 
REMARK   12  A    between atoms: C10_19  and  C11_20 
REMARK   13  A    between atoms: C11_20  and  C12_21 
REMARK   14  A    between atoms: C16_26  and  C17_27 
ROOT
HETATM    1  C8  UNL     1      41.013  16.723  35.952  1.00  0.00     0.125 A 
HETATM    2  N3  UNL     1      39.763  16.708  36.419  1.00  0.00    -0.176 N 
ATOM      3  H3  UNL     1      39.451  15.898  36.955  1.00  0.00     0.186 HD
HETATM    4  C9  UNL     1      38.896  17.715  36.214  1.00  0.00     0.679 A 
HETATM    5  N5  UNL     1      39.344  18.780  35.495  1.00  0.00    -0.195 N 
ATOM      6  H5  UNL     1      38.702  19.555  35.328  1.00  0.00     0.184 HD
HETATM    7  C19 UNL     1      40.581  18.865  34.998  1.00  0.00     0.036 A 
HETATM    8  C20 UNL     1      41.451  17.825  35.219  1.00  0.00     0.009 A 
HETATM    9  C21 UNL     1      42.821  17.905  34.668  1.00  0.00     0.044 C 
HETATM   10  C22 UNL     1      43.277  19.331  34.791  1.00  0.00     0.005 C 
HETATM   11  C23 UNL     1      42.394  20.300  34.058  1.00  0.00     0.006 C 
HETATM   12  C24 UNL     1      40.944  20.076  34.234  1.00  0.00     0.058 C 
ENDROOT
BRANCH   1  13
HETATM   13  N2  UNL     1      41.881  15.780  36.123  1.00  0.00    -0.375 N 
ATOM     14  H2  UNL     1      42.759  15.848  35.609  1.00  0.00     0.161 HD
BRANCH  13  15
HETATM   15  C7  UNL     1      41.701  14.660  36.974  1.00  0.00     0.121 C 
BRANCH  15  16
HETATM   16  C6  UNL     1      42.384  14.759  38.277  1.00  0.00     0.020 C 
BRANCH  16  17
HETATM   17  C5  UNL     1      41.704  15.435  39.406  1.00  0.00     0.002 C 
BRANCH  17  18
HETATM   18  C4  UNL     1      42.266  16.726  39.892  1.00  0.00     0.005 C 
BRANCH  18  19
HETATM   19  C3  UNL     1      41.374  17.864  39.540  1.00  0.00     0.044 C 
BRANCH  19  20
HETATM   20  C2  UNL     1      41.884  18.905  38.654  1.00  0.00     0.064 C 
BRANCH  20  21
HETATM   21  N1  UNL     1      41.127  20.059  38.386  1.00  0.00    -0.340 N 
HETATM   22  C1  UNL     1      41.368  21.269  37.755  1.00  0.00     0.225 C 
HETATM   23  O1  UNL     1      42.423  21.657  37.243  1.00  0.00    -0.273 OA
ATOM     24  H1  UNL     1      40.173  19.990  38.741  1.00  0.00     0.167 HD
BRANCH  22  25
HETATM   25  C25 UNL     1      40.210  22.267  37.668  1.00  0.00     0.078 A 
HETATM   26  C26 UNL     1      40.436  23.513  36.897  1.00  0.00     0.015 A 
HETATM   27  C27 UNL     1      40.491  23.555  38.378  1.00  0.00     0.015 A 
ENDBRANCH  22  25
ENDBRANCH  20  21
ENDBRANCH  19  20
ENDBRANCH  18  19
ENDBRANCH  17  18
ENDBRANCH  16  17
ENDBRANCH  15  16
ENDBRANCH  13  15
ENDBRANCH   1  13
BRANCH   4  28
HETATM   28  N4  UNL     1      37.691  17.695  36.668  1.00  0.00    -0.226 N 
ATOM     29  H4  UNL     1      37.074  16.901  36.492  1.00  0.00     0.177 HD
BRANCH  28  30
HETATM   30  C10 UNL     1      37.242  18.836  37.436  1.00  0.00     0.142 C 
BRANCH  30  31
HETATM   31  C11 UNL     1      37.577  18.688  38.907  1.00  0.00     0.058 C 
BRANCH  31  32
HETATM   32  C12 UNL     1      36.418  18.248  39.689  1.00  0.00    -0.056 A 
HETATM   33  C13 UNL     1      35.155  18.496  39.153  1.00  0.00     0.009 A 
HETATM   34  C14 UNL     1      34.003  18.122  39.813  1.00  0.00     0.025 A 
HETATM   35  C15 UNL     1      34.073  17.487  41.032  1.00  0.00     0.045 A 
HETATM   36 CL1  UNL     1      32.618  16.996  41.900  1.00  0.00    -0.084 Cl
HETATM   37  C16 UNL     1      35.328  17.230  41.585  1.00  0.00     0.028 A 
HETATM   38  C18 UNL     1      36.473  17.612  40.908  1.00  0.00     0.021 A 
BRANCH  37  39
HETATM   39  C17 UNL     1      35.354  16.546  42.893  1.00  0.00     0.388 C 
HETATM   40  F1  UNL     1      35.748  15.220  42.705  1.00  0.00    -0.209 F 
HETATM   41  F2  UNL     1      36.318  17.195  43.665  1.00  0.00    -0.209 F 
ENDBRANCH  37  39
ENDBRANCH  31  32
ENDBRANCH  30  31
ENDBRANCH  28  30
ENDBRANCH   4  28
TORSDOF 14
ENDMDL
MODEL 4
REMARK VINA RESULT: -6.834640766      4.786      7.179
REMARK  14 active torsions:
REMARK  status: ('A' for Active; 'I' for Inactive)
REMARK       I    between atoms: C1_2  and  N1_3 
REMARK    1  A    between atoms: C1_2  and  C25_39 
REMARK    2  A    between atoms: N1_3  and  C2_5 
REMARK    3  A    between atoms: C2_5  and  C3_6 
REMARK    4  A    between atoms: C3_6  and  C4_7 
REMARK    5  A    between atoms: C4_7  and  C5_8 
REMARK    6  A    between atoms: C5_8  and  C6_9 
REMARK    7  A    between atoms: C6_9  and  C7_10 
REMARK    8  A    between atoms: C7_10  and  N2_11 
REMARK    9  A    between atoms: N2_11  and  C8_13 
REMARK   10  A    between atoms: C9_16  and  N4_17 
REMARK   11  A    between atoms: N4_17  and  C10_19 
REMARK   12  A    between atoms: C10_19  and  C11_20 
REMARK   13  A    between atoms: C11_20  and  C12_21 
REMARK   14  A    between atoms: C16_26  and  C17_27 
ROOT
HETATM    1  C8  UNL     1      37.732  16.727  38.790  1.00  0.00     0.125 A 
HETATM    2  N3  UNL     1      38.113  17.721  37.985  1.00  0.00    -0.176 N 
ATOM      3  H3  UNL     1      38.859  17.545  37.312  1.00  0.00     0.186 HD
HETATM    4  C9  UNL     1      37.556  18.944  38.022  1.00  0.00     0.679 A 
HETATM    5  N5  UNL     1      36.563  19.143  38.931  1.00  0.00    -0.195 N 
ATOM      6  H5  UNL     1      36.127  20.065  38.976  1.00  0.00     0.184 HD
HETATM    7  C19 UNL     1      36.129  18.197  39.768  1.00  0.00     0.036 A 
HETATM    8  C20 UNL     1      36.712  16.955  39.714  1.00  0.00     0.009 A 
HETATM    9  C21 UNL     1      36.244  15.901  40.639  1.00  0.00     0.044 C 
HETATM   10  C22 UNL     1      34.755  16.048  40.780  1.00  0.00     0.005 C 
HETATM   11  C23 UNL     1      34.343  17.390  41.313  1.00  0.00     0.006 C 
HETATM   12  C24 UNL     1      35.044  18.542  40.709  1.00  0.00     0.058 C 
ENDROOT
BRANCH   1  13
HETATM   13  N2  UNL     1      38.236  15.537  38.792  1.00  0.00    -0.375 N 
ATOM     14  H2  UNL     1      37.737  14.813  39.307  1.00  0.00     0.161 HD
BRANCH  13  15
HETATM   15  C7  UNL     1      39.434  15.166  38.129  1.00  0.00     0.121 C 
BRANCH  15  16
HETATM   16  C6  UNL     1      40.581  14.915  39.021  1.00  0.00     0.020 C 
BRANCH  16  17
HETATM   17  C5  UNL     1      41.381  16.059  39.517  1.00  0.00     0.002 C 
BRANCH  17  18
HETATM   18  C4  UNL     1      42.336  16.708  38.577  1.00  0.00     0.005 C 
BRANCH  18  19
HETATM   19  C3  UNL     1      41.803  18.007  38.085  1.00  0.00     0.044 C 
BRANCH  19  20
HETATM   20  C2  UNL     1      41.627  19.098  39.038  1.00  0.00     0.064 C 
BRANCH  20  21
HETATM   21  N1  UNL     1      41.012  20.302  38.651  1.00  0.00    -0.340 N 
HETATM   22  C1  UNL     1      41.377  21.383  37.865  1.00  0.00     0.225 C 
HETATM   23  O1  UNL     1      42.447  21.563  37.275  1.00  0.00    -0.273 OA
ATOM     24  H1  UNL     1      40.076  20.403  39.041  1.00  0.00     0.167 HD
BRANCH  22  25
HETATM   25  C25 UNL     1      40.353  22.509  37.688  1.00  0.00     0.078 A 
HETATM   26  C26 UNL     1      40.812  23.756  37.031  1.00  0.00     0.015 A 
HETATM   27  C27 UNL     1      40.669  23.722  38.507  1.00  0.00     0.015 A 
ENDBRANCH  22  25
ENDBRANCH  20  21
ENDBRANCH  19  20
ENDBRANCH  18  19
ENDBRANCH  17  18
ENDBRANCH  16  17
ENDBRANCH  15  16
ENDBRANCH  13  15
ENDBRANCH   1  13
BRANCH   4  28
HETATM   28  N4  UNL     1      37.928  19.898  37.242  1.00  0.00    -0.226 N 
ATOM     29  H4  UNL     1      38.877  20.272  37.280  1.00  0.00     0.177 HD
BRANCH  28  30
HETATM   30  C10 UNL     1      36.954  20.423  36.309  1.00  0.00     0.142 C 
BRANCH  30  31
HETATM   31  C11 UNL     1      36.832  19.550  35.076  1.00  0.00     0.058 C 
BRANCH  31  32
HETATM   32  C12 UNL     1      36.165  20.251  33.975  1.00  0.00    -0.056 A 
HETATM   33  C13 UNL     1      35.795  19.492  32.865  1.00  0.00     0.009 A 
HETATM   34  C14 UNL     1      35.163  20.058  31.778  1.00  0.00     0.025 A 
HETATM   35  C15 UNL     1      34.878  21.406  31.762  1.00  0.00     0.045 A 
HETATM   36 CL1  UNL     1      34.072  22.159  30.386  1.00  0.00    -0.084 Cl
HETATM   37  C16 UNL     1      35.241  22.182  32.863  1.00  0.00     0.028 A 
HETATM   38  C18 UNL     1      35.874  21.596  33.944  1.00  0.00     0.021 A 
BRANCH  37  39
HETATM   39  C17 UNL     1      34.915  23.621  32.801  1.00  0.00     0.388 C 
HETATM   40  F1  UNL     1      35.171  24.199  34.045  1.00  0.00    -0.209 F 
HETATM   41  F2  UNL     1      35.775  24.185  31.859  1.00  0.00    -0.209 F 
ENDBRANCH  37  39
ENDBRANCH  31  32
ENDBRANCH  30  31
ENDBRANCH  28  30
ENDBRANCH   4  28
TORSDOF 14
ENDMDL
MODEL 5
REMARK VINA RESULT: -6.819423642      5.130      8.488
REMARK  14 active torsions:
REMARK  status: ('A' for Active; 'I' for Inactive)
REMARK       I    between atoms: C1_2  and  N1_3 
REMARK    1  A    between atoms: C1_2  and  C25_39 
REMARK    2  A    between atoms: N1_3  and  C2_5 
REMARK    3  A    between atoms: C2_5  and  C3_6 
REMARK    4  A    between atoms: C3_6  and  C4_7 
REMARK    5  A    between atoms: C4_7  and  C5_8 
REMARK    6  A    between atoms: C5_8  and  C6_9 
REMARK    7  A    between atoms: C6_9  and  C7_10 
REMARK    8  A    between atoms: C7_10  and  N2_11 
REMARK    9  A    between atoms: N2_11  and  C8_13 
REMARK   10  A    between atoms: C9_16  and  N4_17 
REMARK   11  A    between atoms: N4_17  and  C10_19 
REMARK   12  A    between atoms: C10_19  and  C11_20 
REMARK   13  A    between atoms: C11_20  and  C12_21 
REMARK   14  A    between atoms: C16_26  and  C17_27 
ROOT
HETATM    1  C8  UNL     1      36.016  19.750  33.491  1.00  0.00     0.125 A 
HETATM    2  N3  UNL     1      36.438  19.795  34.757  1.00  0.00    -0.176 N 
ATOM      3  H3  UNL     1      36.739  18.928  35.202  1.00  0.00     0.186 HD
HETATM    4  C9  UNL     1      36.482  20.934  35.471  1.00  0.00     0.679 A 
HETATM    5  N5  UNL     1      36.073  22.071  34.846  1.00  0.00    -0.195 N 
ATOM      6  H5  UNL     1      36.099  22.946  35.370  1.00  0.00     0.184 HD
HETATM    7  C19 UNL     1      35.640  22.103  33.583  1.00  0.00     0.036 A 
HETATM    8  C20 UNL     1      35.602  20.929  32.872  1.00  0.00     0.009 A 
HETATM    9  C21 UNL     1      35.119  20.951  31.474  1.00  0.00     0.044 C 
HETATM   10  C22 UNL     1      35.617  22.219  30.842  1.00  0.00     0.005 C 
HETATM   11  C23 UNL     1      35.142  23.457  31.547  1.00  0.00     0.006 C 
HETATM   12  C24 UNL     1      35.224  23.404  33.021  1.00  0.00     0.058 C 
ENDROOT
BRANCH   1  13
HETATM   13  N2  UNL     1      35.955  18.682  32.766  1.00  0.00    -0.375 N 
ATOM     14  H2  UNL     1      36.420  18.700  31.859  1.00  0.00     0.161 HD
BRANCH  13  15
HETATM   15  C7  UNL     1      35.289  17.487  33.141  1.00  0.00     0.121 C 
BRANCH  15  16
HETATM   16  C6  UNL     1      36.181  16.381  33.534  1.00  0.00     0.020 C 
BRANCH  16  17
HETATM   17  C5  UNL     1      36.433  16.123  34.971  1.00  0.00     0.002 C 
BRANCH  17  18
HETATM   18  C4  UNL     1      35.464  16.667  35.962  1.00  0.00     0.005 C 
BRANCH  18  19
HETATM   19  C3  UNL     1      34.778  15.570  36.698  1.00  0.00     0.044 C 
BRANCH  19  20
HETATM   20  C2  UNL     1      33.908  15.914  37.817  1.00  0.00     0.064 C 
BRANCH  20  21
HETATM   21  N1  UNL     1      34.384  16.689  38.889  1.00  0.00    -0.340 N 
HETATM   22  C1  UNL     1      34.029  17.899  39.462  1.00  0.00     0.225 C 
HETATM   23  O1  UNL     1      33.124  18.664  39.112  1.00  0.00    -0.273 OA
ATOM     24  H1  UNL     1      35.181  16.257  39.357  1.00  0.00     0.167 HD
BRANCH  22  25
HETATM   25  C25 UNL     1      34.835  18.375  40.674  1.00  0.00     0.078 A 
HETATM   26  C26 UNL     1      35.736  17.394  41.325  1.00  0.00     0.015 A 
HETATM   27  C27 UNL     1      34.427  17.705  41.949  1.00  0.00     0.015 A 
ENDBRANCH  22  25
ENDBRANCH  20  21
ENDBRANCH  19  20
ENDBRANCH  18  19
ENDBRANCH  17  18
ENDBRANCH  16  17
ENDBRANCH  15  16
ENDBRANCH  13  15
ENDBRANCH   1  13
BRANCH   4  28
HETATM   28  N4  UNL     1      36.891  20.970  36.692  1.00  0.00    -0.226 N 
ATOM     29  H4  UNL     1      36.515  21.649  37.354  1.00  0.00     0.177 HD
BRANCH  28  30
HETATM   30  C10 UNL     1      37.901  20.014  37.092  1.00  0.00     0.142 C 
BRANCH  30  31
HETATM   31  C11 UNL     1      37.381  19.058  38.146  1.00  0.00     0.058 C 
BRANCH  31  32
HETATM   32  C12 UNL     1      38.375  18.040  38.498  1.00  0.00    -0.056 A 
HETATM   33  C13 UNL     1      37.958  16.709  38.490  1.00  0.00     0.009 A 
HETATM   34  C14 UNL     1      38.818  15.679  38.807  1.00  0.00     0.025 A 
HETATM   35  C15 UNL     1      40.127  15.942  39.144  1.00  0.00     0.045 A 
HETATM   36 CL1  UNL     1      41.250  14.646  39.555  1.00  0.00    -0.084 Cl
HETATM   37  C16 UNL     1      40.563  17.267  39.158  1.00  0.00     0.028 A 
HETATM   38  C18 UNL     1      39.687  18.288  38.837  1.00  0.00     0.021 A 
BRANCH  37  39
HETATM   39  C17 UNL     1      41.974  17.501  39.525  1.00  0.00     0.388 C 
HETATM   40  F1  UNL     1      42.711  17.748  38.366  1.00  0.00    -0.209 F 
HETATM   41  F2  UNL     1      41.996  18.645  40.322  1.00  0.00    -0.209 F 
ENDBRANCH  37  39
ENDBRANCH  31  32
ENDBRANCH  30  31
ENDBRANCH  28  30
ENDBRANCH   4  28
TORSDOF 14
ENDMDL
