MODEL 1
REMARK VINA RESULT: -7.404549648      0.000      0.000
REMARK  7 active torsions:
REMARK  status: ('A' for Active; 'I' for Inactive)
REMARK    1  A    between atoms: C2_2  and  N1_3 
REMARK    2  A    between atoms: C7_10  and  N3_11 
REMARK    3  A    between atoms: N3_11  and  C8_13 
REMARK    4  A    between atoms: C8_13  and  C9_14 
REMARK    5  A    between atoms: C9_14  and  N4_15 
REMARK    6  A    between atoms: C14_22  and  N6_23 
REMARK    7  A    between atoms: N6_23  and  C15_25 
ROOT
HETATM    1  C1  UNL     1      -4.827   4.796  14.214  1.00  0.00     0.097 A 
HETATM    2  C2  UNL     1      -4.321   5.439  13.105  1.00  0.00     0.122 A 
HETATM    3  N2  UNL     1      -3.241   4.881  12.475  1.00  0.00    -0.177 N 
ATOM      4  H2  UNL     1      -2.851   5.344  11.654  1.00  0.00     0.185 HD
HETATM    5  C7  UNL     1      -2.683   3.743  12.910  1.00  0.00     0.681 A 
HETATM    6  N5  UNL     1      -3.217   3.135  14.015  1.00  0.00    -0.177 N 
ATOM      7  H5  UNL     1      -2.793   2.269  14.347  1.00  0.00     0.185 HD
HETATM    8  C14 UNL     1      -4.273   3.628  14.681  1.00  0.00     0.120 A 
ENDROOT
BRANCH   5   9
HETATM    9  N3  UNL     1      -1.677   3.243  12.305  1.00  0.00    -0.224 N 
ATOM     10  H3  UNL     1      -0.760   3.429  12.711  1.00  0.00     0.177 HD
BRANCH   9  11
HETATM   11  C8  UNL     1      -1.705   2.455  11.124  1.00  0.00     0.168 C 
BRANCH  11  12
HETATM   12  C9  UNL     1      -1.931   0.996  11.397  1.00  0.00     0.292 C 
BRANCH  12  13
HETATM   13  N4  UNL     1      -3.039   0.423  10.692  1.00  0.00     0.090 N 
HETATM   14  C10 UNL     1      -3.428  -0.799  11.410  1.00  0.00     0.272 C 
HETATM   15  C11 UNL     1      -4.211  -0.258  12.581  1.00  0.00     0.032 C 
HETATM   16  C12 UNL     1      -4.961   0.907  11.965  1.00  0.00     0.032 C 
HETATM   17  C13 UNL     1      -4.185   1.266  10.702  1.00  0.00     0.272 C 
ENDBRANCH  12  13
ENDBRANCH  11  12
ENDBRANCH   9  11
ENDBRANCH   5   9
BRANCH   2  18
HETATM   18  N1  UNL     1      -4.933   6.636  12.647  1.00  0.00    -0.367 N 
HETATM   19  C3  UNL     1      -6.339   6.954  12.759  1.00  0.00     0.124 C 
HETATM   20  C4  UNL     1      -6.627   7.573  11.411  1.00  0.00     0.021 C 
HETATM   21  C5  UNL     1      -5.403   8.412  11.161  1.00  0.00     0.021 C 
HETATM   22  C6  UNL     1      -4.329   7.772  12.001  1.00  0.00     0.124 C 
ENDBRANCH   2  18
BRANCH   8  23
HETATM   23  N6  UNL     1      -4.777   3.082  15.711  1.00  0.00    -0.371 N 
ATOM     24  H6  UNL     1      -4.451   3.444  16.608  1.00  0.00     0.161 HD
BRANCH  23  25
HETATM   25  C15 UNL     1      -5.739   2.030  15.780  1.00  0.00     0.083 C 
HETATM   26  C16 UNL     1      -5.160   0.865  16.529  1.00  0.00     0.025 C 
HETATM   27  C17 UNL     1      -6.108   0.532  17.668  1.00  0.00     0.002 C 
HETATM   28  C18 UNL     1      -7.402   1.218  17.246  1.00  0.00     0.002 C 
HETATM   29  C19 UNL     1      -6.853   2.517  16.703  1.00  0.00     0.025 C 
ENDBRANCH  23  25
ENDBRANCH   8  23
TORSDOF 7
ENDMDL
MODEL 2
REMARK VINA RESULT: -7.219301892      0.849      5.463
REMARK  7 active torsions:
REMARK  status: ('A' for Active; 'I' for Inactive)
REMARK    1  A    between atoms: C2_2  and  N1_3 
REMARK    2  A    between atoms: C7_10  and  N3_11 
REMARK    3  A    between atoms: N3_11  and  C8_13 
REMARK    4  A    between atoms: C8_13  and  C9_14 
REMARK    5  A    between atoms: C9_14  and  N4_15 
REMARK    6  A    between atoms: C14_22  and  N6_23 
REMARK    7  A    between atoms: N6_23  and  C15_25 
ROOT
HETATM    1  C1  UNL     1      -5.685   4.464  14.649  1.00  0.00     0.097 A 
HETATM    2  C2  UNL     1      -5.093   3.288  15.055  1.00  0.00     0.122 A 
HETATM    3  N2  UNL     1      -3.946   2.892  14.420  1.00  0.00    -0.177 N 
ATOM      4  H2  UNL     1      -3.494   2.023  14.705  1.00  0.00     0.185 HD
HETATM    5  C7  UNL     1      -3.403   3.618  13.432  1.00  0.00     0.681 A 
HETATM    6  N5  UNL     1      -4.022   4.780  13.060  1.00  0.00    -0.177 N 
ATOM      7  H5  UNL     1      -3.610   5.333  12.309  1.00  0.00     0.185 HD
HETATM    8  C14 UNL     1      -5.148   5.226  13.638  1.00  0.00     0.120 A 
ENDROOT
BRANCH   5   9
HETATM    9  N3  UNL     1      -2.333   3.227  12.856  1.00  0.00    -0.224 N 
ATOM     10  H3  UNL     1      -1.474   3.273  13.405  1.00  0.00     0.177 HD
BRANCH   9  11
HETATM   11  C8  UNL     1      -2.217   2.735  11.530  1.00  0.00     0.168 C 
BRANCH  11  12
HETATM   12  C9  UNL     1      -2.368   1.244  11.441  1.00  0.00     0.292 C 
BRANCH  12  13
HETATM   13  N4  UNL     1      -3.624   0.802  10.911  1.00  0.00     0.090 N 
HETATM   14  C10 UNL     1      -3.382  -0.470  10.218  1.00  0.00     0.272 C 
HETATM   15  C11 UNL     1      -3.302  -1.456  11.358  1.00  0.00     0.032 C 
HETATM   16  C12 UNL     1      -4.361  -0.941  12.313  1.00  0.00     0.032 C 
HETATM   17  C13 UNL     1      -4.574   0.520  11.932  1.00  0.00     0.272 C 
ENDBRANCH  12  13
ENDBRANCH  11  12
ENDBRANCH   9  11
ENDBRANCH   5   9
BRANCH   2  18
HETATM   18  N1  UNL     1      -5.672   2.539  16.113  1.00  0.00    -0.367 N 
HETATM   19  C3  UNL     1      -5.013   1.487  16.854  1.00  0.00     0.124 C 
HETATM   20  C4  UNL     1      -6.109   0.455  16.973  1.00  0.00     0.021 C 
HETATM   21  C5  UNL     1      -7.329   1.293  17.248  1.00  0.00     0.021 C 
HETATM   22  C6  UNL     1      -6.990   2.648  16.684  1.00  0.00     0.124 C 
ENDBRANCH   2  18
BRANCH   8  23
HETATM   23  N6  UNL     1      -5.741   6.298  13.301  1.00  0.00    -0.371 N 
ATOM     24  H6  UNL     1      -6.192   6.811  14.059  1.00  0.00     0.161 HD
BRANCH  23  25
HETATM   25  C15 UNL     1      -5.859   6.879  12.003  1.00  0.00     0.083 C 
HETATM   26  C16 UNL     1      -7.132   7.670  11.917  1.00  0.00     0.025 C 
HETATM   27  C17 UNL     1      -6.771   9.080  11.484  1.00  0.00     0.002 C 
HETATM   28  C18 UNL     1      -5.373   8.910  10.901  1.00  0.00     0.002 C 
HETATM   29  C19 UNL     1      -4.777   7.952  11.905  1.00  0.00     0.025 C 
ENDBRANCH  23  25
ENDBRANCH   8  23
TORSDOF 7
ENDMDL
MODEL 3
REMARK VINA RESULT: -7.153634962      1.573      2.197
REMARK  7 active torsions:
REMARK  status: ('A' for Active; 'I' for Inactive)
REMARK    1  A    between atoms: C2_2  and  N1_3 
REMARK    2  A    between atoms: C7_10  and  N3_11 
REMARK    3  A    between atoms: N3_11  and  C8_13 
REMARK    4  A    between atoms: C8_13  and  C9_14 
REMARK    5  A    between atoms: C9_14  and  N4_15 
REMARK    6  A    between atoms: C14_22  and  N6_23 
REMARK    7  A    between atoms: N6_23  and  C15_25 
ROOT
HETATM    1  C1  UNL     1      -4.138   4.908  14.649  1.00  0.00     0.097 A 
HETATM    2  C2  UNL     1      -3.070   5.588  14.105  1.00  0.00     0.122 A 
HETATM    3  N2  UNL     1      -2.186   4.886  13.331  1.00  0.00    -0.177 N 
ATOM      4  H2  UNL     1      -1.388   5.373  12.921  1.00  0.00     0.185 HD
HETATM    5  C7  UNL     1      -2.342   3.576  13.098  1.00  0.00     0.681 A 
HETATM    6  N5  UNL     1      -3.416   2.937  13.656  1.00  0.00    -0.177 N 
ATOM      7  H5  UNL     1      -3.536   1.940  13.480  1.00  0.00     0.185 HD
HETATM    8  C14 UNL     1      -4.320   3.563  14.426  1.00  0.00     0.120 A 
ENDROOT
BRANCH   5   9
HETATM    9  N3  UNL     1      -1.504   2.943  12.372  1.00  0.00    -0.224 N 
ATOM     10  H3  UNL     1      -0.541   2.913  12.706  1.00  0.00     0.177 HD
BRANCH   9  11
HETATM   11  C8  UNL     1      -1.776   2.279  11.148  1.00  0.00     0.168 C 
BRANCH  11  12
HETATM   12  C9  UNL     1      -1.925   0.793  11.306  1.00  0.00     0.292 C 
BRANCH  12  13
HETATM   13  N4  UNL     1      -3.029   0.225  10.590  1.00  0.00     0.090 N 
HETATM   14  C10 UNL     1      -3.402  -1.018  11.279  1.00  0.00     0.272 C 
HETATM   15  C11 UNL     1      -4.187  -0.514  12.465  1.00  0.00     0.032 C 
HETATM   16  C12 UNL     1      -4.951   0.657  11.880  1.00  0.00     0.032 C 
HETATM   17  C13 UNL     1      -4.183   1.055  10.624  1.00  0.00     0.272 C 
ENDBRANCH  12  13
ENDBRANCH  11  12
ENDBRANCH   9  11
ENDBRANCH   5   9
BRANCH   2  18
HETATM   18  N1  UNL     1      -2.928   6.981  14.348  1.00  0.00    -0.367 N 
HETATM   19  C3  UNL     1      -2.789   7.999  13.332  1.00  0.00     0.124 C 
HETATM   20  C4  UNL     1      -1.722   8.889  13.924  1.00  0.00     0.021 C 
HETATM   21  C5  UNL     1      -2.099   8.939  15.380  1.00  0.00     0.021 C 
HETATM   22  C6  UNL     1      -2.898   7.682  15.606  1.00  0.00     0.124 C 
ENDBRANCH   2  18
BRANCH   8  23
HETATM   23  N6  UNL     1      -5.318   2.986  14.958  1.00  0.00    -0.371 N 
ATOM     24  H6  UNL     1      -6.121   2.837  14.346  1.00  0.00     0.161 HD
BRANCH  23  25
HETATM   25  C15 UNL     1      -5.467   2.520  16.299  1.00  0.00     0.083 C 
HETATM   26  C16 UNL     1      -6.908   2.613  16.709  1.00  0.00     0.025 C 
HETATM   27  C17 UNL     1      -7.342   1.237  17.183  1.00  0.00     0.002 C 
HETATM   28  C18 UNL     1      -6.016   0.535  17.453  1.00  0.00     0.002 C 
HETATM   29  C19 UNL     1      -5.211   1.015  16.269  1.00  0.00     0.025 C 
ENDBRANCH  23  25
ENDBRANCH   8  23
TORSDOF 7
ENDMDL
MODEL 4
REMARK VINA RESULT: -7.065653045      2.085      5.306
REMARK  7 active torsions:
REMARK  status: ('A' for Active; 'I' for Inactive)
REMARK    1  A    between atoms: C2_2  and  N1_3 
REMARK    2  A    between atoms: C7_10  and  N3_11 
REMARK    3  A    between atoms: N3_11  and  C8_13 
REMARK    4  A    between atoms: C8_13  and  C9_14 
REMARK    5  A    between atoms: C9_14  and  N4_15 
REMARK    6  A    between atoms: C14_22  and  N6_23 
REMARK    7  A    between atoms: N6_23  and  C15_25 
ROOT
HETATM    1  C1  UNL     1      -4.024   4.952  14.832  1.00  0.00     0.097 A 
HETATM    2  C2  UNL     1      -4.120   3.599  14.589  1.00  0.00     0.122 A 
HETATM    3  N2  UNL     1      -3.222   3.036  13.722  1.00  0.00    -0.177 N 
ATOM      4  H2  UNL     1      -3.279   2.035  13.528  1.00  0.00     0.185 HD
HETATM    5  C7  UNL     1      -2.272   3.765  13.121  1.00  0.00     0.681 A 
HETATM    6  N5  UNL     1      -2.210   5.105  13.390  1.00  0.00    -0.177 N 
ATOM      7  H5  UNL     1      -1.488   5.661  12.934  1.00  0.00     0.185 HD
HETATM    8  C14 UNL     1      -3.058   5.722  14.228  1.00  0.00     0.120 A 
ENDROOT
BRANCH   5   9
HETATM    9  N3  UNL     1      -1.447   3.216  12.317  1.00  0.00    -0.224 N 
ATOM     10  H3  UNL     1      -0.458   3.284  12.558  1.00  0.00     0.177 HD
BRANCH   9  11
HETATM   11  C8  UNL     1      -1.766   2.520  11.122  1.00  0.00     0.168 C 
BRANCH  11  12
HETATM   12  C9  UNL     1      -1.899   1.038  11.323  1.00  0.00     0.292 C 
BRANCH  12  13
HETATM   13  N4  UNL     1      -2.999   0.438  10.626  1.00  0.00     0.090 N 
HETATM   14  C10 UNL     1      -3.329  -0.811  11.326  1.00  0.00     0.272 C 
HETATM   15  C11 UNL     1      -4.108  -0.323  12.522  1.00  0.00     0.032 C 
HETATM   16  C12 UNL     1      -4.912   0.826  11.945  1.00  0.00     0.032 C 
HETATM   17  C13 UNL     1      -4.174   1.239  10.676  1.00  0.00     0.272 C 
ENDBRANCH  12  13
ENDBRANCH  11  12
ENDBRANCH   9  11
ENDBRANCH   5   9
BRANCH   2  18
HETATM   18  N1  UNL     1      -5.123   2.838  15.246  1.00  0.00    -0.367 N 
HETATM   19  C3  UNL     1      -6.480   3.272  15.490  1.00  0.00     0.124 C 
HETATM   20  C4  UNL     1      -6.715   2.784  16.900  1.00  0.00     0.021 C 
HETATM   21  C5  UNL     1      -6.057   1.430  16.899  1.00  0.00     0.021 C 
HETATM   22  C6  UNL     1      -5.037   1.508  15.793  1.00  0.00     0.124 C 
ENDBRANCH   2  18
BRANCH   8  23
HETATM   23  N6  UNL     1      -3.021   6.966  14.484  1.00  0.00    -0.371 N 
ATOM     24  H6  UNL     1      -3.927   7.421  14.600  1.00  0.00     0.161 HD
BRANCH  23  25
HETATM   25  C15 UNL     1      -1.880   7.810  14.631  1.00  0.00     0.083 C 
HETATM   26  C16 UNL     1      -1.969   8.953  13.661  1.00  0.00     0.025 C 
HETATM   27  C17 UNL     1      -1.850  10.242  14.455  1.00  0.00     0.002 C 
HETATM   28  C18 UNL     1      -1.243   9.776  15.773  1.00  0.00     0.002 C 
HETATM   29  C19 UNL     1      -2.016   8.496  15.988  1.00  0.00     0.025 C 
ENDBRANCH  23  25
ENDBRANCH   8  23
TORSDOF 7
ENDMDL
MODEL 5
REMARK VINA RESULT: -6.959505065      1.318      5.543
REMARK  7 active torsions:
REMARK  status: ('A' for Active; 'I' for Inactive)
REMARK    1  A    between atoms: C2_2  and  N1_3 
REMARK    2  A    between atoms: C7_10  and  N3_11 
REMARK    3  A    between atoms: N3_11  and  C8_13 
REMARK    4  A    between atoms: C8_13  and  C9_14 
REMARK    5  A    between atoms: C9_14  and  N4_15 
REMARK    6  A    between atoms: C14_22  and  N6_23 
REMARK    7  A    between atoms: N6_23  and  C15_25 
ROOT
HETATM    1  C1  UNL     1      -5.667   4.370  14.728  1.00  0.00     0.097 A 
HETATM    2  C2  UNL     1      -4.937   3.297  15.191  1.00  0.00     0.122 A 
HETATM    3  N2  UNL     1      -3.591   3.276  14.937  1.00  0.00    -0.177 N 
ATOM      4  H2  UNL     1      -3.034   2.488  15.271  1.00  0.00     0.185 HD
HETATM    5  C7  UNL     1      -2.987   4.263  14.261  1.00  0.00     0.681 A 
HETATM    6  N5  UNL     1      -3.749   5.311  13.819  1.00  0.00    -0.177 N 
ATOM      7  H5  UNL     1      -3.290   6.063  13.304  1.00  0.00     0.185 HD
HETATM    8  C14 UNL     1      -5.071   5.395  14.031  1.00  0.00     0.120 A 
ENDROOT
BRANCH   5   9
HETATM    9  N3  UNL     1      -1.732   4.220  14.038  1.00  0.00    -0.224 N 
ATOM     10  H3  UNL     1      -1.125   4.115  14.851  1.00  0.00     0.177 HD
BRANCH   9  11
HETATM   11  C8  UNL     1      -1.094   4.303  12.772  1.00  0.00     0.168 C 
BRANCH  11  12
HETATM   12  C9  UNL     1      -0.863   2.960  12.142  1.00  0.00     0.292 C 
BRANCH  12  13
HETATM   13  N4  UNL     1      -1.479   2.789  10.859  1.00  0.00     0.090 N 
HETATM   14  C10 UNL     1      -1.738   1.353  10.686  1.00  0.00     0.272 C 
HETATM   15  C11 UNL     1      -2.978   1.140  11.520  1.00  0.00     0.032 C 
HETATM   16  C12 UNL     1      -3.768   2.409  11.265  1.00  0.00     0.032 C 
HETATM   17  C13 UNL     1      -2.746   3.431  10.776  1.00  0.00     0.272 C 
ENDBRANCH  12  13
ENDBRANCH  11  12
ENDBRANCH   9  11
ENDBRANCH   5   9
BRANCH   2  18
HETATM   18  N1  UNL     1      -5.589   2.267  15.920  1.00  0.00    -0.367 N 
HETATM   19  C3  UNL     1      -6.911   2.356  16.497  1.00  0.00     0.124 C 
HETATM   20  C4  UNL     1      -6.713   1.691  17.838  1.00  0.00     0.021 C 
HETATM   21  C5  UNL     1      -5.817   0.529  17.505  1.00  0.00     0.021 C 
HETATM   22  C6  UNL     1      -5.116   0.945  16.238  1.00  0.00     0.124 C 
ENDBRANCH   2  18
BRANCH   8  23
HETATM   23  N6  UNL     1      -5.794   6.355  13.622  1.00  0.00    -0.371 N 
ATOM     24  H6  UNL     1      -6.275   6.887  14.348  1.00  0.00     0.161 HD
BRANCH  23  25
HETATM   25  C15 UNL     1      -6.024   6.789  12.282  1.00  0.00     0.083 C 
HETATM   26  C16 UNL     1      -7.299   7.578  12.217  1.00  0.00     0.025 C 
HETATM   27  C17 UNL     1      -6.977   8.927  11.598  1.00  0.00     0.002 C 
HETATM   28  C18 UNL     1      -5.634   8.679  10.921  1.00  0.00     0.002 C 
HETATM   29  C19 UNL     1      -4.954   7.834  11.972  1.00  0.00     0.025 C 
ENDBRANCH  23  25
ENDBRANCH   8  23
TORSDOF 7
ENDMDL
