MODEL 1
REMARK VINA RESULT: -7.339462327      0.000      0.000
REMARK  9 active torsions:
REMARK  status: ('A' for Active; 'I' for Inactive)
REMARK    1  A    between atoms: C2_2  and  C3_3 
REMARK    2  A    between atoms: C3_3  and  C4_4 
REMARK    3  A    between atoms: C4_4  and  C5_5 
REMARK    4  A    between atoms: C5_5  and  O1_6 
REMARK    5  A    between atoms: C5_5  and  C6_8 
REMARK    6  A    between atoms: C9_13  and  C10_14 
REMARK    7  A    between atoms: C10_14  and  O3_15 
REMARK    8  A    between atoms: C10_14  and  C11_17 
REMARK    9  A    between atoms: C15_21  and  O4_22 
ROOT
HETATM    1  C6  UNL     1      -4.452   2.618  14.762  1.00  0.00     0.159 C 
HETATM    2  O2  UNL     1      -3.862   2.133  13.568  1.00  0.00    -0.282 OA
HETATM    3  N1  UNL     1      -4.834   2.641  12.776  1.00  0.00    -0.184 NA
HETATM    4  C7  UNL     1      -4.392   3.910  12.192  1.00  0.00     0.127 C 
HETATM    5  C8  UNL     1      -3.057   4.179  12.767  1.00  0.00     0.015 C 
HETATM    6  C9  UNL     1      -2.213   5.253  12.174  1.00  0.00     0.023 C 
HETATM    7  C14 UNL     1      -1.146   5.355  13.285  1.00  0.00     0.039 C 
HETATM    8  C15 UNL     1      -1.879   4.986  14.588  1.00  0.00     0.123 C 
HETATM    9  C16 UNL     1      -3.282   4.771  14.158  1.00  0.00     0.031 C 
HETATM   10  C17 UNL     1      -4.185   4.017  15.044  1.00  0.00     0.060 C 
HETATM   11  C18 UNL     1      -5.516   4.687  14.957  1.00  0.00    -0.020 C 
HETATM   12  C19 UNL     1      -6.333   3.887  14.310  1.00  0.00    -0.005 C 
HETATM   13  C20 UNL     1      -5.679   2.644  13.906  1.00  0.00     0.152 C 
ENDROOT
BRANCH   1  14
HETATM   14  C5  UNL     1      -4.345   1.672  15.859  1.00  0.00     0.082 C 
BRANCH  14  15
HETATM   15  C4  UNL     1      -5.164   0.664  16.410  1.00  0.00     0.031 C 
BRANCH  15  16
HETATM   16  C3  UNL     1      -5.976   0.707  17.416  1.00  0.00    -0.024 C 
BRANCH  16  17
HETATM   17  C2  UNL     1      -7.394   1.208  17.281  1.00  0.00     0.022 C 
HETATM   18  C1  UNL     1      -7.458   2.696  17.479  1.00  0.00     0.009 C 
ENDBRANCH  16  17
ENDBRANCH  15  16
ENDBRANCH  14  15
BRANCH  14  19
HETATM   19  O1  UNL     1      -3.182   1.796  16.495  1.00  0.00    -0.362 OA
ATOM     20  H1  UNL     1      -2.796   2.658  16.389  1.00  0.00     0.217 HD
ENDBRANCH  14  19
ENDBRANCH   1  14
BRANCH   8  21
HETATM   21  O4  UNL     1      -1.306   3.912  15.230  1.00  0.00    -0.395 OA
ATOM     22  H4  UNL     1      -0.707   4.177  15.917  1.00  0.00     0.210 HD
ENDBRANCH   8  21
BRANCH   6  23
HETATM   23  C10 UNL     1      -1.541   4.868  10.896  1.00  0.00     0.126 C 
BRANCH  23  24
HETATM   24  O3  UNL     1      -0.802   5.929  10.348  1.00  0.00    -0.395 OA
ATOM     25  H3  UNL     1      -1.361   6.592   9.961  1.00  0.00     0.210 HD
ENDBRANCH  23  24
BRANCH  23  26
HETATM   26  C11 UNL     1      -0.572   3.726  10.999  1.00  0.00     0.006 C 
HETATM   27  C12 UNL     1      -1.187   2.428  10.458  1.00  0.00     0.012 C 
HETATM   28  C13 UNL     1       0.760   3.904  10.381  1.00  0.00     0.012 C 
ENDBRANCH  23  26
ENDBRANCH   6  23
TORSDOF 9
ENDMDL
MODEL 2
REMARK VINA RESULT: -6.927131124      2.898      4.441
REMARK  9 active torsions:
REMARK  status: ('A' for Active; 'I' for Inactive)
REMARK    1  A    between atoms: C2_2  and  C3_3 
REMARK    2  A    between atoms: C3_3  and  C4_4 
REMARK    3  A    between atoms: C4_4  and  C5_5 
REMARK    4  A    between atoms: C5_5  and  O1_6 
REMARK    5  A    between atoms: C5_5  and  C6_8 
REMARK    6  A    between atoms: C9_13  and  C10_14 
REMARK    7  A    between atoms: C10_14  and  O3_15 
REMARK    8  A    between atoms: C10_14  and  C11_17 
REMARK    9  A    between atoms: C15_21  and  O4_22 
ROOT
HETATM    1  C6  UNL     1      -4.349   3.514  13.661  1.00  0.00     0.159 C 
HETATM    2  O2  UNL     1      -5.511   4.315  13.533  1.00  0.00    -0.282 OA
HETATM    3  N1  UNL     1      -4.934   5.400  14.099  1.00  0.00    -0.184 NA
HETATM    4  C7  UNL     1      -4.476   6.325  13.059  1.00  0.00     0.127 C 
HETATM    5  C8  UNL     1      -4.765   5.662  11.770  1.00  0.00     0.015 C 
HETATM    6  C9  UNL     1      -4.672   6.449  10.510  1.00  0.00     0.023 C 
HETATM    7  C14 UNL     1      -4.721   5.283   9.498  1.00  0.00     0.039 C 
HETATM    8  C15 UNL     1      -4.066   4.091  10.220  1.00  0.00     0.123 C 
HETATM    9  C16 UNL     1      -3.641   4.655  11.525  1.00  0.00     0.031 C 
HETATM   10  C17 UNL     1      -3.348   3.730  12.633  1.00  0.00     0.060 C 
HETATM   11  C18 UNL     1      -2.171   4.296  13.353  1.00  0.00    -0.020 C 
HETATM   12  C19 UNL     1      -2.581   4.735  14.522  1.00  0.00    -0.005 C 
HETATM   13  C20 UNL     1      -4.015   4.524  14.715  1.00  0.00     0.152 C 
ENDROOT
BRANCH   1  14
HETATM   14  C5  UNL     1      -4.657   2.144  14.033  1.00  0.00     0.082 C 
BRANCH  14  15
HETATM   15  C4  UNL     1      -4.700   1.406  15.234  1.00  0.00     0.031 C 
BRANCH  15  16
HETATM   16  C3  UNL     1      -5.227   1.704  16.378  1.00  0.00    -0.024 C 
BRANCH  16  17
HETATM   17  C2  UNL     1      -5.972   0.686  17.207  1.00  0.00     0.022 C 
HETATM   18  C1  UNL     1      -7.413   1.079  17.370  1.00  0.00     0.009 C 
ENDBRANCH  16  17
ENDBRANCH  15  16
ENDBRANCH  14  15
BRANCH  14  19
HETATM   19  O1  UNL     1      -4.976   1.413  12.967  1.00  0.00    -0.362 OA
ATOM     20  H1  UNL     1      -5.908   1.418  12.784  1.00  0.00     0.217 HD
ENDBRANCH  14  19
ENDBRANCH   1  14
BRANCH   8  21
HETATM   21  O4  UNL     1      -4.905   3.005  10.312  1.00  0.00    -0.395 OA
ATOM     22  H4  UNL     1      -5.819   3.241  10.208  1.00  0.00     0.210 HD
ENDBRANCH   8  21
BRANCH   6  23
HETATM   23  C10 UNL     1      -5.838   7.350  10.262  1.00  0.00     0.126 C 
BRANCH  23  24
HETATM   24  O3  UNL     1      -6.993   6.634   9.911  1.00  0.00    -0.395 OA
ATOM     25  H3  UNL     1      -6.908   6.208   9.066  1.00  0.00     0.210 HD
ENDBRANCH  23  24
BRANCH  23  26
HETATM   26  C11 UNL     1      -6.245   8.208  11.425  1.00  0.00     0.006 C 
HETATM   27  C12 UNL     1      -6.190   9.698  11.059  1.00  0.00     0.012 C 
HETATM   28  C13 UNL     1      -7.555   7.929  12.052  1.00  0.00     0.012 C 
ENDBRANCH  23  26
ENDBRANCH   6  23
TORSDOF 9
ENDMDL
MODEL 3
REMARK VINA RESULT: -6.811606702      1.703      6.454
REMARK  9 active torsions:
REMARK  status: ('A' for Active; 'I' for Inactive)
REMARK    1  A    between atoms: C2_2  and  C3_3 
REMARK    2  A    between atoms: C3_3  and  C4_4 
REMARK    3  A    between atoms: C4_4  and  C5_5 
REMARK    4  A    between atoms: C5_5  and  O1_6 
REMARK    5  A    between atoms: C5_5  and  C6_8 
REMARK    6  A    between atoms: C9_13  and  C10_14 
REMARK    7  A    between atoms: C10_14  and  O3_15 
REMARK    8  A    between atoms: C10_14  and  C11_17 
REMARK    9  A    between atoms: C15_21  and  O4_22 
ROOT
HETATM    1  C6  UNL     1      -2.097   4.578  12.799  1.00  0.00     0.159 C 
HETATM    2  O2  UNL     1      -1.827   4.030  14.078  1.00  0.00    -0.282 OA
HETATM    3  N1  UNL     1      -2.711   4.838  14.708  1.00  0.00    -0.184 NA
HETATM    4  C7  UNL     1      -3.969   4.124  14.937  1.00  0.00     0.127 C 
HETATM    5  C8  UNL     1      -3.802   2.796  14.310  1.00  0.00     0.015 C 
HETATM    6  C9  UNL     1      -4.796   1.726  14.597  1.00  0.00     0.023 C 
HETATM    7  C14 UNL     1      -4.387   0.721  13.497  1.00  0.00     0.039 C 
HETATM    8  C15 UNL     1      -3.852   1.583  12.339  1.00  0.00     0.123 C 
HETATM    9  C16 UNL     1      -4.047   2.976  12.812  1.00  0.00     0.031 C 
HETATM   10  C17 UNL     1      -3.290   4.057  12.158  1.00  0.00     0.060 C 
HETATM   11  C18 UNL     1      -4.218   5.222  12.065  1.00  0.00    -0.020 C 
HETATM   12  C19 UNL     1      -3.797   6.145  12.900  1.00  0.00    -0.005 C 
HETATM   13  C20 UNL     1      -2.594   5.727  13.619  1.00  0.00     0.152 C 
ENDROOT
BRANCH   1  14
HETATM   14  C5  UNL     1      -0.898   4.719  11.992  1.00  0.00     0.082 C 
BRANCH  14  15
HETATM   15  C4  UNL     1      -0.449   5.608  10.993  1.00  0.00     0.031 C 
BRANCH  15  16
HETATM   16  C3  UNL     1      -0.994   5.943   9.868  1.00  0.00    -0.024 C 
BRANCH  16  17
HETATM   17  C2  UNL     1      -1.583   4.922   8.926  1.00  0.00     0.022 C 
HETATM   18  C1  UNL     1      -2.975   5.310   8.515  1.00  0.00     0.009 C 
ENDBRANCH  16  17
ENDBRANCH  15  16
ENDBRANCH  14  15
BRANCH  14  19
HETATM   19  O1  UNL     1      -0.010   3.767  12.271  1.00  0.00    -0.362 OA
ATOM     20  H1  UNL     1      -0.175   2.961  11.796  1.00  0.00     0.217 HD
ENDBRANCH  14  19
ENDBRANCH   1  14
BRANCH   8  21
HETATM   21  O4  UNL     1      -2.555   1.269  12.004  1.00  0.00    -0.395 OA
ATOM     22  H4  UNL     1      -2.387   1.364  11.074  1.00  0.00     0.210 HD
ENDBRANCH   8  21
BRANCH   6  23
HETATM   23  C10 UNL     1      -4.627   1.073  15.931  1.00  0.00     0.126 C 
BRANCH  23  24
HETATM   24  O3  UNL     1      -3.365   1.330  16.488  1.00  0.00    -0.395 OA
ATOM     25  H3  UNL     1      -3.239   0.878  17.314  1.00  0.00     0.210 HD
ENDBRANCH  23  24
BRANCH  23  26
HETATM   26  C11 UNL     1      -5.614   1.493  16.981  1.00  0.00     0.006 C 
HETATM   27  C12 UNL     1      -6.708   2.390  16.386  1.00  0.00     0.012 C 
HETATM   28  C13 UNL     1      -6.264   0.426  17.772  1.00  0.00     0.012 C 
ENDBRANCH  23  26
ENDBRANCH   6  23
TORSDOF 9
ENDMDL
MODEL 4
REMARK VINA RESULT: -6.793751285      1.563      6.667
REMARK  9 active torsions:
REMARK  status: ('A' for Active; 'I' for Inactive)
REMARK    1  A    between atoms: C2_2  and  C3_3 
REMARK    2  A    between atoms: C3_3  and  C4_4 
REMARK    3  A    between atoms: C4_4  and  C5_5 
REMARK    4  A    between atoms: C5_5  and  O1_6 
REMARK    5  A    between atoms: C5_5  and  C6_8 
REMARK    6  A    between atoms: C9_13  and  C10_14 
REMARK    7  A    between atoms: C10_14  and  O3_15 
REMARK    8  A    between atoms: C10_14  and  C11_17 
REMARK    9  A    between atoms: C15_21  and  O4_22 
ROOT
HETATM    1  C6  UNL     1      -2.073   4.600  12.806  1.00  0.00     0.159 C 
HETATM    2  O2  UNL     1      -1.800   4.042  14.080  1.00  0.00    -0.282 OA
HETATM    3  N1  UNL     1      -2.678   4.849  14.720  1.00  0.00    -0.184 NA
HETATM    4  C7  UNL     1      -3.938   4.138  14.948  1.00  0.00     0.127 C 
HETATM    5  C8  UNL     1      -3.778   2.814  14.311  1.00  0.00     0.015 C 
HETATM    6  C9  UNL     1      -4.775   1.745  14.595  1.00  0.00     0.023 C 
HETATM    7  C14 UNL     1      -4.374   0.747  13.487  1.00  0.00     0.039 C 
HETATM    8  C15 UNL     1      -3.840   1.615  12.332  1.00  0.00     0.123 C 
HETATM    9  C16 UNL     1      -4.029   3.005  12.816  1.00  0.00     0.031 C 
HETATM   10  C17 UNL     1      -3.270   4.087  12.166  1.00  0.00     0.060 C 
HETATM   11  C18 UNL     1      -4.194   5.257  12.085  1.00  0.00    -0.020 C 
HETATM   12  C19 UNL     1      -3.767   6.172  12.925  1.00  0.00    -0.005 C 
HETATM   13  C20 UNL     1      -2.563   5.745  13.636  1.00  0.00     0.152 C 
ENDROOT
BRANCH   1  14
HETATM   14  C5  UNL     1      -0.877   4.743  11.995  1.00  0.00     0.082 C 
BRANCH  14  15
HETATM   15  C4  UNL     1      -0.542   4.535  10.640  1.00  0.00     0.031 C 
BRANCH  15  16
HETATM   16  C3  UNL     1       0.196   3.624  10.093  1.00  0.00    -0.024 C 
BRANCH  16  17
HETATM   17  C2  UNL     1       1.408   3.966   9.261  1.00  0.00     0.022 C 
HETATM   18  C1  UNL     1       2.442   4.678  10.086  1.00  0.00     0.009 C 
ENDBRANCH  16  17
ENDBRANCH  15  16
ENDBRANCH  14  15
BRANCH  14  19
HETATM   19  O1  UNL     1       0.152   5.176  12.720  1.00  0.00    -0.362 OA
ATOM     20  H1  UNL     1      -0.116   5.548  13.552  1.00  0.00     0.217 HD
ENDBRANCH  14  19
ENDBRANCH   1  14
BRANCH   8  21
HETATM   21  O4  UNL     1      -2.546   1.298  11.990  1.00  0.00    -0.395 OA
ATOM     22  H4  UNL     1      -1.925   1.967  12.254  1.00  0.00     0.210 HD
ENDBRANCH   8  21
BRANCH   6  23
HETATM   23  C10 UNL     1      -4.602   1.082  15.923  1.00  0.00     0.126 C 
BRANCH  23  24
HETATM   24  O3  UNL     1      -3.349   1.356  16.492  1.00  0.00    -0.395 OA
ATOM     25  H3  UNL     1      -3.421   1.870  17.287  1.00  0.00     0.210 HD
ENDBRANCH  23  24
BRANCH  23  26
HETATM   26  C11 UNL     1      -5.604   1.474  16.971  1.00  0.00     0.006 C 
HETATM   27  C12 UNL     1      -6.680   2.401  16.389  1.00  0.00     0.012 C 
HETATM   28  C13 UNL     1      -6.276   0.385  17.712  1.00  0.00     0.012 C 
ENDBRANCH  23  26
ENDBRANCH   6  23
TORSDOF 9
ENDMDL
MODEL 5
REMARK VINA RESULT: -6.746143533      3.592      5.590
REMARK  9 active torsions:
REMARK  status: ('A' for Active; 'I' for Inactive)
REMARK    1  A    between atoms: C2_2  and  C3_3 
REMARK    2  A    between atoms: C3_3  and  C4_4 
REMARK    3  A    between atoms: C4_4  and  C5_5 
REMARK    4  A    between atoms: C5_5  and  O1_6 
REMARK    5  A    between atoms: C5_5  and  C6_8 
REMARK    6  A    between atoms: C9_13  and  C10_14 
REMARK    7  A    between atoms: C10_14  and  O3_15 
REMARK    8  A    between atoms: C10_14  and  C11_17 
REMARK    9  A    between atoms: C15_21  and  O4_22 
ROOT
HETATM    1  C6  UNL     1      -4.207   3.302  12.137  1.00  0.00     0.159 C 
HETATM    2  O2  UNL     1      -5.219   4.212  12.533  1.00  0.00    -0.282 OA
HETATM    3  N1  UNL     1      -4.371   4.978  13.257  1.00  0.00    -0.184 NA
HETATM    4  C7  UNL     1      -3.961   6.148  12.478  1.00  0.00     0.127 C 
HETATM    5  C8  UNL     1      -4.592   5.993  11.150  1.00  0.00     0.015 C 
HETATM    6  C9  UNL     1      -4.598   7.147  10.209  1.00  0.00     0.023 C 
HETATM    7  C14 UNL     1      -5.031   6.402   8.926  1.00  0.00     0.039 C 
HETATM    8  C15 UNL     1      -4.468   4.977   9.074  1.00  0.00     0.123 C 
HETATM    9  C16 UNL     1      -3.720   5.021  10.355  1.00  0.00     0.031 C 
HETATM   10  C17 UNL     1      -3.391   3.750  11.024  1.00  0.00     0.060 C 
HETATM   11  C18 UNL     1      -2.022   3.918  11.594  1.00  0.00    -0.020 C 
HETATM   12  C19 UNL     1      -2.130   3.975  12.902  1.00  0.00    -0.005 C 
HETATM   13  C20 UNL     1      -3.518   3.856  13.344  1.00  0.00     0.152 C 
ENDROOT
BRANCH   1  14
HETATM   14  C5  UNL     1      -4.671   1.926  12.128  1.00  0.00     0.082 C 
BRANCH  14  15
HETATM   15  C4  UNL     1      -4.228   0.704  12.676  1.00  0.00     0.031 C 
BRANCH  15  16
HETATM   16  C3  UNL     1      -4.312  -0.500  12.209  1.00  0.00    -0.024 C 
BRANCH  16  17
HETATM   17  C2  UNL     1      -3.359  -1.022  11.162  1.00  0.00     0.022 C 
HETATM   18  C1  UNL     1      -2.953  -2.437  11.462  1.00  0.00     0.009 C 
ENDBRANCH  16  17
ENDBRANCH  15  16
ENDBRANCH  14  15
BRANCH  14  19
HETATM   19  O1  UNL     1      -5.793   1.797  11.423  1.00  0.00    -0.362 OA
ATOM     20  H1  UNL     1      -5.762   1.070  10.812  1.00  0.00     0.217 HD
ENDBRANCH  14  19
ENDBRANCH   1  14
BRANCH   8  21
HETATM   21  O4  UNL     1      -5.449   4.014   9.016  1.00  0.00    -0.395 OA
ATOM     22  H4  UNL     1      -5.942   4.045   8.205  1.00  0.00     0.210 HD
ENDBRANCH   8  21
BRANCH   6  23
HETATM   23  C10 UNL     1      -5.619   8.190  10.526  1.00  0.00     0.126 C 
BRANCH  23  24
HETATM   24  O3  UNL     1      -5.686   9.183   9.536  1.00  0.00    -0.395 OA
ATOM     25  H3  UNL     1      -6.506   9.661   9.563  1.00  0.00     0.210 HD
ENDBRANCH  23  24
BRANCH  23  26
HETATM   26  C11 UNL     1      -7.027   7.688  10.674  1.00  0.00     0.006 C 
HETATM   27  C12 UNL     1      -7.544   7.905  12.103  1.00  0.00     0.012 C 
HETATM   28  C13 UNL     1      -8.038   8.205   9.727  1.00  0.00     0.012 C 
ENDBRANCH  23  26
ENDBRANCH   6  23
TORSDOF 9
ENDMDL
