MODEL 1
REMARK VINA RESULT: -7.299403729      0.000      0.000
REMARK  5 active torsions:
REMARK  status: ('A' for Active; 'I' for Inactive)
REMARK    1  A    between atoms: S1_3  and  C2_4 
REMARK    2  A    between atoms: C2_4  and  C3_5 
REMARK    3  A    between atoms: C3_5  and  N2_6 
REMARK    4  A    between atoms: C3_5  and  C10_17 
REMARK       I    between atoms: N2_6  and  C4_8 
REMARK       I    between atoms: C4_8  and  N3_10 
REMARK       I    between atoms: C10_17  and  N4_19 
REMARK    5  A    between atoms: N4_19  and  C11_21 
ROOT
HETATM    1  N1  UNL     1      -1.774   1.090  11.599  1.00  0.00    -0.184 NA
HETATM    2  C1  UNL     1      -2.814   1.586  11.520  1.00  0.00     0.133 C 
HETATM    3  S1  UNL     1      -4.424   2.349  11.428  1.00  0.00    -0.048 SA
ENDROOT
BRANCH   3   4
HETATM    4  C2  UNL     1      -4.208   4.119  11.421  1.00  0.00     0.125 C 
BRANCH   4   5
HETATM    5  C3  UNL     1      -4.396   4.691  12.812  1.00  0.00     0.188 C 
BRANCH   5   6
HETATM    6  N2  UNL     1      -4.495   3.520  13.729  1.00  0.00    -0.329 N 
HETATM    7  C4  UNL     1      -5.427   3.602  14.782  1.00  0.00     0.319 C 
HETATM    8  O1  UNL     1      -6.135   4.641  14.915  1.00  0.00    -0.247 OA
HETATM    9  N3  UNL     1      -5.574   2.510  15.702  1.00  0.00    -0.332 N 
HETATM   10  C5  UNL     1      -6.563   2.740  16.730  1.00  0.00     0.129 C 
HETATM   11  C9  UNL     1      -4.706   1.404  15.417  1.00  0.00     0.153 C 
HETATM   12  C6  UNL     1      -7.435   1.530  16.996  1.00  0.00     0.046 C 
HETATM   13  C7  UNL     1      -6.632   0.396  17.600  1.00  0.00     0.169 C 
HETATM   14  O2  UNL     1      -5.263   0.702  17.600  1.00  0.00    -0.389 OA
HETATM   15  C8  UNL     1      -4.774   0.267  16.373  1.00  0.00     0.187 C 
ATOM     16  H2  UNL     1      -3.912   2.694  13.599  1.00  0.00     0.165 HD
ENDBRANCH   5   6
BRANCH   5  17
HETATM   17  C10 UNL     1      -3.267   5.499  13.283  1.00  0.00     0.241 C 
HETATM   18  O3  UNL     1      -2.094   4.999  13.209  1.00  0.00    -0.271 OA
HETATM   19  N4  UNL     1      -3.400   6.777  13.808  1.00  0.00    -0.355 N 
ATOM     20  H4  UNL     1      -4.328   7.194  13.880  1.00  0.00     0.162 HD
BRANCH  19  21
HETATM   21  C11 UNL     1      -2.221   7.548  14.266  1.00  0.00     0.084 C 
HETATM   22  C12 UNL     1      -1.874   8.555  13.244  1.00  0.00     0.025 C 
HETATM   23  C13 UNL     1      -2.149   9.987  13.592  1.00  0.00     0.002 C 
HETATM   24  C14 UNL     1      -1.536  10.398  14.910  1.00  0.00     0.000 C 
HETATM   25  C15 UNL     1      -1.436   9.220  15.859  1.00  0.00     0.002 C 
HETATM   26  C16 UNL     1      -2.518   8.202  15.583  1.00  0.00     0.025 C 
ENDBRANCH  19  21
ENDBRANCH   5  17
ENDBRANCH   4   5
ENDBRANCH   3   4
TORSDOF 5
ENDMDL
MODEL 2
REMARK VINA RESULT: -7.154012335      3.225      5.529
REMARK  5 active torsions:
REMARK  status: ('A' for Active; 'I' for Inactive)
REMARK    1  A    between atoms: S1_3  and  C2_4 
REMARK    2  A    between atoms: C2_4  and  C3_5 
REMARK    3  A    between atoms: C3_5  and  N2_6 
REMARK    4  A    between atoms: C3_5  and  C10_17 
REMARK       I    between atoms: N2_6  and  C4_8 
REMARK       I    between atoms: C4_8  and  N3_10 
REMARK       I    between atoms: C10_17  and  N4_19 
REMARK    5  A    between atoms: N4_19  and  C11_21 
ROOT
HETATM    1  N1  UNL     1      -3.719   1.405  16.298  1.00  0.00    -0.184 NA
HETATM    2  C1  UNL     1      -4.354   2.220  15.782  1.00  0.00     0.133 C 
HETATM    3  S1  UNL     1      -5.349   3.487  15.014  1.00  0.00    -0.048 SA
ENDROOT
BRANCH   3   4
HETATM    4  C2  UNL     1      -4.369   4.970  14.882  1.00  0.00     0.125 C 
BRANCH   4   5
HETATM    5  C3  UNL     1      -3.704   5.058  13.523  1.00  0.00     0.188 C 
BRANCH   5   6
HETATM    6  N2  UNL     1      -4.066   3.803  12.806  1.00  0.00    -0.329 N 
HETATM    7  C4  UNL     1      -3.009   2.976  12.378  1.00  0.00     0.319 C 
HETATM    8  O1  UNL     1      -1.813   3.314  12.610  1.00  0.00    -0.247 OA
HETATM    9  N3  UNL     1      -3.287   1.752  11.682  1.00  0.00    -0.332 N 
HETATM   10  C5  UNL     1      -2.104   1.013  11.304  1.00  0.00     0.129 C 
HETATM   11  C9  UNL     1      -4.688   1.505  11.499  1.00  0.00     0.153 C 
HETATM   12  C6  UNL     1      -2.233  -0.478  11.541  1.00  0.00     0.046 C 
HETATM   13  C7  UNL     1      -3.276  -1.091  10.630  1.00  0.00     0.169 C 
HETATM   14  O2  UNL     1      -3.966  -0.095   9.923  1.00  0.00    -0.389 OA
HETATM   15  C8  UNL     1      -5.033   0.279  10.732  1.00  0.00     0.187 C 
ATOM     16  H2  UNL     1      -5.039   3.553  12.631  1.00  0.00     0.165 HD
ENDBRANCH   5   6
BRANCH   5  17
HETATM   17  C10 UNL     1      -4.184   6.168  12.694  1.00  0.00     0.241 C 
HETATM   18  O3  UNL     1      -3.736   7.340  12.934  1.00  0.00    -0.271 OA
HETATM   19  N4  UNL     1      -5.100   6.019  11.662  1.00  0.00    -0.355 N 
ATOM     20  H4  UNL     1      -5.474   5.093  11.455  1.00  0.00     0.162 HD
BRANCH  19  21
HETATM   21  C11 UNL     1      -5.547   7.178  10.855  1.00  0.00     0.084 C 
HETATM   22  C12 UNL     1      -5.668   6.767   9.443  1.00  0.00     0.025 C 
HETATM   23  C13 UNL     1      -7.059   6.658   8.892  1.00  0.00     0.002 C 
HETATM   24  C14 UNL     1      -7.874   7.911   9.108  1.00  0.00     0.000 C 
HETATM   25  C15 UNL     1      -7.431   8.645  10.357  1.00  0.00     0.002 C 
HETATM   26  C16 UNL     1      -6.857   7.690  11.378  1.00  0.00     0.025 C 
ENDBRANCH  19  21
ENDBRANCH   5  17
ENDBRANCH   4   5
ENDBRANCH   3   4
TORSDOF 5
ENDMDL
MODEL 3
REMARK VINA RESULT: -6.973025419      1.560      1.746
REMARK  5 active torsions:
REMARK  status: ('A' for Active; 'I' for Inactive)
REMARK    1  A    between atoms: S1_3  and  C2_4 
REMARK    2  A    between atoms: C2_4  and  C3_5 
REMARK    3  A    between atoms: C3_5  and  N2_6 
REMARK    4  A    between atoms: C3_5  and  C10_17 
REMARK       I    between atoms: N2_6  and  C4_8 
REMARK       I    between atoms: C4_8  and  N3_10 
REMARK       I    between atoms: C10_17  and  N4_19 
REMARK    5  A    between atoms: N4_19  and  C11_21 
ROOT
HETATM    1  N1  UNL     1      -5.158   4.452   7.666  1.00  0.00    -0.184 NA
HETATM    2  C1  UNL     1      -4.848   4.888   8.690  1.00  0.00     0.133 C 
HETATM    3  S1  UNL     1      -4.399   5.569  10.277  1.00  0.00    -0.048 SA
ENDROOT
BRANCH   3   4
HETATM    4  C2  UNL     1      -4.380   4.247  11.472  1.00  0.00     0.125 C 
BRANCH   4   5
HETATM    5  C3  UNL     1      -4.506   4.792  12.881  1.00  0.00     0.188 C 
BRANCH   5   6
HETATM    6  N2  UNL     1      -4.576   3.604  13.777  1.00  0.00    -0.329 N 
HETATM    7  C4  UNL     1      -5.508   3.645  14.833  1.00  0.00     0.319 C 
HETATM    8  O1  UNL     1      -6.240   4.665  14.985  1.00  0.00    -0.247 OA
HETATM    9  N3  UNL     1      -5.627   2.535  15.734  1.00  0.00    -0.332 N 
HETATM   10  C5  UNL     1      -6.621   2.723  16.766  1.00  0.00     0.129 C 
HETATM   11  C9  UNL     1      -4.734   1.454  15.429  1.00  0.00     0.153 C 
HETATM   12  C6  UNL     1      -7.463   1.489  17.013  1.00  0.00     0.046 C 
HETATM   13  C7  UNL     1      -6.633   0.363  17.596  1.00  0.00     0.169 C 
HETATM   14  O2  UNL     1      -5.271   0.702  17.600  1.00  0.00    -0.389 OA
HETATM   15  C8  UNL     1      -4.774   0.299  16.365  1.00  0.00     0.187 C 
ATOM     16  H2  UNL     1      -3.973   2.794  13.633  1.00  0.00     0.165 HD
ENDBRANCH   5   6
BRANCH   5  17
HETATM   17  C10 UNL     1      -3.351   5.582  13.321  1.00  0.00     0.241 C 
HETATM   18  O3  UNL     1      -2.187   5.075  13.191  1.00  0.00    -0.271 OA
HETATM   19  N4  UNL     1      -3.453   6.851  13.874  1.00  0.00    -0.355 N 
ATOM     20  H4  UNL     1      -4.374   7.274  13.991  1.00  0.00     0.162 HD
BRANCH  19  21
HETATM   21  C11 UNL     1      -2.250   7.604  14.299  1.00  0.00     0.084 C 
HETATM   22  C12 UNL     1      -1.908   8.596  13.260  1.00  0.00     0.025 C 
HETATM   23  C13 UNL     1      -2.149  10.036  13.601  1.00  0.00     0.002 C 
HETATM   24  C14 UNL     1      -1.499  10.447  14.901  1.00  0.00     0.000 C 
HETATM   25  C15 UNL     1      -1.399   9.276  15.858  1.00  0.00     0.002 C 
HETATM   26  C16 UNL     1      -2.505   8.276  15.616  1.00  0.00     0.025 C 
ENDBRANCH  19  21
ENDBRANCH   5  17
ENDBRANCH   4   5
ENDBRANCH   3   4
TORSDOF 5
ENDMDL
MODEL 4
REMARK VINA RESULT: -6.868533519      1.687      2.089
REMARK  5 active torsions:
REMARK  status: ('A' for Active; 'I' for Inactive)
REMARK    1  A    between atoms: S1_3  and  C2_4 
REMARK    2  A    between atoms: C2_4  and  C3_5 
REMARK    3  A    between atoms: C3_5  and  N2_6 
REMARK    4  A    between atoms: C3_5  and  C10_17 
REMARK       I    between atoms: N2_6  and  C4_8 
REMARK       I    between atoms: C4_8  and  N3_10 
REMARK       I    between atoms: C10_17  and  N4_19 
REMARK    5  A    between atoms: N4_19  and  C11_21 
ROOT
HETATM    1  N1  UNL     1      -2.693  -2.561  11.589  1.00  0.00    -0.184 NA
HETATM    2  C1  UNL     1      -3.268  -1.584  11.371  1.00  0.00     0.133 C 
HETATM    3  S1  UNL     1      -4.168  -0.074  11.064  1.00  0.00    -0.048 SA
ENDROOT
BRANCH   3   4
HETATM    4  C2  UNL     1      -3.038   1.296  11.222  1.00  0.00     0.125 C 
BRANCH   4   5
HETATM    5  C3  UNL     1      -3.667   2.424  12.017  1.00  0.00     0.188 C 
BRANCH   5   6
HETATM    6  N2  UNL     1      -4.054   1.836  13.330  1.00  0.00    -0.329 N 
HETATM    7  C4  UNL     1      -4.991   2.547  14.105  1.00  0.00     0.319 C 
HETATM    8  O1  UNL     1      -5.464   3.638  13.674  1.00  0.00    -0.247 OA
HETATM    9  N3  UNL     1      -5.408   2.038  15.380  1.00  0.00    -0.332 N 
HETATM   10  C5  UNL     1      -6.369   2.877  16.060  1.00  0.00     0.129 C 
HETATM   11  C9  UNL     1      -4.787   0.792  15.728  1.00  0.00     0.153 C 
HETATM   12  C6  UNL     1      -7.490   2.092  16.708  1.00  0.00     0.046 C 
HETATM   13  C7  UNL     1      -6.977   1.238  17.848  1.00  0.00     0.169 C 
HETATM   14  O2  UNL     1      -5.575   1.269  17.900  1.00  0.00    -0.389 OA
HETATM   15  C8  UNL     1      -5.139   0.246  17.065  1.00  0.00     0.187 C 
ATOM     16  H2  UNL     1      -3.657   0.954  13.655  1.00  0.00     0.165 HD
ENDBRANCH   5   6
BRANCH   5  17
HETATM   17  C10 UNL     1      -2.752   3.532  12.308  1.00  0.00     0.241 C 
HETATM   18  O3  UNL     1      -1.547   3.253  12.628  1.00  0.00    -0.271 OA
HETATM   19  N4  UNL     1      -3.121   4.869  12.256  1.00  0.00    -0.355 N 
ATOM     20  H4  UNL     1      -4.079   5.114  12.006  1.00  0.00     0.162 HD
BRANCH  19  21
HETATM   21  C11 UNL     1      -2.151   5.948  12.557  1.00  0.00     0.084 C 
HETATM   22  C12 UNL     1      -2.399   7.088  11.653  1.00  0.00     0.025 C 
HETATM   23  C13 UNL     1      -2.991   8.319  12.271  1.00  0.00     0.002 C 
HETATM   24  C14 UNL     1      -2.211   8.806  13.469  1.00  0.00     0.000 C 
HETATM   25  C15 UNL     1      -1.521   7.659  14.178  1.00  0.00     0.002 C 
HETATM   26  C16 UNL     1      -2.280   6.366  13.992  1.00  0.00     0.025 C 
ENDBRANCH  19  21
ENDBRANCH   5  17
ENDBRANCH   4   5
ENDBRANCH   3   4
TORSDOF 5
ENDMDL
MODEL 5
REMARK VINA RESULT: -6.731632776      2.351      4.601
REMARK  5 active torsions:
REMARK  status: ('A' for Active; 'I' for Inactive)
REMARK    1  A    between atoms: S1_3  and  C2_4 
REMARK    2  A    between atoms: C2_4  and  C3_5 
REMARK    3  A    between atoms: C3_5  and  N2_6 
REMARK    4  A    between atoms: C3_5  and  C10_17 
REMARK       I    between atoms: N2_6  and  C4_8 
REMARK       I    between atoms: C4_8  and  N3_10 
REMARK       I    between atoms: C10_17  and  N4_19 
REMARK    5  A    between atoms: N4_19  and  C11_21 
ROOT
HETATM    1  N1  UNL     1      -4.007   0.578  16.454  1.00  0.00    -0.184 NA
HETATM    2  C1  UNL     1      -5.001   1.149  16.593  1.00  0.00     0.133 C 
HETATM    3  S1  UNL     1      -6.525   2.046  16.834  1.00  0.00    -0.048 SA
ENDROOT
BRANCH   3   4
HETATM    4  C2  UNL     1      -6.521   3.463  15.753  1.00  0.00     0.125 C 
BRANCH   4   5
HETATM    5  C3  UNL     1      -5.168   3.630  15.089  1.00  0.00     0.188 C 
BRANCH   5   6
HETATM    6  N2  UNL     1      -5.146   2.666  13.953  1.00  0.00    -0.329 N 
HETATM    7  C4  UNL     1      -3.912   2.463  13.303  1.00  0.00     0.319 C 
HETATM    8  O1  UNL     1      -2.886   3.089  13.694  1.00  0.00    -0.247 OA
HETATM    9  N3  UNL     1      -3.820   1.548  12.201  1.00  0.00    -0.332 N 
HETATM   10  C5  UNL     1      -2.494   1.447  11.634  1.00  0.00     0.129 C 
HETATM   11  C9  UNL     1      -5.066   0.913  11.880  1.00  0.00     0.153 C 
HETATM   12  C6  UNL     1      -2.092   0.023  11.313  1.00  0.00     0.046 C 
HETATM   13  C7  UNL     1      -2.941  -0.550  10.198  1.00  0.00     0.169 C 
HETATM   14  O2  UNL     1      -3.985   0.327   9.867  1.00  0.00    -0.389 OA
HETATM   15  C8  UNL     1      -5.041  -0.002  10.709  1.00  0.00     0.187 C 
ATOM     16  H2  UNL     1      -5.989   2.174  13.658  1.00  0.00     0.165 HD
ENDBRANCH   5   6
BRANCH   5  17
HETATM   17  C10 UNL     1      -4.946   4.961  14.514  1.00  0.00     0.241 C 
HETATM   18  O3  UNL     1      -5.874   5.475  13.803  1.00  0.00    -0.271 OA
HETATM   19  N4  UNL     1      -3.781   5.694  14.698  1.00  0.00    -0.355 N 
ATOM     20  H4  UNL     1      -3.026   5.300  15.259  1.00  0.00     0.162 HD
BRANCH  19  21
HETATM   21  C11 UNL     1      -3.613   7.036  14.095  1.00  0.00     0.084 C 
HETATM   22  C12 UNL     1      -2.844   7.890  15.021  1.00  0.00     0.025 C 
HETATM   23  C13 UNL     1      -1.442   8.231  14.612  1.00  0.00     0.002 C 
HETATM   24  C14 UNL     1      -1.364   8.821  13.225  1.00  0.00     0.000 C 
HETATM   25  C15 UNL     1      -2.481   8.300  12.343  1.00  0.00     0.002 C 
HETATM   26  C16 UNL     1      -2.916   6.918  12.772  1.00  0.00     0.025 C 
ENDBRANCH  19  21
ENDBRANCH   5  17
ENDBRANCH   4   5
ENDBRANCH   3   4
TORSDOF 5
ENDMDL
