MODEL 1
REMARK VINA RESULT: -7.178595745      0.000      0.000
REMARK  5 active torsions:
REMARK  status: ('A' for Active; 'I' for Inactive)
REMARK    1  A    between atoms: C2_3  and  N2_4 
REMARK       I    between atoms: N2_4  and  C3_6 
REMARK    2  A    between atoms: C3_6  and  C4_8 
REMARK    3  A    between atoms: C4_8  and  N3_9 
REMARK    4  A    between atoms: C7_12  and  N4_13 
REMARK    5  A    between atoms: C13_19  and  O2_20 
ROOT
HETATM    1  N1  UNL     1      -4.764   3.712  10.099  1.00  0.00    -0.195 NA
HETATM    2  C1  UNL     1      -4.271   2.967  10.856  1.00  0.00     0.091 C 
HETATM    3  C2  UNL     1      -3.646   2.016  11.788  1.00  0.00     0.122 C 
HETATM    4  C15 UNL     1      -2.378   1.488  11.223  1.00  0.00     0.046 C 
HETATM    5  C16 UNL     1      -2.262   0.030  11.010  1.00  0.00     0.004 C 
HETATM    6  C17 UNL     1      -3.126  -0.810  11.917  1.00  0.00     0.000 C 
HETATM    7  C18 UNL     1      -4.558  -0.344  11.609  1.00  0.00     0.004 C 
HETATM    8  C19 UNL     1      -4.683   1.021  12.180  1.00  0.00     0.046 C 
ENDROOT
BRANCH   3   9
HETATM    9  N2  UNL     1      -3.304   2.782  12.978  1.00  0.00    -0.334 N 
HETATM   10  C3  UNL     1      -2.372   3.841  12.941  1.00  0.00     0.258 C 
HETATM   11  O1  UNL     1      -1.795   4.177  11.876  1.00  0.00    -0.267 OA
ATOM     12  H2  UNL     1      -3.751   2.546  13.864  1.00  0.00     0.164 HD
BRANCH  10  13
HETATM   13  C4  UNL     1      -2.052   4.588  14.183  1.00  0.00     0.164 C 
BRANCH  13  14
HETATM   14  N3  UNL     1      -2.911   5.679  14.415  1.00  0.00    -0.363 N 
HETATM   15  C5  UNL     1      -2.661   6.902  13.765  1.00  0.00     0.066 C 
HETATM   16  C6  UNL     1      -3.612   7.218  12.634  1.00  0.00     0.083 C 
HETATM   17  C7  UNL     1      -4.697   6.184  12.455  1.00  0.00     0.257 C 
HETATM   18  C13 UNL     1      -5.279   5.698  13.768  1.00  0.00     0.170 C 
HETATM   19  C14 UNL     1      -4.239   5.398  14.803  1.00  0.00     0.161 C 
BRANCH  17  20
HETATM   20  N4  UNL     1      -5.805   6.670  11.668  1.00  0.00     0.096 N 
HETATM   21  C8  UNL     1      -5.358   7.099  10.393  1.00  0.00     0.273 C 
HETATM   22  C9  UNL     1      -6.471   7.434   9.428  1.00  0.00     0.030 C 
HETATM   23  C10 UNL     1      -7.693   7.975  10.092  1.00  0.00     0.003 C 
HETATM   24  C11 UNL     1      -7.447   8.493  11.491  1.00  0.00     0.030 C 
HETATM   25  C12 UNL     1      -6.724   7.508  12.352  1.00  0.00     0.273 C 
ENDBRANCH  17  20
BRANCH  18  26
HETATM   26  O2  UNL     1      -6.015   4.549  13.490  1.00  0.00    -0.392 OA
ATOM     27  H2  UNL     1      -5.394   3.836  13.391  1.00  0.00     0.210 HD
ENDBRANCH  18  26
ENDBRANCH  13  14
ENDBRANCH  10  13
ENDBRANCH   3   9
TORSDOF 5
ENDMDL
MODEL 2
REMARK VINA RESULT: -7.111792665      2.595      4.959
REMARK  5 active torsions:
REMARK  status: ('A' for Active; 'I' for Inactive)
REMARK    1  A    between atoms: C2_3  and  N2_4 
REMARK       I    between atoms: N2_4  and  C3_6 
REMARK    2  A    between atoms: C3_6  and  C4_8 
REMARK    3  A    between atoms: C4_8  and  N3_9 
REMARK    4  A    between atoms: C7_12  and  N4_13 
REMARK    5  A    between atoms: C13_19  and  O2_20 
ROOT
HETATM    1  N1  UNL     1      -2.705   3.415  15.713  1.00  0.00    -0.195 NA
HETATM    2  C1  UNL     1      -3.775   2.976  15.528  1.00  0.00     0.091 C 
HETATM    3  C2  UNL     1      -5.125   2.433  15.319  1.00  0.00     0.122 C 
HETATM    4  C15 UNL     1      -6.148   3.337  15.903  1.00  0.00     0.046 C 
HETATM    5  C16 UNL     1      -7.031   2.802  16.962  1.00  0.00     0.004 C 
HETATM    6  C17 UNL     1      -7.239   1.309  16.913  1.00  0.00     0.000 C 
HETATM    7  C18 UNL     1      -5.824   0.727  17.061  1.00  0.00     0.004 C 
HETATM    8  C19 UNL     1      -5.119   1.018  15.787  1.00  0.00     0.046 C 
ENDROOT
BRANCH   3   9
HETATM    9  N2  UNL     1      -5.334   2.415  13.878  1.00  0.00    -0.334 N 
HETATM   10  C3  UNL     1      -4.505   1.669  13.013  1.00  0.00     0.258 C 
HETATM   11  O1  UNL     1      -3.547   0.980  13.447  1.00  0.00    -0.267 OA
ATOM     12  H2  UNL     1      -6.103   2.957  13.483  1.00  0.00     0.164 HD
BRANCH  10  13
HETATM   13  C4  UNL     1      -4.757   1.688  11.550  1.00  0.00     0.164 C 
BRANCH  13  14
HETATM   14  N3  UNL     1      -4.008   2.666  10.868  1.00  0.00    -0.363 N 
HETATM   15  C5  UNL     1      -4.638   3.859  10.467  1.00  0.00     0.066 C 
HETATM   16  C6  UNL     1      -4.268   5.071  11.292  1.00  0.00     0.083 C 
HETATM   17  C7  UNL     1      -3.239   4.783  12.356  1.00  0.00     0.257 C 
HETATM   18  C13 UNL     1      -2.124   3.874  11.876  1.00  0.00     0.170 C 
HETATM   19  C14 UNL     1      -2.614   2.698  11.089  1.00  0.00     0.161 C 
BRANCH  17  20
HETATM   20  N4  UNL     1      -2.607   5.979  12.859  1.00  0.00     0.096 N 
HETATM   21  C8  UNL     1      -3.286   6.453  14.010  1.00  0.00     0.273 C 
HETATM   22  C9  UNL     1      -2.580   7.582  14.723  1.00  0.00     0.030 C 
HETATM   23  C10 UNL     1      -1.798   8.467  13.812  1.00  0.00     0.003 C 
HETATM   24  C11 UNL     1      -2.201   8.353  12.359  1.00  0.00     0.030 C 
HETATM   25  C12 UNL     1      -2.238   6.937  11.880  1.00  0.00     0.273 C 
ENDBRANCH  17  20
BRANCH  18  26
HETATM   26  O2  UNL     1      -1.438   3.435  13.006  1.00  0.00    -0.392 OA
ATOM     27  H2  UNL     1      -1.628   2.509  13.106  1.00  0.00     0.210 HD
ENDBRANCH  18  26
ENDBRANCH  13  14
ENDBRANCH  10  13
ENDBRANCH   3   9
TORSDOF 5
ENDMDL
MODEL 3
REMARK VINA RESULT: -6.884900442      2.167      6.071
REMARK  5 active torsions:
REMARK  status: ('A' for Active; 'I' for Inactive)
REMARK    1  A    between atoms: C2_3  and  N2_4 
REMARK       I    between atoms: N2_4  and  C3_6 
REMARK    2  A    between atoms: C3_6  and  C4_8 
REMARK    3  A    between atoms: C4_8  and  N3_9 
REMARK    4  A    between atoms: C7_12  and  N4_13 
REMARK    5  A    between atoms: C13_19  and  O2_20 
ROOT
HETATM    1  N1  UNL     1      -3.530   7.113  14.154  1.00  0.00    -0.195 NA
HETATM    2  C1  UNL     1      -4.204   7.018  13.202  1.00  0.00     0.091 C 
HETATM    3  C2  UNL     1      -5.055   6.922  12.006  1.00  0.00     0.122 C 
HETATM    4  C15 UNL     1      -4.807   8.068  11.095  1.00  0.00     0.046 C 
HETATM    5  C16 UNL     1      -5.939   8.963  10.775  1.00  0.00     0.004 C 
HETATM    6  C17 UNL     1      -7.299   8.319  10.872  1.00  0.00     0.000 C 
HETATM    7  C18 UNL     1      -7.391   7.854  12.334  1.00  0.00     0.004 C 
HETATM    8  C19 UNL     1      -6.457   6.708  12.466  1.00  0.00     0.046 C 
ENDROOT
BRANCH   3   9
HETATM    9  N2  UNL     1      -4.636   5.715  11.308  1.00  0.00    -0.334 N 
HETATM   10  C3  UNL     1      -3.330   5.565  10.795  1.00  0.00     0.258 C 
HETATM   11  O1  UNL     1      -2.463   6.467  10.920  1.00  0.00    -0.267 OA
ATOM     12  H2  UNL     1      -5.307   4.956  11.186  1.00  0.00     0.164 HD
BRANCH  10  13
HETATM   13  C4  UNL     1      -2.953   4.318  10.085  1.00  0.00     0.164 C 
BRANCH  13  14
HETATM   14  N3  UNL     1      -2.703   3.237  10.951  1.00  0.00    -0.363 N 
HETATM   15  C5  UNL     1      -2.077   3.477  12.188  1.00  0.00     0.066 C 
HETATM   16  C6  UNL     1      -2.998   3.389  13.384  1.00  0.00     0.083 C 
HETATM   17  C7  UNL     1      -4.411   2.997  13.028  1.00  0.00     0.257 C 
HETATM   18  C13 UNL     1      -4.478   1.895  11.987  1.00  0.00     0.170 C 
HETATM   19  C14 UNL     1      -3.536   2.102  10.842  1.00  0.00     0.161 C 
BRANCH  17  20
HETATM   20  N4  UNL     1      -5.164   2.534  14.167  1.00  0.00     0.096 N 
HETATM   21  C8  UNL     1      -5.632   3.631  14.933  1.00  0.00     0.273 C 
HETATM   22  C9  UNL     1      -6.599   3.253  16.030  1.00  0.00     0.030 C 
HETATM   23  C10 UNL     1      -6.346   1.901  16.608  1.00  0.00     0.003 C 
HETATM   24  C11 UNL     1      -4.961   1.367  16.323  1.00  0.00     0.030 C 
HETATM   25  C12 UNL     1      -4.601   1.440  14.874  1.00  0.00     0.273 C 
ENDBRANCH  17  20
BRANCH  18  26
HETATM   26  O2  UNL     1      -5.789   1.852  11.520  1.00  0.00    -0.392 OA
ATOM     27  H2  UNL     1      -5.831   2.410  10.753  1.00  0.00     0.210 HD
ENDBRANCH  18  26
ENDBRANCH  13  14
ENDBRANCH  10  13
ENDBRANCH   3   9
TORSDOF 5
ENDMDL
MODEL 4
REMARK VINA RESULT: -6.785836543      1.311      6.241
REMARK  5 active torsions:
REMARK  status: ('A' for Active; 'I' for Inactive)
REMARK    1  A    between atoms: C2_3  and  N2_4 
REMARK       I    between atoms: N2_4  and  C3_6 
REMARK    2  A    between atoms: C3_6  and  C4_8 
REMARK    3  A    between atoms: C4_8  and  N3_9 
REMARK    4  A    between atoms: C7_12  and  N4_13 
REMARK    5  A    between atoms: C13_19  and  O2_20 
ROOT
HETATM    1  N1  UNL     1      -5.041   4.963   9.977  1.00  0.00    -0.195 NA
HETATM    2  C1  UNL     1      -5.053   5.974  10.567  1.00  0.00     0.091 C 
HETATM    3  C2  UNL     1      -5.088   7.252  11.295  1.00  0.00     0.122 C 
HETATM    4  C15 UNL     1      -6.488   7.642  11.598  1.00  0.00     0.046 C 
HETATM    5  C16 UNL     1      -6.989   8.923  11.058  1.00  0.00     0.004 C 
HETATM    6  C17 UNL     1      -5.923   9.960  10.805  1.00  0.00     0.000 C 
HETATM    7  C18 UNL     1      -4.982   9.291   9.791  1.00  0.00     0.004 C 
HETATM    8  C19 UNL     1      -4.258   8.228  10.533  1.00  0.00     0.046 C 
ENDROOT
BRANCH   3   9
HETATM    9  N2  UNL     1      -4.420   7.011  12.566  1.00  0.00    -0.334 N 
HETATM   10  C3  UNL     1      -4.996   6.202  13.570  1.00  0.00     0.258 C 
HETATM   11  O1  UNL     1      -6.113   5.647  13.411  1.00  0.00    -0.267 OA
ATOM     12  H2  UNL     1      -3.510   7.439  12.736  1.00  0.00     0.164 HD
BRANCH  10  13
HETATM   13  C4  UNL     1      -4.278   5.991  14.852  1.00  0.00     0.164 C 
BRANCH  13  14
HETATM   14  N3  UNL     1      -3.460   4.846  14.852  1.00  0.00    -0.363 N 
HETATM   15  C5  UNL     1      -3.997   3.617  15.279  1.00  0.00     0.066 C 
HETATM   16  C6  UNL     1      -4.275   2.633  14.167  1.00  0.00     0.083 C 
HETATM   17  C7  UNL     1      -3.864   3.134  12.804  1.00  0.00     0.257 C 
HETATM   18  C13 UNL     1      -2.527   3.850  12.812  1.00  0.00     0.170 C 
HETATM   19  C14 UNL     1      -2.376   4.813  13.948  1.00  0.00     0.161 C 
BRANCH  17  20
HETATM   20  N4  UNL     1      -3.759   2.075  11.830  1.00  0.00     0.096 N 
HETATM   21  C8  UNL     1      -4.869   1.199  11.926  1.00  0.00     0.273 C 
HETATM   22  C9  UNL     1      -4.950   0.178  10.816  1.00  0.00     0.030 C 
HETATM   23  C10 UNL     1      -3.617  -0.245  10.296  1.00  0.00     0.003 C 
HETATM   24  C11 UNL     1      -2.472   0.065  11.234  1.00  0.00     0.030 C 
HETATM   25  C12 UNL     1      -2.475   1.486  11.698  1.00  0.00     0.273 C 
ENDBRANCH  17  20
BRANCH  18  26
HETATM   26  O2  UNL     1      -2.418   4.527  11.599  1.00  0.00    -0.392 OA
ATOM     27  H2  UNL     1      -2.861   5.360  11.704  1.00  0.00     0.210 HD
ENDBRANCH  18  26
ENDBRANCH  13  14
ENDBRANCH  10  13
ENDBRANCH   3   9
TORSDOF 5
ENDMDL
MODEL 5
REMARK VINA RESULT: -6.736679779      2.473      4.758
REMARK  5 active torsions:
REMARK  status: ('A' for Active; 'I' for Inactive)
REMARK    1  A    between atoms: C2_3  and  N2_4 
REMARK       I    between atoms: N2_4  and  C3_6 
REMARK    2  A    between atoms: C3_6  and  C4_8 
REMARK    3  A    between atoms: C4_8  and  N3_9 
REMARK    4  A    between atoms: C7_12  and  N4_13 
REMARK    5  A    between atoms: C13_19  and  O2_20 
ROOT
HETATM    1  N1  UNL     1      -1.309   5.204  13.649  1.00  0.00    -0.195 NA
HETATM    2  C1  UNL     1      -1.213   4.479  12.734  1.00  0.00     0.091 C 
HETATM    3  C2  UNL     1      -1.074   3.584  11.576  1.00  0.00     0.122 C 
HETATM    4  C15 UNL     1       0.356   3.407  11.220  1.00  0.00     0.046 C 
HETATM    5  C16 UNL     1       0.796   3.815   9.869  1.00  0.00     0.004 C 
HETATM    6  C17 UNL     1      -0.284   3.777   8.817  1.00  0.00     0.000 C 
HETATM    7  C18 UNL     1      -1.353   4.749   9.340  1.00  0.00     0.004 C 
HETATM    8  C19 UNL     1      -1.985   4.084  10.507  1.00  0.00     0.046 C 
ENDROOT
BRANCH   3   9
HETATM    9  N2  UNL     1      -1.577   2.287  12.006  1.00  0.00    -0.334 N 
HETATM   10  C3  UNL     1      -1.954   1.288  11.081  1.00  0.00     0.258 C 
HETATM   11  O1  UNL     1      -1.868   1.471   9.840  1.00  0.00    -0.267 OA
ATOM     12  H2  UNL     1      -1.660   2.094  13.004  1.00  0.00     0.164 HD
BRANCH  10  13
HETATM   13  C4  UNL     1      -2.466  -0.016  11.570  1.00  0.00     0.164 C 
BRANCH  13  14
HETATM   14  N3  UNL     1      -3.801   0.039  12.013  1.00  0.00    -0.363 N 
HETATM   15  C5  UNL     1      -4.067   0.049  13.395  1.00  0.00     0.066 C 
HETATM   16  C6  UNL     1      -4.504   1.390  13.940  1.00  0.00     0.083 C 
HETATM   17  C7  UNL     1      -4.634   2.456  12.881  1.00  0.00     0.257 C 
HETATM   18  C13 UNL     1      -5.283   1.953  11.606  1.00  0.00     0.170 C 
HETATM   19  C14 UNL     1      -4.754   0.628  11.154  1.00  0.00     0.161 C 
BRANCH  17  20
HETATM   20  N4  UNL     1      -5.413   3.587  13.322  1.00  0.00     0.096 N 
HETATM   21  C8  UNL     1      -4.699   4.794  13.115  1.00  0.00     0.273 C 
HETATM   22  C9  UNL     1      -5.512   6.043  13.358  1.00  0.00     0.030 C 
HETATM   23  C10 UNL     1      -6.556   5.881  14.411  1.00  0.00     0.003 C 
HETATM   24  C11 UNL     1      -6.324   4.696  15.320  1.00  0.00     0.030 C 
HETATM   25  C12 UNL     1      -6.078   3.429  14.565  1.00  0.00     0.273 C 
ENDBRANCH  17  20
BRANCH  18  26
HETATM   26  O2  UNL     1      -5.055   2.914  10.623  1.00  0.00    -0.392 OA
ATOM     27  H2  UNL     1      -5.832   2.947  10.079  1.00  0.00     0.210 HD
ENDBRANCH  18  26
ENDBRANCH  13  14
ENDBRANCH  10  13
ENDBRANCH   3   9
TORSDOF 5
ENDMDL
