MODEL 1
REMARK VINA RESULT: -6.271821959      0.000      0.000
REMARK  5 active torsions:
REMARK  status: ('A' for Active; 'I' for Inactive)
REMARK    1  A    between atoms: O1_2  and  C2_3 
REMARK    2  A    between atoms: C2_3  and  C3_4 
REMARK    3  A    between atoms: C2_3  and  C18_24 
REMARK    4  A    between atoms: C4_5  and  C5_6 
REMARK    5  A    between atoms: C15_17  and  O2_18 
ROOT
HETATM    1  C3  UNL     1      -3.645   6.631  12.166  1.00  0.00     0.054 C 
HETATM    2  C4  UNL     1      -2.645   6.906  13.239  1.00  0.00     0.006 C 
HETATM    3  C8  UNL     1      -1.932   5.589  13.527  1.00  0.00     0.048 C 
HETATM    4  C9  UNL     1      -0.923   5.439  12.411  1.00  0.00     0.280 C 
HETATM    5  N1  UNL     1      -1.475   5.828  11.178  1.00  0.00     0.095 N 
HETATM    6  C10 UNL     1      -1.559   4.672  10.299  1.00  0.00     0.285 C 
HETATM    7  C11 UNL     1      -3.053   4.664  10.631  1.00  0.00     0.110 C 
HETATM    8  C12 UNL     1      -2.856   6.014  11.041  1.00  0.00     0.240 C 
HETATM    9  C13 UNL     1      -3.440   3.544  11.473  1.00  0.00     0.173 C 
HETATM   10  C14 UNL     1      -2.715   3.317  12.739  1.00  0.00     0.101 C 
HETATM   11  C15 UNL     1      -2.754   4.405  13.763  1.00  0.00     0.129 C 
HETATM   12  O3  UNL     1      -3.090   2.406  10.682  1.00  0.00    -0.352 OA
HETATM   13  C16 UNL     1      -3.846   1.369  11.141  1.00  0.00     0.197 C 
HETATM   14  C17 UNL     1      -5.093   2.044  11.648  1.00  0.00     0.197 C 
HETATM   15  O4  UNL     1      -4.800   3.374  11.526  1.00  0.00    -0.352 OA
ENDROOT
BRANCH   1  16
HETATM   16  C2  UNL     1      -4.409   7.844  11.709  1.00  0.00     0.134 C 
BRANCH  16  17
HETATM   17  O1  UNL     1      -3.794   8.477  10.671  1.00  0.00    -0.390 OA
HETATM   18  C1  UNL     1      -3.195   9.669  10.824  1.00  0.00     0.202 C 
ENDBRANCH  16  17
BRANCH  16  19
HETATM   19  C18 UNL     1      -5.854   7.706  11.423  1.00  0.00    -0.025 C 
HETATM   20  C19 UNL     1      -6.225   7.001  10.171  1.00  0.00     0.017 C 
HETATM   21  C20 UNL     1      -6.690   8.953  11.498  1.00  0.00     0.017 C 
HETATM   22  C21 UNL     1      -6.504   6.825  12.551  1.00  0.00     0.017 C 
ENDBRANCH  16  19
ENDBRANCH   1  16
BRANCH   2  23
HETATM   23  C5  UNL     1      -3.119   7.558  14.491  1.00  0.00    -0.018 C 
HETATM   24  C6  UNL     1      -4.035   6.779  15.370  1.00  0.00     0.010 C 
HETATM   25  C7  UNL     1      -1.895   7.899  15.364  1.00  0.00     0.010 C 
ENDBRANCH   2  23
BRANCH  11  26
HETATM   26  O2  UNL     1      -2.253   3.762  14.918  1.00  0.00    -0.395 OA
ATOM     27  H2  UNL     1      -1.803   4.418  15.437  1.00  0.00     0.210 HD
ENDBRANCH  11  26
TORSDOF 5
ENDMDL
MODEL 2
REMARK VINA RESULT: -6.133166669      2.063      3.075
REMARK  5 active torsions:
REMARK  status: ('A' for Active; 'I' for Inactive)
REMARK    1  A    between atoms: O1_2  and  C2_3 
REMARK    2  A    between atoms: C2_3  and  C3_4 
REMARK    3  A    between atoms: C2_3  and  C18_24 
REMARK    4  A    between atoms: C4_5  and  C5_6 
REMARK    5  A    between atoms: C15_17  and  O2_18 
ROOT
HETATM    1  C3  UNL     1      -3.991   5.107  11.757  1.00  0.00     0.054 C 
HETATM    2  C4  UNL     1      -2.501   5.150  11.694  1.00  0.00     0.006 C 
HETATM    3  C8  UNL     1      -1.986   4.137  12.711  1.00  0.00     0.048 C 
HETATM    4  C9  UNL     1      -2.130   2.794  12.031  1.00  0.00     0.280 C 
HETATM    5  N1  UNL     1      -3.344   2.714  11.327  1.00  0.00     0.095 N 
HETATM    6  C10 UNL     1      -4.191   1.700  11.936  1.00  0.00     0.285 C 
HETATM    7  C11 UNL     1      -4.964   2.870  12.549  1.00  0.00     0.110 C 
HETATM    8  C12 UNL     1      -4.354   3.662  11.534  1.00  0.00     0.240 C 
HETATM    9  C13 UNL     1      -4.767   2.988  13.985  1.00  0.00     0.173 C 
HETATM   10  C14 UNL     1      -3.390   3.054  14.515  1.00  0.00     0.101 C 
HETATM   11  C15 UNL     1      -2.530   4.192  14.065  1.00  0.00     0.129 C 
HETATM   12  O3  UNL     1      -5.253   1.740  14.484  1.00  0.00    -0.352 OA
HETATM   13  C16 UNL     1      -5.572   1.945  15.793  1.00  0.00     0.197 C 
HETATM   14  C17 UNL     1      -5.959   3.400  15.834  1.00  0.00     0.197 C 
HETATM   15  O4  UNL     1      -5.672   3.835  14.570  1.00  0.00    -0.352 OA
ENDROOT
BRANCH   1  16
HETATM   16  C2  UNL     1      -4.678   6.010  10.769  1.00  0.00     0.134 C 
BRANCH  16  17
HETATM   17  O1  UNL     1      -5.377   5.310   9.833  1.00  0.00    -0.390 OA
HETATM   18  C1  UNL     1      -4.970   5.233   8.556  1.00  0.00     0.202 C 
ENDBRANCH  16  17
BRANCH  16  19
HETATM   19  C18 UNL     1      -5.508   7.122  11.281  1.00  0.00    -0.025 C 
HETATM   20  C19 UNL     1      -6.840   7.308  10.654  1.00  0.00     0.017 C 
HETATM   21  C20 UNL     1      -4.862   8.477  11.369  1.00  0.00     0.017 C 
HETATM   22  C21 UNL     1      -5.846   6.839  12.791  1.00  0.00     0.017 C 
ENDBRANCH  16  19
ENDBRANCH   1  16
BRANCH   2  23
HETATM   23  C5  UNL     1      -1.830   6.471  11.847  1.00  0.00    -0.018 C 
HETATM   24  C6  UNL     1      -2.038   7.207  13.126  1.00  0.00     0.010 C 
HETATM   25  C7  UNL     1      -0.307   6.267  11.728  1.00  0.00     0.010 C 
ENDBRANCH   2  23
BRANCH  11  26
HETATM   26  O2  UNL     1      -1.441   4.132  14.965  1.00  0.00    -0.395 OA
ATOM     27  H2  UNL     1      -0.705   4.567  14.551  1.00  0.00     0.210 HD
ENDBRANCH  11  26
TORSDOF 5
ENDMDL
MODEL 3
REMARK VINA RESULT: -6.086202262      1.682      2.574
REMARK  5 active torsions:
REMARK  status: ('A' for Active; 'I' for Inactive)
REMARK    1  A    between atoms: O1_2  and  C2_3 
REMARK    2  A    between atoms: C2_3  and  C3_4 
REMARK    3  A    between atoms: C2_3  and  C18_24 
REMARK    4  A    between atoms: C4_5  and  C5_6 
REMARK    5  A    between atoms: C15_17  and  O2_18 
ROOT
HETATM    1  C3  UNL     1      -3.835   5.240  12.537  1.00  0.00     0.054 C 
HETATM    2  C4  UNL     1      -2.430   5.740  12.501  1.00  0.00     0.006 C 
HETATM    3  C8  UNL     1      -1.600   4.676  11.789  1.00  0.00     0.048 C 
HETATM    4  C9  UNL     1      -1.876   4.886  10.317  1.00  0.00     0.280 C 
HETATM    5  N1  UNL     1      -3.237   5.160  10.094  1.00  0.00     0.095 N 
HETATM    6  C10 UNL     1      -3.828   4.077   9.324  1.00  0.00     0.285 C 
HETATM    7  C11 UNL     1      -4.441   3.615  10.648  1.00  0.00     0.110 C 
HETATM    8  C12 UNL     1      -4.184   4.940  11.102  1.00  0.00     0.240 C 
HETATM    9  C13 UNL     1      -3.844   2.388  11.150  1.00  0.00     0.173 C 
HETATM   10  C14 UNL     1      -2.377   2.318  11.305  1.00  0.00     0.101 C 
HETATM   11  C15 UNL     1      -1.734   3.292  12.238  1.00  0.00     0.129 C 
HETATM   12  O3  UNL     1      -4.113   1.446  10.110  1.00  0.00    -0.352 OA
HETATM   13  C16 UNL     1      -4.049   0.210  10.682  1.00  0.00     0.197 C 
HETATM   14  C17 UNL     1      -4.470   0.463  12.105  1.00  0.00     0.197 C 
HETATM   15  O4  UNL     1      -4.578   1.824  12.162  1.00  0.00    -0.352 OA
ENDROOT
BRANCH   1  16
HETATM   16  C2  UNL     1      -4.815   6.197  13.158  1.00  0.00     0.134 C 
BRANCH  16  17
HETATM   17  O1  UNL     1      -5.490   6.921  12.222  1.00  0.00    -0.390 OA
HETATM   18  C1  UNL     1      -5.075   8.137  11.832  1.00  0.00     0.202 C 
ENDBRANCH  16  17
BRANCH  16  19
HETATM   19  C18 UNL     1      -5.765   5.684  14.170  1.00  0.00    -0.025 C 
HETATM   20  C19 UNL     1      -5.609   6.194  15.555  1.00  0.00     0.017 C 
HETATM   21  C20 UNL     1      -5.935   4.193  14.258  1.00  0.00     0.017 C 
HETATM   22  C21 UNL     1      -7.216   6.141  13.768  1.00  0.00     0.017 C 
ENDBRANCH  16  19
ENDBRANCH   1  16
BRANCH   2  23
HETATM   23  C5  UNL     1      -1.800   6.158  13.784  1.00  0.00    -0.018 C 
HETATM   24  C6  UNL     1      -2.226   7.459  14.370  1.00  0.00     0.010 C 
HETATM   25  C7  UNL     1      -2.113   5.096  14.857  1.00  0.00     0.010 C 
ENDBRANCH   2  23
BRANCH  11  26
HETATM   26  O2  UNL     1      -0.430   2.765  12.386  1.00  0.00    -0.395 OA
ATOM     27  H2  UNL     1      -0.126   2.996  13.256  1.00  0.00     0.210 HD
ENDBRANCH  11  26
TORSDOF 5
ENDMDL
MODEL 4
REMARK VINA RESULT: -6.009153433      2.093      3.103
REMARK  5 active torsions:
REMARK  status: ('A' for Active; 'I' for Inactive)
REMARK    1  A    between atoms: O1_2  and  C2_3 
REMARK    2  A    between atoms: C2_3  and  C3_4 
REMARK    3  A    between atoms: C2_3  and  C18_24 
REMARK    4  A    between atoms: C4_5  and  C5_6 
REMARK    5  A    between atoms: C15_17  and  O2_18 
ROOT
HETATM    1  C3  UNL     1      -3.351   4.866  10.544  1.00  0.00     0.054 C 
HETATM    2  C4  UNL     1      -3.633   5.573  11.827  1.00  0.00     0.006 C 
HETATM    3  C8  UNL     1      -3.667   4.508  12.919  1.00  0.00     0.048 C 
HETATM    4  C9  UNL     1      -2.215   4.214  13.222  1.00  0.00     0.280 C 
HETATM    5  N1  UNL     1      -1.455   4.163  12.041  1.00  0.00     0.095 N 
HETATM    6  C10 UNL     1      -0.952   2.811  11.847  1.00  0.00     0.285 C 
HETATM    7  C11 UNL     1      -2.055   2.668  10.795  1.00  0.00     0.110 C 
HETATM    8  C12 UNL     1      -2.082   4.092  10.791  1.00  0.00     0.240 C 
HETATM    9  C13 UNL     1      -3.123   1.775  11.214  1.00  0.00     0.173 C 
HETATM   10  C14 UNL     1      -3.790   2.016  12.509  1.00  0.00     0.101 C 
HETATM   11  C15 UNL     1      -4.490   3.324  12.693  1.00  0.00     0.129 C 
HETATM   12  O3  UNL     1      -2.448   0.531  11.415  1.00  0.00    -0.352 OA
HETATM   13  C16 UNL     1      -3.396  -0.443  11.316  1.00  0.00     0.197 C 
HETATM   14  C17 UNL     1      -4.405   0.148  10.366  1.00  0.00     0.197 C 
HETATM   15  O4  UNL     1      -3.946   1.421  10.176  1.00  0.00    -0.352 OA
ENDROOT
BRANCH   1  16
HETATM   16  C2  UNL     1      -3.223   5.776   9.353  1.00  0.00     0.134 C 
BRANCH  16  17
HETATM   17  O1  UNL     1      -1.976   5.734   8.806  1.00  0.00    -0.390 OA
HETATM   18  C1  UNL     1      -1.153   6.796   8.835  1.00  0.00     0.202 C 
ENDBRANCH  16  17
BRANCH  16  19
HETATM   19  C18 UNL     1      -4.239   5.691   8.281  1.00  0.00    -0.025 C 
HETATM   20  C19 UNL     1      -5.443   4.870   8.562  1.00  0.00     0.017 C 
HETATM   21  C20 UNL     1      -3.757   5.322   6.906  1.00  0.00     0.017 C 
HETATM   22  C21 UNL     1      -4.823   7.130   8.032  1.00  0.00     0.017 C 
ENDBRANCH  16  19
ENDBRANCH   1  16
BRANCH   2  23
HETATM   23  C5  UNL     1      -4.826   6.462  11.892  1.00  0.00    -0.018 C 
HETATM   24  C6  UNL     1      -5.659   6.412  13.126  1.00  0.00     0.010 C 
HETATM   25  C7  UNL     1      -4.358   7.925  11.765  1.00  0.00     0.010 C 
ENDBRANCH   2  23
BRANCH  11  26
HETATM   26  O2  UNL     1      -5.253   3.105  13.864  1.00  0.00    -0.395 OA
ATOM     27  H2  UNL     1      -5.611   2.227  13.812  1.00  0.00     0.210 HD
ENDBRANCH  11  26
TORSDOF 5
ENDMDL
MODEL 5
REMARK VINA RESULT: -5.973443386      1.760      2.567
REMARK  5 active torsions:
REMARK  status: ('A' for Active; 'I' for Inactive)
REMARK    1  A    between atoms: O1_2  and  C2_3 
REMARK    2  A    between atoms: C2_3  and  C3_4 
REMARK    3  A    between atoms: C2_3  and  C18_24 
REMARK    4  A    between atoms: C4_5  and  C5_6 
REMARK    5  A    between atoms: C15_17  and  O2_18 
ROOT
HETATM    1  C3  UNL     1      -3.979   5.203  12.346  1.00  0.00     0.054 C 
HETATM    2  C4  UNL     1      -2.624   5.818  12.248  1.00  0.00     0.006 C 
HETATM    3  C8  UNL     1      -1.713   4.781  11.600  1.00  0.00     0.048 C 
HETATM    4  C9  UNL     1      -2.024   4.857  10.122  1.00  0.00     0.280 C 
HETATM    5  N1  UNL     1      -3.406   4.995   9.905  1.00  0.00     0.095 N 
HETATM    6  C10 UNL     1      -3.909   3.811   9.226  1.00  0.00     0.285 C 
HETATM    7  C11 UNL     1      -4.463   3.396  10.591  1.00  0.00     0.110 C 
HETATM    8  C12 UNL     1      -4.318   4.769  10.943  1.00  0.00     0.240 C 
HETATM    9  C13 UNL     1      -3.755   2.267  11.170  1.00  0.00     0.173 C 
HETATM   10  C14 UNL     1      -2.285   2.335  11.302  1.00  0.00     0.101 C 
HETATM   11  C15 UNL     1      -1.719   3.428  12.150  1.00  0.00     0.129 C 
HETATM   12  O3  UNL     1      -3.952   1.230  10.206  1.00  0.00    -0.352 OA
HETATM   13  C16 UNL     1      -3.773   0.050  10.864  1.00  0.00     0.197 C 
HETATM   14  C17 UNL     1      -4.198   0.370  12.273  1.00  0.00     0.197 C 
HETATM   15  O4  UNL     1      -4.424   1.717  12.233  1.00  0.00    -0.352 OA
ENDROOT
BRANCH   1  16
HETATM   16  C2  UNL     1      -5.032   6.114  12.914  1.00  0.00     0.134 C 
BRANCH  16  17
HETATM   17  O1  UNL     1      -5.821   6.656  11.944  1.00  0.00    -0.390 OA
HETATM   18  C1  UNL     1      -5.702   7.940  11.570  1.00  0.00     0.202 C 
ENDBRANCH  16  17
BRANCH  16  19
HETATM   19  C18 UNL     1      -5.877   5.620  14.023  1.00  0.00    -0.025 C 
HETATM   20  C19 UNL     1      -5.910   4.151  14.237  1.00  0.00     0.017 C 
HETATM   21  C20 UNL     1      -7.297   6.111  14.076  1.00  0.00     0.017 C 
HETATM   22  C21 UNL     1      -5.302   6.179  15.376  1.00  0.00     0.017 C 
ENDBRANCH  16  19
ENDBRANCH   1  16
BRANCH   2  23
HETATM   23  C5  UNL     1      -2.018   6.383  13.485  1.00  0.00    -0.018 C 
HETATM   24  C6  UNL     1      -1.795   5.456  14.630  1.00  0.00     0.010 C 
HETATM   25  C7  UNL     1      -0.630   6.957  13.138  1.00  0.00     0.010 C 
ENDBRANCH   2  23
BRANCH  11  26
HETATM   26  O2  UNL     1      -0.372   3.029  12.312  1.00  0.00    -0.395 OA
ATOM     27  H2  UNL     1      -0.376   2.134  12.630  1.00  0.00     0.210 HD
ENDBRANCH  11  26
TORSDOF 5
ENDMDL
