MODEL 1
REMARK VINA RESULT: -7.303494869      0.000      0.000
REMARK  3 active torsions:
REMARK  status: ('A' for Active; 'I' for Inactive)
REMARK    1  A    between atoms: C9_10  and  C10_11 
REMARK    2  A    between atoms: C10_11  and  C11_12 
REMARK    3  A    between atoms: C13_17  and  C14_18 
ROOT
HETATM    1  C1  UNL     1       1.140   6.891   8.420  1.00  0.00     0.010 C 
HETATM    2  C2  UNL     1       0.176   5.731   8.364  1.00  0.00    -0.010 C 
HETATM    3  C3  UNL     1      -1.060   6.084   7.575  1.00  0.00     0.035 C 
HETATM    4  C4  UNL     1      -2.163   5.143   7.982  1.00  0.00     0.273 C 
HETATM    5  N1  UNL     1      -2.581   5.395   9.343  1.00  0.00     0.098 N 
HETATM    6  C5  UNL     1      -3.620   4.591   9.845  1.00  0.00     0.344 C 
HETATM    7  C6  UNL     1      -3.150   3.912  11.080  1.00  0.00     0.289 C 
HETATM    8  C7  UNL     1      -1.783   4.455  11.324  1.00  0.00     0.110 C 
HETATM    9  C8  UNL     1      -1.485   5.486  10.250  1.00  0.00     0.232 C 
HETATM   10  C9  UNL     1      -0.158   5.101   9.645  1.00  0.00     0.033 C 
HETATM   11  O3  UNL     1      -3.084   2.540  10.880  1.00  0.00    -0.349 OA
HETATM   12  C12 UNL     1      -3.393   1.909  12.056  1.00  0.00     0.210 C 
HETATM   13  C13 UNL     1      -3.549   3.029  13.086  1.00  0.00     0.284 C 
HETATM   14  N2  UNL     1      -4.049   4.082  12.231  1.00  0.00     0.131 N 
HETATM   15  C19 UNL     1      -3.991   5.383  12.793  1.00  0.00     0.314 C 
ENDROOT
BRANCH  13  16
HETATM   16  C14 UNL     1      -4.518   2.551  14.111  1.00  0.00     0.100 C 
HETATM   17  C15 UNL     1      -5.862   3.220  14.040  1.00  0.00     0.049 C 
HETATM   18  C16 UNL     1      -3.928   2.879  15.477  1.00  0.00     0.050 C 
HETATM   19  C17 UNL     1      -3.650   1.541  16.126  1.00  0.00     0.114 C 
HETATM   20  C18 UNL     1      -4.639   0.665  15.413  1.00  0.00     0.259 C 
HETATM   21  O4  UNL     1      -5.222  -0.289  15.954  1.00  0.00    -0.265 OA
HETATM   22  O5  UNL     1      -4.701   1.170  14.132  1.00  0.00    -0.308 OA
ENDBRANCH  13  16
BRANCH  10  23
HETATM   23  C10 UNL     1       0.862   5.372  10.763  1.00  0.00     0.120 C 
BRANCH  23  24
HETATM   24  C11 UNL     1       1.878   4.306  10.858  1.00  0.00     0.172 C 
HETATM   25  O1  UNL     1       2.491   4.202  11.945  1.00  0.00    -0.648 OA
HETATM   26  O2  UNL     1       2.195   3.423   9.836  1.00  0.00    -0.648 OA
ENDBRANCH  23  24
ENDBRANCH  10  23
TORSDOF 3
ENDMDL
MODEL 2
REMARK VINA RESULT: -7.131511420      2.435      4.147
REMARK  3 active torsions:
REMARK  status: ('A' for Active; 'I' for Inactive)
REMARK    1  A    between atoms: C9_10  and  C10_11 
REMARK    2  A    between atoms: C10_11  and  C11_12 
REMARK    3  A    between atoms: C13_17  and  C14_18 
ROOT
HETATM    1  C1  UNL     1      -3.698   5.316   6.442  1.00  0.00     0.010 C 
HETATM    2  C2  UNL     1      -3.116   5.616   7.803  1.00  0.00    -0.010 C 
HETATM    3  C3  UNL     1      -1.782   4.939   7.990  1.00  0.00     0.035 C 
HETATM    4  C4  UNL     1      -1.514   4.827   9.468  1.00  0.00     0.273 C 
HETATM    5  N1  UNL     1      -2.426   3.892  10.088  1.00  0.00     0.098 N 
HETATM    6  C5  UNL     1      -2.273   3.683  11.471  1.00  0.00     0.344 C 
HETATM    7  C6  UNL     1      -3.561   3.984  12.149  1.00  0.00     0.289 C 
HETATM    8  C7  UNL     1      -4.516   4.294  11.046  1.00  0.00     0.110 C 
HETATM    9  C8  UNL     1      -3.786   4.123   9.726  1.00  0.00     0.232 C 
HETATM   10  C9  UNL     1      -4.002   5.398   8.950  1.00  0.00     0.033 C 
HETATM   11  O3  UNL     1      -3.422   5.090  12.976  1.00  0.00    -0.349 OA
HETATM   12  C12 UNL     1      -4.234   4.927  14.068  1.00  0.00     0.210 C 
HETATM   13  C13 UNL     1      -5.017   3.640  13.799  1.00  0.00     0.284 C 
HETATM   14  N2  UNL     1      -4.034   2.909  13.032  1.00  0.00     0.131 N 
HETATM   15  C19 UNL     1      -4.543   1.792  12.323  1.00  0.00     0.314 C 
ENDROOT
BRANCH  13  16
HETATM   16  C14 UNL     1      -5.342   3.040  15.123  1.00  0.00     0.100 C 
HETATM   17  C15 UNL     1      -6.248   3.886  15.972  1.00  0.00     0.049 C 
HETATM   18  C16 UNL     1      -4.030   2.889  15.883  1.00  0.00     0.050 C 
HETATM   19  C17 UNL     1      -3.826   1.397  16.040  1.00  0.00     0.114 C 
HETATM   20  C18 UNL     1      -5.241   0.904  15.957  1.00  0.00     0.259 C 
HETATM   21  O4  UNL     1      -5.664  -0.070  16.602  1.00  0.00    -0.265 OA
HETATM   22  O5  UNL     1      -5.859   1.747  15.059  1.00  0.00    -0.308 OA
ENDBRANCH  13  16
BRANCH  10  23
HETATM   23  C10 UNL     1      -5.498   5.376   8.593  1.00  0.00     0.120 C 
BRANCH  23  24
HETATM   24  C11 UNL     1      -6.145   6.680   8.831  1.00  0.00     0.172 C 
HETATM   25  O1  UNL     1      -6.941   6.750   9.796  1.00  0.00    -0.648 OA
HETATM   26  O2  UNL     1      -5.933   7.819   8.068  1.00  0.00    -0.648 OA
ENDBRANCH  23  24
ENDBRANCH  10  23
TORSDOF 3
ENDMDL
MODEL 3
REMARK VINA RESULT: -7.060974473      1.283      1.782
REMARK  3 active torsions:
REMARK  status: ('A' for Active; 'I' for Inactive)
REMARK    1  A    between atoms: C9_10  and  C10_11 
REMARK    2  A    between atoms: C10_11  and  C11_12 
REMARK    3  A    between atoms: C13_17  and  C14_18 
ROOT
HETATM    1  C1  UNL     1       2.201   7.888   9.913  1.00  0.00     0.010 C 
HETATM    2  C2  UNL     1       1.639   6.563   9.455  1.00  0.00    -0.010 C 
HETATM    3  C3  UNL     1       0.773   6.729   8.232  1.00  0.00     0.035 C 
HETATM    4  C4  UNL     1      -0.147   5.540   8.142  1.00  0.00     0.273 C 
HETATM    5  N1  UNL     1      -1.117   5.557   9.213  1.00  0.00     0.098 N 
HETATM    6  C5  UNL     1      -2.051   4.505   9.237  1.00  0.00     0.344 C 
HETATM    7  C6  UNL     1      -1.966   3.815  10.551  1.00  0.00     0.289 C 
HETATM    8  C7  UNL     1      -0.976   4.604  11.339  1.00  0.00     0.110 C 
HETATM    9  C8  UNL     1      -0.526   5.781  10.491  1.00  0.00     0.232 C 
HETATM   10  C9  UNL     1       0.981   5.748  10.480  1.00  0.00     0.033 C 
HETATM   11  O3  UNL     1      -1.506   2.515  10.383  1.00  0.00    -0.349 OA
HETATM   12  C12 UNL     1      -2.100   1.715  11.324  1.00  0.00     0.210 C 
HETATM   13  C13 UNL     1      -2.910   2.664  12.208  1.00  0.00     0.284 C 
HETATM   14  N2  UNL     1      -3.260   3.672  11.232  1.00  0.00     0.131 N 
HETATM   15  C19 UNL     1      -3.736   4.890  11.780  1.00  0.00     0.314 C 
ENDROOT
BRANCH  13  16
HETATM   16  C14 UNL     1      -4.065   1.890  12.741  1.00  0.00     0.100 C 
HETATM   17  C15 UNL     1      -5.105   1.556  11.709  1.00  0.00     0.049 C 
HETATM   18  C16 UNL     1      -4.743   2.758  13.794  1.00  0.00     0.050 C 
HETATM   19  C17 UNL     1      -4.546   2.027  15.104  1.00  0.00     0.114 C 
HETATM   20  C18 UNL     1      -4.380   0.615  14.623  1.00  0.00     0.259 C 
HETATM   21  O4  UNL     1      -4.791  -0.374  15.253  1.00  0.00    -0.265 OA
HETATM   22  O5  UNL     1      -3.714   0.725  13.422  1.00  0.00    -0.308 OA
ENDBRANCH  13  16
BRANCH  10  23
HETATM   23  C10 UNL     1       1.379   6.110  11.921  1.00  0.00     0.120 C 
BRANCH  23  24
HETATM   24  C11 UNL     1       2.603   5.406  12.353  1.00  0.00     0.172 C 
HETATM   25  O1  UNL     1       2.734   4.218  11.980  1.00  0.00    -0.648 OA
HETATM   26  O2  UNL     1       3.603   5.967  13.133  1.00  0.00    -0.648 OA
ENDBRANCH  23  24
ENDBRANCH  10  23
TORSDOF 3
ENDMDL
MODEL 4
REMARK VINA RESULT: -6.990333470      1.968      2.505
REMARK  3 active torsions:
REMARK  status: ('A' for Active; 'I' for Inactive)
REMARK    1  A    between atoms: C9_10  and  C10_11 
REMARK    2  A    between atoms: C10_11  and  C11_12 
REMARK    3  A    between atoms: C13_17  and  C14_18 
ROOT
HETATM    1  C1  UNL     1       2.971   7.411  11.399  1.00  0.00     0.010 C 
HETATM    2  C2  UNL     1       1.531   7.321  10.954  1.00  0.00    -0.010 C 
HETATM    3  C3  UNL     1       0.698   8.418  11.568  1.00  0.00     0.035 C 
HETATM    4  C4  UNL     1      -0.745   7.990  11.533  1.00  0.00     0.273 C 
HETATM    5  N1  UNL     1      -0.977   6.883  12.434  1.00  0.00     0.098 N 
HETATM    6  C5  UNL     1      -2.293   6.394  12.508  1.00  0.00     0.344 C 
HETATM    7  C6  UNL     1      -2.287   4.943  12.186  1.00  0.00     0.289 C 
HETATM    8  C7  UNL     1      -0.848   4.592  12.011  1.00  0.00     0.110 C 
HETATM    9  C8  UNL     1      -0.021   5.836  12.281  1.00  0.00     0.232 C 
HETATM   10  C9  UNL     1       0.890   6.010  11.092  1.00  0.00     0.033 C 
HETATM   11  O3  UNL     1      -2.976   4.710  11.003  1.00  0.00    -0.349 OA
HETATM   12  C12 UNL     1      -3.596   3.490  11.090  1.00  0.00     0.210 C 
HETATM   13  C13 UNL     1      -3.131   2.895  12.420  1.00  0.00     0.284 C 
HETATM   14  N2  UNL     1      -2.964   4.108  13.188  1.00  0.00     0.131 N 
HETATM   15  C19 UNL     1      -2.215   3.958  14.382  1.00  0.00     0.314 C 
ENDROOT
BRANCH  13  16
HETATM   16  C14 UNL     1      -4.218   2.000  12.904  1.00  0.00     0.100 C 
HETATM   17  C15 UNL     1      -5.129   1.502  11.818  1.00  0.00     0.049 C 
HETATM   18  C16 UNL     1      -5.075   2.812  13.868  1.00  0.00     0.050 C 
HETATM   19  C17 UNL     1      -4.888   2.159  15.220  1.00  0.00     0.114 C 
HETATM   20  C18 UNL     1      -4.514   0.762  14.815  1.00  0.00     0.259 C 
HETATM   21  O4  UNL     1      -4.846  -0.248  15.457  1.00  0.00    -0.265 OA
HETATM   22  O5  UNL     1      -3.779   0.913  13.659  1.00  0.00    -0.308 OA
ENDBRANCH  13  16
BRANCH  10  23
HETATM   23  C10 UNL     1       1.877   4.836  11.195  1.00  0.00     0.120 C 
BRANCH  23  24
HETATM   24  C11 UNL     1       2.041   4.133   9.907  1.00  0.00     0.172 C 
HETATM   25  O1  UNL     1       1.102   4.232   9.085  1.00  0.00    -0.648 OA
HETATM   26  O2  UNL     1       3.152   3.383   9.553  1.00  0.00    -0.648 OA
ENDBRANCH  23  24
ENDBRANCH  10  23
TORSDOF 3
ENDMDL
MODEL 5
REMARK VINA RESULT: -6.990321526      2.083      3.182
REMARK  3 active torsions:
REMARK  status: ('A' for Active; 'I' for Inactive)
REMARK    1  A    between atoms: C9_10  and  C10_11 
REMARK    2  A    between atoms: C10_11  and  C11_12 
REMARK    3  A    between atoms: C13_17  and  C14_18 
ROOT
HETATM    1  C1  UNL     1      -0.137   4.925   6.605  1.00  0.00     0.010 C 
HETATM    2  C2  UNL     1       0.033   5.094   8.096  1.00  0.00    -0.010 C 
HETATM    3  C3  UNL     1       1.118   4.192   8.629  1.00  0.00     0.035 C 
HETATM    4  C4  UNL     1       0.893   4.006  10.107  1.00  0.00     0.273 C 
HETATM    5  N1  UNL     1      -0.304   3.233  10.353  1.00  0.00     0.098 N 
HETATM    6  C5  UNL     1      -0.623   2.973  11.698  1.00  0.00     0.344 C 
HETATM    7  C6  UNL     1      -1.992   3.480  11.975  1.00  0.00     0.289 C 
HETATM    8  C7  UNL     1      -2.496   3.972  10.660  1.00  0.00     0.110 C 
HETATM    9  C8  UNL     1      -1.428   3.703   9.614  1.00  0.00     0.232 C 
HETATM   10  C9  UNL     1      -1.188   5.011   8.903  1.00  0.00     0.033 C 
HETATM   11  O3  UNL     1      -1.942   4.530  12.883  1.00  0.00    -0.349 OA
HETATM   12  C12 UNL     1      -3.068   4.489  13.663  1.00  0.00     0.210 C 
HETATM   13  C13 UNL     1      -3.924   3.363  13.079  1.00  0.00     0.284 C 
HETATM   14  N2  UNL     1      -2.880   2.487  12.595  1.00  0.00     0.131 N 
HETATM   15  C19 UNL     1      -3.315   1.489  11.687  1.00  0.00     0.314 C 
ENDROOT
BRANCH  13  16
HETATM   16  C14 UNL     1      -4.734   2.803  14.195  1.00  0.00     0.100 C 
HETATM   17  C15 UNL     1      -6.059   3.484  14.390  1.00  0.00     0.049 C 
HETATM   18  C16 UNL     1      -3.936   3.004  15.477  1.00  0.00     0.050 C 
HETATM   19  C17 UNL     1      -3.589   1.612  15.958  1.00  0.00     0.114 C 
HETATM   20  C18 UNL     1      -4.693   0.810  15.332  1.00  0.00     0.259 C 
HETATM   21  O4  UNL     1      -5.206  -0.184  15.873  1.00  0.00    -0.265 OA
HETATM   22  O5  UNL     1      -4.940   1.426  14.125  1.00  0.00    -0.308 OA
ENDBRANCH  13  16
BRANCH  10  23
HETATM   23  C10 UNL     1      -2.483   5.255   8.110  1.00  0.00     0.120 C 
BRANCH  23  24
HETATM   24  C11 UNL     1      -2.918   6.664   8.177  1.00  0.00     0.172 C 
HETATM   25  O1  UNL     1      -3.636   6.988   9.151  1.00  0.00    -0.648 OA
HETATM   26  O2  UNL     1      -2.588   7.638   7.247  1.00  0.00    -0.648 OA
ENDBRANCH  23  24
ENDBRANCH  10  23
TORSDOF 3
ENDMDL
