MODEL 1
REMARK VINA RESULT: -8.276162853      0.000      0.000
REMARK  3 active torsions:
REMARK  status: ('A' for Active; 'I' for Inactive)
REMARK    1  A    between atoms: C1_2  and  C2_3 
REMARK       I    between atoms: C1_2  and  N6_25 
REMARK    2  A    between atoms: C2_3  and  N1_4 
REMARK    3  A    between atoms: C5_7  and  N2_8 
REMARK       I    between atoms: N2_8  and  C6_10 
REMARK       I    between atoms: C6_10  and  N3_12 
ROOT
HETATM    1  N1  UNL     1       0.379   3.398  10.265  1.00  0.00     0.097 N 
HETATM    2  C3  UNL     1      -0.861   3.244   9.533  1.00  0.00     0.275 C 
HETATM    3  C4  UNL     1      -2.015   2.806  10.408  1.00  0.00     0.055 C 
HETATM    4  C5  UNL     1      -2.378   3.964  11.343  1.00  0.00     0.089 C 
HETATM    5  C13 UNL     1      -1.134   4.758  11.640  1.00  0.00     0.055 C 
HETATM    6  C14 UNL     1       0.088   3.844  11.626  1.00  0.00     0.275 C 
ENDROOT
BRANCH   4   7
HETATM    7  N2  UNL     1      -2.934   3.396  12.567  1.00  0.00    -0.336 N 
HETATM    8  C6  UNL     1      -4.172   3.845  13.050  1.00  0.00     0.357 C 
HETATM    9  O2  UNL     1      -4.810   4.744  12.424  1.00  0.00    -0.243 OA
HETATM   10  N3  UNL     1      -4.736   3.310  14.238  1.00  0.00    -0.142 N 
HETATM   11  N4  UNL     1      -5.906   3.654  14.791  1.00  0.00    -0.278 N 
HETATM   12  N5  UNL     1      -4.191   2.375  15.004  1.00  0.00    -0.278 N 
HETATM   13  C7  UNL     1      -6.087   2.926  15.908  1.00  0.00     0.052 A 
ATOM     14  H4  UNL     1      -6.553   4.352  14.425  1.00  0.00     0.189 HD
HETATM   15  C8  UNL     1      -4.987   2.106  16.044  1.00  0.00     0.052 A 
HETATM   16  C12 UNL     1      -7.135   2.809  16.960  1.00  0.00     0.061 C 
HETATM   17  C9  UNL     1      -4.955   1.200  17.220  1.00  0.00     0.061 C 
HETATM   18  C10 UNL     1      -6.269   0.513  17.400  1.00  0.00     0.006 C 
HETATM   19  C11 UNL     1      -7.469   1.313  17.019  1.00  0.00     0.006 C 
ATOM     20  H5  UNL     1      -3.293   1.926  14.825  1.00  0.00     0.189 HD
ATOM     21  H2  UNL     1      -2.422   2.673  13.072  1.00  0.00     0.164 HD
ENDBRANCH   4   7
BRANCH   1  22
HETATM   22  C2  UNL     1       1.123   4.479   9.648  1.00  0.00     0.374 C 
BRANCH  22  23
HETATM   23  C1  UNL     1       2.590   4.293   9.715  1.00  0.00     0.248 C 
HETATM   24  O1  UNL     1       3.190   3.353   9.153  1.00  0.00    -0.271 OA
HETATM   25  N6  UNL     1       3.359   5.225  10.452  1.00  0.00    -0.351 N 
HETATM   26  C15 UNL     1       2.733   6.341  11.132  1.00  0.00     0.126 C 
HETATM   27  C19 UNL     1       4.805   5.125  10.569  1.00  0.00     0.126 C 
HETATM   28  C16 UNL     1       3.126   6.388  12.591  1.00  0.00     0.020 C 
HETATM   29  C17 UNL     1       3.892   5.119  12.897  1.00  0.00     0.003 C 
HETATM   30  C18 UNL     1       5.160   5.160  12.041  1.00  0.00     0.020 C 
ENDBRANCH  22  23
ENDBRANCH   1  22
TORSDOF 3
ENDMDL
MODEL 2
REMARK VINA RESULT: -7.162269911      0.994      1.302
REMARK  3 active torsions:
REMARK  status: ('A' for Active; 'I' for Inactive)
REMARK    1  A    between atoms: C1_2  and  C2_3 
REMARK       I    between atoms: C1_2  and  N6_25 
REMARK    2  A    between atoms: C2_3  and  N1_4 
REMARK    3  A    between atoms: C5_7  and  N2_8 
REMARK       I    between atoms: N2_8  and  C6_10 
REMARK       I    between atoms: C6_10  and  N3_12 
ROOT
HETATM    1  N1  UNL     1       0.406   3.453  10.207  1.00  0.00     0.097 N 
HETATM    2  C3  UNL     1      -0.785   3.119   9.454  1.00  0.00     0.275 C 
HETATM    3  C4  UNL     1      -1.919   2.627  10.327  1.00  0.00     0.055 C 
HETATM    4  C5  UNL     1      -2.431   3.806  11.160  1.00  0.00     0.089 C 
HETATM    5  C13 UNL     1      -1.286   4.745  11.431  1.00  0.00     0.055 C 
HETATM    6  C14 UNL     1       0.022   3.964  11.521  1.00  0.00     0.275 C 
ENDROOT
BRANCH   4   7
HETATM    7  N2  UNL     1      -2.971   3.274  12.408  1.00  0.00    -0.336 N 
HETATM    8  C6  UNL     1      -4.180   3.769  12.918  1.00  0.00     0.357 C 
HETATM    9  O2  UNL     1      -4.807   4.678  12.297  1.00  0.00    -0.243 OA
HETATM   10  N3  UNL     1      -4.727   3.269  14.129  1.00  0.00    -0.142 N 
HETATM   11  N4  UNL     1      -5.870   3.658  14.709  1.00  0.00    -0.278 N 
HETATM   12  N5  UNL     1      -4.191   2.329  14.893  1.00  0.00    -0.278 N 
HETATM   13  C7  UNL     1      -6.042   2.952  15.841  1.00  0.00     0.052 A 
ATOM     14  H4  UNL     1      -6.505   4.371  14.350  1.00  0.00     0.189 HD
HETATM   15  C8  UNL     1      -4.965   2.100  15.959  1.00  0.00     0.052 A 
HETATM   16  C12 UNL     1      -7.064   2.883  16.923  1.00  0.00     0.061 C 
HETATM   17  C9  UNL     1      -4.929   1.210  17.147  1.00  0.00     0.061 C 
HETATM   18  C10 UNL     1      -6.259   0.567  17.373  1.00  0.00     0.006 C 
HETATM   19  C11 UNL     1      -7.443   1.400  17.014  1.00  0.00     0.006 C 
ATOM     20  H5  UNL     1      -3.313   1.848  14.697  1.00  0.00     0.189 HD
ATOM     21  H2  UNL     1      -2.468   2.542  12.909  1.00  0.00     0.164 HD
ENDBRANCH   4   7
BRANCH   1  22
HETATM   22  C2  UNL     1       1.058   4.558   9.531  1.00  0.00     0.374 C 
BRANCH  22  23
HETATM   23  C1  UNL     1       2.293   5.012  10.209  1.00  0.00     0.248 C 
HETATM   24  O1  UNL     1       3.223   4.242  10.529  1.00  0.00    -0.271 OA
HETATM   25  N6  UNL     1       2.435   6.386  10.511  1.00  0.00    -0.351 N 
HETATM   26  C15 UNL     1       1.397   7.339  10.172  1.00  0.00     0.126 C 
HETATM   27  C19 UNL     1       3.614   6.923  11.171  1.00  0.00     0.126 C 
HETATM   28  C16 UNL     1       0.977   8.151  11.376  1.00  0.00     0.020 C 
HETATM   29  C17 UNL     1       1.652   7.546  12.589  1.00  0.00     0.003 C 
HETATM   30  C18 UNL     1       3.158   7.716  12.378  1.00  0.00     0.020 C 
ENDBRANCH  22  23
ENDBRANCH   1  22
TORSDOF 3
ENDMDL
MODEL 3
REMARK VINA RESULT: -7.151261480      5.014      7.543
REMARK  3 active torsions:
REMARK  status: ('A' for Active; 'I' for Inactive)
REMARK    1  A    between atoms: C1_2  and  C2_3 
REMARK       I    between atoms: C1_2  and  N6_25 
REMARK    2  A    between atoms: C2_3  and  N1_4 
REMARK    3  A    between atoms: C5_7  and  N2_8 
REMARK       I    between atoms: N2_8  and  C6_10 
REMARK       I    between atoms: C6_10  and  N3_12 
ROOT
HETATM    1  N1  UNL     1      -4.836   9.111  11.523  1.00  0.00     0.097 N 
HETATM    2  C3  UNL     1      -3.521   8.698  11.969  1.00  0.00     0.275 C 
HETATM    3  C4  UNL     1      -3.564   7.576  12.982  1.00  0.00     0.055 C 
HETATM    4  C5  UNL     1      -4.036   6.304  12.273  1.00  0.00     0.089 C 
HETATM    5  C13 UNL     1      -4.969   6.687  11.154  1.00  0.00     0.055 C 
HETATM    6  C14 UNL     1      -5.732   7.957  11.520  1.00  0.00     0.275 C 
ENDROOT
BRANCH   4   7
HETATM    7  N2  UNL     1      -4.721   5.468  13.254  1.00  0.00    -0.336 N 
HETATM    8  C6  UNL     1      -4.195   4.216  13.600  1.00  0.00     0.357 C 
HETATM    9  O2  UNL     1      -3.123   3.806  13.061  1.00  0.00    -0.243 OA
HETATM   10  N3  UNL     1      -4.841   3.383  14.552  1.00  0.00    -0.142 N 
HETATM   11  N4  UNL     1      -4.433   2.176  14.964  1.00  0.00    -0.278 N 
HETATM   12  N5  UNL     1      -5.965   3.666  15.194  1.00  0.00    -0.278 N 
HETATM   13  C7  UNL     1      -5.312   1.708  15.868  1.00  0.00     0.052 A 
ATOM     14  H4  UNL     1      -3.594   1.692  14.644  1.00  0.00     0.189 HD
HETATM   15  C8  UNL     1      -6.295   2.664  16.015  1.00  0.00     0.052 A 
HETATM   16  C12 UNL     1      -5.457   0.476  16.693  1.00  0.00     0.061 C 
HETATM   17  C9  UNL     1      -7.393   2.369  16.970  1.00  0.00     0.061 C 
HETATM   18  C10 UNL     1      -6.853   1.828  18.254  1.00  0.00     0.006 C 
HETATM   19  C11 UNL     1      -5.630   0.982  18.131  1.00  0.00     0.006 C 
ATOM     20  H5  UNL     1      -6.502   4.525  15.078  1.00  0.00     0.189 HD
ATOM     21  H2  UNL     1      -5.583   5.797  13.689  1.00  0.00     0.164 HD
ENDBRANCH   4   7
BRANCH   1  22
HETATM   22  C2  UNL     1      -4.722   9.523  10.138  1.00  0.00     0.374 C 
BRANCH  22  23
HETATM   23  C1  UNL     1      -5.941  10.185   9.622  1.00  0.00     0.248 C 
HETATM   24  O1  UNL     1      -6.334  11.303  10.014  1.00  0.00    -0.271 OA
HETATM   25  N6  UNL     1      -6.705   9.522   8.632  1.00  0.00    -0.351 N 
HETATM   26  C15 UNL     1      -6.312   8.221   8.129  1.00  0.00     0.126 C 
HETATM   27  C19 UNL     1      -7.914  10.097   8.064  1.00  0.00     0.126 C 
HETATM   28  C16 UNL     1      -7.444   7.224   8.235  1.00  0.00     0.020 C 
HETATM   29  C17 UNL     1      -8.555   7.880   9.026  1.00  0.00     0.003 C 
HETATM   30  C18 UNL     1      -9.027   9.079   8.200  1.00  0.00     0.020 C 
ENDBRANCH  22  23
ENDBRANCH   1  22
TORSDOF 3
ENDMDL
MODEL 4
REMARK VINA RESULT: -7.129763201      1.730      2.354
REMARK  3 active torsions:
REMARK  status: ('A' for Active; 'I' for Inactive)
REMARK    1  A    between atoms: C1_2  and  C2_3 
REMARK       I    between atoms: C1_2  and  N6_25 
REMARK    2  A    between atoms: C2_3  and  N1_4 
REMARK    3  A    between atoms: C5_7  and  N2_8 
REMARK       I    between atoms: N2_8  and  C6_10 
REMARK       I    between atoms: C6_10  and  N3_12 
ROOT
HETATM    1  N1  UNL     1       0.428   3.449  10.390  1.00  0.00     0.097 N 
HETATM    2  C3  UNL     1      -0.725   3.043   9.613  1.00  0.00     0.275 C 
HETATM    3  C4  UNL     1      -1.861   2.524  10.466  1.00  0.00     0.055 C 
HETATM    4  C5  UNL     1      -2.449   3.699  11.254  1.00  0.00     0.089 C 
HETATM    5  C13 UNL     1      -1.354   4.695  11.531  1.00  0.00     0.055 C 
HETATM    6  C14 UNL     1      -0.016   3.976  11.678  1.00  0.00     0.275 C 
ENDROOT
BRANCH   4   7
HETATM    7  N2  UNL     1      -3.001   3.176  12.499  1.00  0.00    -0.336 N 
HETATM    8  C6  UNL     1      -4.210   3.681  12.998  1.00  0.00     0.357 C 
HETATM    9  O2  UNL     1      -4.826   4.592  12.369  1.00  0.00    -0.243 OA
HETATM   10  N3  UNL     1      -4.769   3.189  14.208  1.00  0.00    -0.142 N 
HETATM   11  N4  UNL     1      -5.913   3.588  14.778  1.00  0.00    -0.278 N 
HETATM   12  N5  UNL     1      -4.244   2.249  14.980  1.00  0.00    -0.278 N 
HETATM   13  C7  UNL     1      -6.098   2.888  15.912  1.00  0.00     0.052 A 
ATOM     14  H4  UNL     1      -6.541   4.304  14.412  1.00  0.00     0.189 HD
HETATM   15  C8  UNL     1      -5.028   2.029  16.041  1.00  0.00     0.052 A 
HETATM   16  C12 UNL     1      -7.128   2.831  16.987  1.00  0.00     0.061 C 
HETATM   17  C9  UNL     1      -5.006   1.144  17.232  1.00  0.00     0.061 C 
HETATM   18  C10 UNL     1      -6.341   0.511  17.452  1.00  0.00     0.006 C 
HETATM   19  C11 UNL     1      -7.518   1.350  17.081  1.00  0.00     0.006 C 
ATOM     20  H5  UNL     1      -3.368   1.762  14.791  1.00  0.00     0.189 HD
ATOM     21  H2  UNL     1      -2.506   2.443  13.007  1.00  0.00     0.164 HD
ENDBRANCH   4   7
BRANCH   1  22
HETATM   22  C2  UNL     1       1.050   4.564   9.703  1.00  0.00     0.374 C 
BRANCH  22  23
HETATM   23  C1  UNL     1       2.272   4.185   8.959  1.00  0.00     0.248 C 
HETATM   24  O1  UNL     1       3.135   3.404   9.409  1.00  0.00    -0.271 OA
HETATM   25  N6  UNL     1       2.479   4.732   7.670  1.00  0.00    -0.351 N 
HETATM   26  C15 UNL     1       1.521   5.647   7.082  1.00  0.00     0.126 C 
HETATM   27  C19 UNL     1       3.646   4.413   6.865  1.00  0.00     0.126 C 
HETATM   28  C16 UNL     1       2.186   6.927   6.629  1.00  0.00     0.020 C 
HETATM   29  C17 UNL     1       3.614   6.899   7.133  1.00  0.00     0.003 C 
HETATM   30  C18 UNL     1       4.295   5.715   6.442  1.00  0.00     0.020 C 
ENDBRANCH  22  23
ENDBRANCH   1  22
TORSDOF 3
ENDMDL
MODEL 5
REMARK VINA RESULT: -7.087416187      4.975      8.854
REMARK  3 active torsions:
REMARK  status: ('A' for Active; 'I' for Inactive)
REMARK    1  A    between atoms: C1_2  and  C2_3 
REMARK       I    between atoms: C1_2  and  N6_25 
REMARK    2  A    between atoms: C2_3  and  N1_4 
REMARK    3  A    between atoms: C5_7  and  N2_8 
REMARK       I    between atoms: N2_8  and  C6_10 
REMARK       I    between atoms: C6_10  and  N3_12 
ROOT
HETATM    1  N1  UNL     1      -4.334   3.863  14.669  1.00  0.00     0.097 N 
HETATM    2  C3  UNL     1      -5.323   4.900  14.871  1.00  0.00     0.275 C 
HETATM    3  C4  UNL     1      -4.715   6.236  15.238  1.00  0.00     0.055 C 
HETATM    4  C5  UNL     1      -3.977   6.782  14.011  1.00  0.00     0.089 C 
HETATM    5  C13 UNL     1      -3.455   5.624  13.202  1.00  0.00     0.055 C 
HETATM    6  C14 UNL     1      -3.116   4.454  14.120  1.00  0.00     0.275 C 
ENDROOT
BRANCH   4   7
HETATM    7  N2  UNL     1      -2.880   7.621  14.482  1.00  0.00    -0.336 N 
HETATM    8  C6  UNL     1      -2.459   8.721  13.719  1.00  0.00     0.357 C 
HETATM    9  O2  UNL     1      -3.031   8.988  12.620  1.00  0.00    -0.243 OA
HETATM   10  N3  UNL     1      -1.395   9.554  14.154  1.00  0.00    -0.142 N 
HETATM   11  N4  UNL     1      -0.911  10.628  13.518  1.00  0.00    -0.278 N 
HETATM   12  N5  UNL     1      -0.697   9.402  15.270  1.00  0.00    -0.278 N 
HETATM   13  C7  UNL     1       0.094  11.146  14.246  1.00  0.00     0.052 A 
ATOM     14  H4  UNL     1      -1.250  10.993  12.628  1.00  0.00     0.189 HD
HETATM   15  C8  UNL     1       0.231  10.359  15.370  1.00  0.00     0.052 A 
HETATM   16  C12 UNL     1       1.030  12.299  14.126  1.00  0.00     0.061 C 
HETATM   17  C9  UNL     1       1.293  10.734  16.338  1.00  0.00     0.061 C 
HETATM   18  C10 UNL     1       1.277  12.205  16.605  1.00  0.00     0.006 C 
HETATM   19  C11 UNL     1       0.887  13.062  15.449  1.00  0.00     0.006 C 
ATOM     20  H5  UNL     1      -0.847   8.662  15.956  1.00  0.00     0.189 HD
ATOM     21  H2  UNL     1      -2.419   7.408  15.366  1.00  0.00     0.164 HD
ENDBRANCH   4   7
BRANCH   1  22
HETATM   22  C2  UNL     1      -4.836   2.971  13.641  1.00  0.00     0.374 C 
BRANCH  22  23
HETATM   23  C1  UNL     1      -4.396   1.569  13.817  1.00  0.00     0.248 C 
HETATM   24  O1  UNL     1      -3.930   1.125  14.887  1.00  0.00    -0.271 OA
HETATM   25  N6  UNL     1      -4.510   0.680  12.722  1.00  0.00    -0.351 N 
HETATM   26  C15 UNL     1      -5.041   1.124  11.449  1.00  0.00     0.126 C 
HETATM   27  C19 UNL     1      -4.108  -0.715  12.804  1.00  0.00     0.126 C 
HETATM   28  C16 UNL     1      -4.095   0.803  10.314  1.00  0.00     0.020 C 
HETATM   29  C17 UNL     1      -2.805   0.299  10.927  1.00  0.00     0.003 C 
HETATM   30  C18 UNL     1      -3.151  -0.996  11.664  1.00  0.00     0.020 C 
ENDBRANCH  22  23
ENDBRANCH   1  22
TORSDOF 3
ENDMDL
