MODEL 1
REMARK VINA RESULT: -7.802145289      0.000      0.000
REMARK  4 active torsions:
REMARK  status: ('A' for Active; 'I' for Inactive)
REMARK    1  A    between atoms: O1_2  and  O2_3 
REMARK    2  A    between atoms: O2_3  and  C2_4 
REMARK    3  A    between atoms: C13_17  and  C14_18 
REMARK    4  A    between atoms: C14_18  and  N1_19 
REMARK       I    between atoms: N1_19  and  C15_21 
ROOT
HETATM    1  C2  UNL     1      -4.641   1.993  14.973  1.00  0.00     0.197 C 
HETATM    2  C3  UNL     1      -5.833   2.884  15.255  1.00  0.00     0.072 C 
HETATM    3  C4  UNL     1      -5.494   4.339  15.170  1.00  0.00     0.015 C 
HETATM    4  C5  UNL     1      -4.112   4.513  14.627  1.00  0.00     0.039 C 
HETATM    5  C6  UNL     1      -3.151   3.708  15.435  1.00  0.00     0.178 C 
HETATM    6  O3  UNL     1      -3.504   2.399  15.631  1.00  0.00    -0.352 OA
HETATM    7  C7  UNL     1      -4.046   4.266  13.154  1.00  0.00     0.133 C 
HETATM    8  O4  UNL     1      -2.781   4.007  12.677  1.00  0.00    -0.372 OA
HETATM    9  C8  UNL     1      -3.041   3.735  11.334  1.00  0.00     0.094 C 
HETATM   10  C9  UNL     1      -4.254   2.870  11.290  1.00  0.00     0.047 C 
HETATM   11  C10 UNL     1      -4.818   3.052  12.707  1.00  0.00     0.023 C 
HETATM   12  C11 UNL     1      -4.411   1.847  13.494  1.00  0.00     0.078 C 
HETATM   13  C12 UNL     1      -3.295   5.066  10.644  1.00  0.00     0.077 C 
HETATM   14  C13 UNL     1      -2.365   5.141   9.476  1.00  0.00     0.243 C 
HETATM   15  N2  UNL     1      -1.950   3.769   9.235  1.00  0.00     0.097 N 
HETATM   16  C17 UNL     1      -0.662   3.753   8.607  1.00  0.00     0.311 C 
HETATM   17  C18 UNL     1      -1.863   3.208  10.592  1.00  0.00     0.253 C 
HETATM   18  C19 UNL     1      -1.820   1.726  10.456  1.00  0.00     0.046 C 
ENDROOT
BRANCH  14  19
HETATM   19  C14 UNL     1      -3.035   5.641   8.223  1.00  0.00     0.158 C 
BRANCH  19  20
HETATM   20  N1  UNL     1      -4.431   5.906   8.368  1.00  0.00    -0.359 N 
HETATM   21  C15 UNL     1      -5.422   5.160   7.714  1.00  0.00     0.213 C 
HETATM   22  C16 UNL     1      -6.885   5.474   7.895  1.00  0.00     0.117 C 
HETATM   23  O5  UNL     1      -5.116   4.214   6.964  1.00  0.00    -0.274 OA
ATOM     24  H1  UNL     1      -4.720   6.673   8.975  1.00  0.00     0.162 HD
ENDBRANCH  19  20
ENDBRANCH  14  19
BRANCH   1  25
HETATM   25  O2  UNL     1      -4.972   0.724  15.469  1.00  0.00    -0.201 OA
BRANCH  25  26
HETATM   26  O1  UNL     1      -4.696   0.686  16.739  1.00  0.00    -0.243 OA
HETATM   27  C1  UNL     1      -5.859   0.520  17.495  1.00  0.00     0.247 C 
ENDBRANCH  25  26
ENDBRANCH   1  25
TORSDOF 4
ENDMDL
MODEL 2
REMARK VINA RESULT: -7.666527983      3.509      6.898
REMARK  4 active torsions:
REMARK  status: ('A' for Active; 'I' for Inactive)
REMARK    1  A    between atoms: O1_2  and  O2_3 
REMARK    2  A    between atoms: O2_3  and  C2_4 
REMARK    3  A    between atoms: C13_17  and  C14_18 
REMARK    4  A    between atoms: C14_18  and  N1_19 
REMARK       I    between atoms: N1_19  and  C15_21 
ROOT
HETATM    1  C2  UNL     1      -1.392   7.575  13.074  1.00  0.00     0.197 C 
HETATM    2  C3  UNL     1      -1.438   8.151  14.475  1.00  0.00     0.072 C 
HETATM    3  C4  UNL     1      -2.794   8.037  15.097  1.00  0.00     0.015 C 
HETATM    4  C5  UNL     1      -3.683   7.196  14.238  1.00  0.00     0.039 C 
HETATM    5  C6  UNL     1      -3.693   7.736  12.848  1.00  0.00     0.178 C 
HETATM    6  O3  UNL     1      -2.458   7.967  12.301  1.00  0.00    -0.352 OA
HETATM    7  C7  UNL     1      -3.358   5.740  14.338  1.00  0.00     0.133 C 
HETATM    8  O4  UNL     1      -3.838   4.977  13.298  1.00  0.00    -0.372 OA
HETATM    9  C8  UNL     1      -3.316   3.722  13.609  1.00  0.00     0.094 C 
HETATM   10  C9  UNL     1      -1.906   3.931  14.043  1.00  0.00     0.047 C 
HETATM   11  C10 UNL     1      -1.881   5.445  14.303  1.00  0.00     0.023 C 
HETATM   12  C11 UNL     1      -1.243   6.079  13.108  1.00  0.00     0.078 C 
HETATM   13  C12 UNL     1      -4.157   3.151  14.740  1.00  0.00     0.077 C 
HETATM   14  C13 UNL     1      -4.630   1.803  14.299  1.00  0.00     0.243 C 
HETATM   15  N2  UNL     1      -3.747   1.431  13.207  1.00  0.00     0.097 N 
HETATM   16  C17 UNL     1      -4.419   0.524  12.325  1.00  0.00     0.311 C 
HETATM   17  C18 UNL     1      -3.501   2.713  12.530  1.00  0.00     0.253 C 
HETATM   18  C19 UNL     1      -2.323   2.526  11.640  1.00  0.00     0.046 C 
ENDROOT
BRANCH  14  19
HETATM   19  C14 UNL     1      -4.497   0.755  15.371  1.00  0.00     0.158 C 
BRANCH  19  20
HETATM   20  N1  UNL     1      -4.804   1.216  16.687  1.00  0.00    -0.359 N 
HETATM   21  C15 UNL     1      -6.072   1.071  17.271  1.00  0.00     0.213 C 
HETATM   22  C16 UNL     1      -6.353   1.573  18.664  1.00  0.00     0.117 C 
HETATM   23  O5  UNL     1      -7.000   0.521  16.649  1.00  0.00    -0.274 OA
ATOM     24  H1  UNL     1      -4.069   1.671  17.228  1.00  0.00     0.162 HD
ENDBRANCH  19  20
ENDBRANCH  14  19
BRANCH   1  25
HETATM   25  O2  UNL     1      -0.236   8.095  12.474  1.00  0.00    -0.201 OA
BRANCH  25  26
HETATM   26  O1  UNL     1       0.653   8.313  13.397  1.00  0.00    -0.243 OA
HETATM   27  C1  UNL     1       1.943   8.288  12.860  1.00  0.00     0.247 C 
ENDBRANCH  25  26
ENDBRANCH   1  25
TORSDOF 4
ENDMDL
MODEL 3
REMARK VINA RESULT: -7.438765707      2.370      7.410
REMARK  4 active torsions:
REMARK  status: ('A' for Active; 'I' for Inactive)
REMARK    1  A    between atoms: O1_2  and  O2_3 
REMARK    2  A    between atoms: O2_3  and  C2_4 
REMARK    3  A    between atoms: C13_17  and  C14_18 
REMARK    4  A    between atoms: C14_18  and  N1_19 
REMARK       I    between atoms: N1_19  and  C15_21 
ROOT
HETATM    1  C2  UNL     1      -2.960   5.410   7.424  1.00  0.00     0.197 C 
HETATM    2  C3  UNL     1      -3.193   6.851   7.831  1.00  0.00     0.072 C 
HETATM    3  C4  UNL     1      -4.493   7.042   8.546  1.00  0.00     0.015 C 
HETATM    4  C5  UNL     1      -5.113   5.714   8.845  1.00  0.00     0.039 C 
HETATM    5  C6  UNL     1      -5.219   4.917   7.589  1.00  0.00     0.178 C 
HETATM    6  O3  UNL     1      -4.068   4.832   6.851  1.00  0.00    -0.352 OA
HETATM    7  C7  UNL     1      -4.432   5.010   9.974  1.00  0.00     0.133 C 
HETATM    8  O4  UNL     1      -4.672   3.656  10.028  1.00  0.00    -0.372 OA
HETATM    9  C8  UNL     1      -3.857   3.271  11.092  1.00  0.00     0.094 C 
HETATM   10  C9  UNL     1      -2.560   3.986  10.931  1.00  0.00     0.047 C 
HETATM   11  C10 UNL     1      -2.928   5.073   9.909  1.00  0.00     0.023 C 
HETATM   12  C11 UNL     1      -2.437   4.599   8.577  1.00  0.00     0.078 C 
HETATM   13  C12 UNL     1      -4.559   3.695  12.374  1.00  0.00     0.077 C 
HETATM   14  C13 UNL     1      -4.661   2.481  13.241  1.00  0.00     0.243 C 
HETATM   15  N2  UNL     1      -3.680   1.551  12.707  1.00  0.00     0.097 N 
HETATM   16  C17 UNL     1      -4.073   0.206  13.003  1.00  0.00     0.311 C 
HETATM   17  C18 UNL     1      -3.748   1.796  11.259  1.00  0.00     0.253 C 
HETATM   18  C19 UNL     1      -2.535   1.186  10.649  1.00  0.00     0.046 C 
ENDROOT
BRANCH  14  19
HETATM   19  C14 UNL     1      -4.297   2.753  14.676  1.00  0.00     0.158 C 
BRANCH  19  20
HETATM   20  N1  UNL     1      -5.223   2.227  15.628  1.00  0.00    -0.359 N 
HETATM   21  C15 UNL     1      -4.892   1.207  16.532  1.00  0.00     0.213 C 
HETATM   22  C16 UNL     1      -5.900   0.679  17.520  1.00  0.00     0.117 C 
HETATM   23  O5  UNL     1      -3.750   0.709  16.540  1.00  0.00    -0.274 OA
ATOM     24  H1  UNL     1      -6.168   2.610  15.651  1.00  0.00     0.162 HD
ENDBRANCH  19  20
ENDBRANCH  14  19
BRANCH   1  25
HETATM   25  O2  UNL     1      -1.957   5.435   6.445  1.00  0.00    -0.201 OA
BRANCH  25  26
HETATM   26  O1  UNL     1      -0.929   4.770   6.882  1.00  0.00    -0.243 OA
HETATM   27  C1  UNL     1       0.263   5.352   6.442  1.00  0.00     0.247 C 
ENDBRANCH  25  26
ENDBRANCH   1  25
TORSDOF 4
ENDMDL
MODEL 4
REMARK VINA RESULT: -7.265377123      2.482      4.664
REMARK  4 active torsions:
REMARK  status: ('A' for Active; 'I' for Inactive)
REMARK    1  A    between atoms: O1_2  and  O2_3 
REMARK    2  A    between atoms: O2_3  and  C2_4 
REMARK    3  A    between atoms: C13_17  and  C14_18 
REMARK    4  A    between atoms: C14_18  and  N1_19 
REMARK       I    between atoms: N1_19  and  C15_21 
ROOT
HETATM    1  C2  UNL     1      -4.193   0.576  12.827  1.00  0.00     0.197 C 
HETATM    2  C3  UNL     1      -3.301  -0.637  12.653  1.00  0.00     0.072 C 
HETATM    3  C4  UNL     1      -2.974  -0.906  11.218  1.00  0.00     0.015 C 
HETATM    4  C5  UNL     1      -3.452   0.224  10.363  1.00  0.00     0.039 C 
HETATM    5  C6  UNL     1      -4.899   0.471  10.622  1.00  0.00     0.178 C 
HETATM    6  O3  UNL     1      -5.245   0.597  11.942  1.00  0.00    -0.352 OA
HETATM    7  C7  UNL     1      -2.583   1.434  10.482  1.00  0.00     0.133 C 
HETATM    8  O4  UNL     1      -3.176   2.604  10.063  1.00  0.00    -0.372 OA
HETATM    9  C8  UNL     1      -2.190   3.541  10.371  1.00  0.00     0.094 C 
HETATM   10  C9  UNL     1      -1.660   3.191  11.719  1.00  0.00     0.047 C 
HETATM   11  C10 UNL     1      -2.187   1.759  11.899  1.00  0.00     0.023 C 
HETATM   12  C11 UNL     1      -3.394   1.849  12.778  1.00  0.00     0.078 C 
HETATM   13  C12 UNL     1      -1.107   3.422   9.310  1.00  0.00     0.077 C 
HETATM   14  C13 UNL     1      -0.900   4.788   8.738  1.00  0.00     0.243 C 
HETATM   15  N2  UNL     1      -1.474   5.698   9.715  1.00  0.00     0.097 N 
HETATM   16  C17 UNL     1      -1.897   6.903   9.067  1.00  0.00     0.311 C 
HETATM   17  C18 UNL     1      -2.638   4.952  10.217  1.00  0.00     0.253 C 
HETATM   18  C19 UNL     1      -3.076   5.611  11.477  1.00  0.00     0.046 C 
ENDROOT
BRANCH  14  19
HETATM   19  C14 UNL     1       0.554   5.145   8.581  1.00  0.00     0.158 C 
BRANCH  19  20
HETATM   20  N1  UNL     1       1.220   5.453   9.807  1.00  0.00    -0.359 N 
HETATM   21  C15 UNL     1       2.096   4.563  10.446  1.00  0.00     0.213 C 
HETATM   22  C16 UNL     1       2.777   4.930  11.739  1.00  0.00     0.117 C 
HETATM   23  O5  UNL     1       2.333   3.442   9.957  1.00  0.00    -0.274 OA
ATOM     24  H1  UNL     1       1.050   6.362  10.237  1.00  0.00     0.162 HD
ENDBRANCH  19  20
ENDBRANCH  14  19
BRANCH   1  25
HETATM   25  O2  UNL     1      -4.742   0.479  14.114  1.00  0.00    -0.201 OA
BRANCH  25  26
HETATM   26  O1  UNL     1      -3.950   1.080  14.952  1.00  0.00    -0.243 OA
HETATM   27  C1  UNL     1      -4.540   1.167  16.216  1.00  0.00     0.247 C 
ENDBRANCH  25  26
ENDBRANCH   1  25
TORSDOF 4
ENDMDL
MODEL 5
REMARK VINA RESULT: -7.077812841      3.799      7.572
REMARK  4 active torsions:
REMARK  status: ('A' for Active; 'I' for Inactive)
REMARK    1  A    between atoms: O1_2  and  O2_3 
REMARK    2  A    between atoms: O2_3  and  C2_4 
REMARK    3  A    between atoms: C13_17  and  C14_18 
REMARK    4  A    between atoms: C14_18  and  N1_19 
REMARK       I    between atoms: N1_19  and  C15_21 
ROOT
HETATM    1  C2  UNL     1      -5.154   9.061   9.906  1.00  0.00     0.197 C 
HETATM    2  C3  UNL     1      -5.897   9.868  10.952  1.00  0.00     0.072 C 
HETATM    3  C4  UNL     1      -7.009   9.096  11.589  1.00  0.00     0.015 C 
HETATM    4  C5  UNL     1      -6.949   7.664  11.161  1.00  0.00     0.039 C 
HETATM    5  C6  UNL     1      -6.927   7.587   9.672  1.00  0.00     0.178 C 
HETATM    6  O3  UNL     1      -5.996   8.383   9.058  1.00  0.00    -0.352 OA
HETATM    7  C7  UNL     1      -5.849   6.914  11.840  1.00  0.00     0.133 C 
HETATM    8  O4  UNL     1      -5.483   5.747  11.209  1.00  0.00    -0.372 OA
HETATM    9  C8  UNL     1      -4.409   5.330  11.996  1.00  0.00     0.094 C 
HETATM   10  C9  UNL     1      -3.584   6.538  12.284  1.00  0.00     0.047 C 
HETATM   11  C10 UNL     1      -4.549   7.672  11.905  1.00  0.00     0.023 C 
HETATM   12  C11 UNL     1      -4.145   8.146  10.544  1.00  0.00     0.078 C 
HETATM   13  C12 UNL     1      -4.988   4.746  13.275  1.00  0.00     0.077 C 
HETATM   14  C13 UNL     1      -4.416   3.373  13.429  1.00  0.00     0.243 C 
HETATM   15  N2  UNL     1      -3.244   3.353  12.570  1.00  0.00     0.097 N 
HETATM   16  C17 UNL     1      -2.976   2.012  12.144  1.00  0.00     0.311 C 
HETATM   17  C18 UNL     1      -3.661   4.177  11.425  1.00  0.00     0.253 C 
HETATM   18  C19 UNL     1      -2.432   4.540  10.669  1.00  0.00     0.046 C 
ENDROOT
BRANCH  14  19
HETATM   19  C14 UNL     1      -3.955   3.084  14.833  1.00  0.00     0.158 C 
BRANCH  19  20
HETATM   20  N1  UNL     1      -4.958   2.515  15.676  1.00  0.00    -0.359 N 
HETATM   21  C15 UNL     1      -4.738   1.377  16.466  1.00  0.00     0.213 C 
HETATM   22  C16 UNL     1      -5.826   0.810  17.341  1.00  0.00     0.117 C 
HETATM   23  O5  UNL     1      -3.632   0.804  16.462  1.00  0.00    -0.274 OA
ATOM     24  H1  UNL     1      -5.877   2.958  15.705  1.00  0.00     0.162 HD
ENDBRANCH  19  20
ENDBRANCH  14  19
BRANCH   1  25
HETATM   25  O2  UNL     1      -4.443   9.986   9.128  1.00  0.00    -0.201 OA
BRANCH  25  26
HETATM   26  O1  UNL     1      -5.228  10.981   8.840  1.00  0.00    -0.243 OA
HETATM   27  C1  UNL     1      -5.009  11.423   7.533  1.00  0.00     0.247 C 
ENDBRANCH  25  26
ENDBRANCH   1  25
TORSDOF 4
ENDMDL
