MODEL 1
REMARK VINA RESULT: -6.919227205      0.000      0.000
REMARK  8 active torsions:
REMARK  status: ('A' for Active; 'I' for Inactive)
REMARK    1  A    between atoms: C2_2  and  C4_4 
REMARK    2  A    between atoms: C4_4  and  C5_5 
REMARK    3  A    between atoms: C5_5  and  N1_6 
REMARK    4  A    between atoms: N1_6  and  C6_8 
REMARK    5  A    between atoms: C7_11  and  N3_12 
REMARK    6  A    between atoms: C10_15  and  N4_16 
REMARK    7  A    between atoms: C15_23  and  N6_24 
REMARK    8  A    between atoms: N6_24  and  C16_26 
ROOT
HETATM    1  C6  UNL     1      -4.705   2.543  12.969  1.00  0.00     0.707 A 
HETATM    2  N2  UNL     1      -4.057   3.720  12.985  1.00  0.00    -0.021 N 
ATOM      3  H2  UNL     1      -4.015   4.251  12.115  1.00  0.00     0.203 HD
HETATM    4  C7  UNL     1      -3.460   4.246  14.072  1.00  0.00     0.709 A 
HETATM    5  N5  UNL     1      -3.542   3.505  15.214  1.00  0.00    -0.021 N 
ATOM      6  H5  UNL     1      -3.105   3.859  16.065  1.00  0.00     0.203 HD
HETATM    7  C15 UNL     1      -4.172   2.334  15.251  1.00  0.00     0.707 A 
HETATM    8  N7  UNL     1      -4.759   1.848  14.119  1.00  0.00    -0.022 N 
ATOM      9  H7  UNL     1      -5.243   0.950  14.145  1.00  0.00     0.203 HD
ENDROOT
BRANCH   4  10
HETATM   10  N3  UNL     1      -2.793   5.485  14.037  1.00  0.00    -0.216 N 
HETATM   11  C8  UNL     1      -1.531   5.654  13.362  1.00  0.00     0.143 C 
HETATM   12  C9  UNL     1      -1.570   6.972  12.581  1.00  0.00     0.045 C 
HETATM   13  C10 UNL     1      -1.690   8.088  13.589  1.00  0.00     0.081 C 
HETATM   14  C13 UNL     1      -2.255   7.644  14.891  1.00  0.00     0.045 C 
HETATM   15  C14 UNL     1      -3.374   6.629  14.689  1.00  0.00     0.143 C 
BRANCH  13  16
HETATM   16  N4  UNL     1      -2.340   9.253  13.039  1.00  0.00    -0.416 N 
HETATM   17  C11 UNL     1      -2.999   9.018  11.799  1.00  0.00     0.143 C 
HETATM   18  C12 UNL     1      -1.578  10.447  13.127  1.00  0.00     0.143 C 
ENDBRANCH  13  16
ENDBRANCH   4  10
BRANCH   1  19
HETATM   19  N1  UNL     1      -5.243   2.130  11.871  1.00  0.00    -0.225 N 
ATOM     20  H1  UNL     1      -6.217   2.351  11.663  1.00  0.00     0.177 HD
BRANCH  19  21
HETATM   21  C5  UNL     1      -4.469   1.361  10.948  1.00  0.00     0.138 C 
BRANCH  21  22
HETATM   22  C4  UNL     1      -4.669  -0.127  11.104  1.00  0.00     0.024 C 
BRANCH  22  23
HETATM   23  C2  UNL     1      -3.421  -0.660  11.807  1.00  0.00    -0.021 C 
HETATM   24  C1  UNL     1      -2.219   0.151  11.365  1.00  0.00     0.009 C 
HETATM   25  C3  UNL     1      -3.168  -2.103  11.417  1.00  0.00     0.009 C 
ENDBRANCH  22  23
ENDBRANCH  21  22
ENDBRANCH  19  21
ENDBRANCH   1  19
BRANCH   7  26
HETATM   26  N6  UNL     1      -4.287   1.589  16.290  1.00  0.00    -0.220 N 
ATOM     27  H6  UNL     1      -3.504   1.444  16.928  1.00  0.00     0.178 HD
BRANCH  26  28
HETATM   28  C16 UNL     1      -5.579   0.957  16.525  1.00  0.00     0.099 A 
HETATM   29  C17 UNL     1      -6.651   1.833  17.056  1.00  0.00     0.028 A 
HETATM   30  C18 UNL     1      -6.040   0.796  17.934  1.00  0.00     0.028 A 
ENDBRANCH  26  28
ENDBRANCH   7  26
TORSDOF 8
ENDMDL
MODEL 2
REMARK VINA RESULT: -6.858847040      2.981      5.334
REMARK  8 active torsions:
REMARK  status: ('A' for Active; 'I' for Inactive)
REMARK    1  A    between atoms: C2_2  and  C4_4 
REMARK    2  A    between atoms: C4_4  and  C5_5 
REMARK    3  A    between atoms: C5_5  and  N1_6 
REMARK    4  A    between atoms: N1_6  and  C6_8 
REMARK    5  A    between atoms: C7_11  and  N3_12 
REMARK    6  A    between atoms: C10_15  and  N4_16 
REMARK    7  A    between atoms: C15_23  and  N6_24 
REMARK    8  A    between atoms: N6_24  and  C16_26 
ROOT
HETATM    1  C6  UNL     1      -5.629   4.663  14.156  1.00  0.00     0.707 A 
HETATM    2  N2  UNL     1      -4.558   4.490  13.363  1.00  0.00    -0.021 N 
ATOM      3  H2  UNL     1      -4.350   5.218  12.680  1.00  0.00     0.203 HD
HETATM    4  C7  UNL     1      -3.741   3.420  13.410  1.00  0.00     0.709 A 
HETATM    5  N5  UNL     1      -4.055   2.471  14.338  1.00  0.00    -0.021 N 
ATOM      6  H5  UNL     1      -3.467   1.640  14.414  1.00  0.00     0.203 HD
HETATM    7  C15 UNL     1      -5.103   2.595  15.147  1.00  0.00     0.707 A 
HETATM    8  N7  UNL     1      -5.898   3.701  15.056  1.00  0.00    -0.022 N 
ATOM      9  H7  UNL     1      -6.702   3.798  15.676  1.00  0.00     0.203 HD
ENDROOT
BRANCH   4  10
HETATM   10  N3  UNL     1      -2.630   3.285  12.556  1.00  0.00    -0.216 N 
HETATM   11  C8  UNL     1      -2.452   2.131  11.712  1.00  0.00     0.143 C 
HETATM   12  C9  UNL     1      -1.984   2.606  10.332  1.00  0.00     0.045 C 
HETATM   13  C10 UNL     1      -0.627   3.242  10.513  1.00  0.00     0.081 C 
HETATM   14  C13 UNL     1      -0.377   3.707  11.902  1.00  0.00     0.045 C 
HETATM   15  C14 UNL     1      -1.632   4.321  12.511  1.00  0.00     0.143 C 
BRANCH  13  16
HETATM   16  N4  UNL     1      -0.353   4.239   9.506  1.00  0.00    -0.416 N 
HETATM   17  C11 UNL     1      -1.369   4.357   8.516  1.00  0.00     0.143 C 
HETATM   18  C12 UNL     1       0.985   4.245   9.034  1.00  0.00     0.143 C 
ENDBRANCH  13  16
ENDBRANCH   4  10
BRANCH   1  19
HETATM   19  N1  UNL     1      -6.347   5.728  14.028  1.00  0.00    -0.225 N 
ATOM     20  H1  UNL     1      -7.023   5.980  14.750  1.00  0.00     0.177 HD
BRANCH  19  21
HETATM   21  C5  UNL     1      -6.192   6.553  12.871  1.00  0.00     0.138 C 
BRANCH  21  22
HETATM   22  C4  UNL     1      -7.439   7.331  12.528  1.00  0.00     0.024 C 
BRANCH  22  23
HETATM   23  C2  UNL     1      -7.007   8.439  11.566  1.00  0.00    -0.021 C 
HETATM   24  C1  UNL     1      -7.625   8.182  10.205  1.00  0.00     0.009 C 
HETATM   25  C3  UNL     1      -5.501   8.433  11.393  1.00  0.00     0.009 C 
ENDBRANCH  22  23
ENDBRANCH  21  22
ENDBRANCH  19  21
ENDBRANCH   1  19
BRANCH   7  26
HETATM   26  N6  UNL     1      -5.452   1.743  16.042  1.00  0.00    -0.220 N 
ATOM     27  H6  UNL     1      -4.941   0.869  16.169  1.00  0.00     0.178 HD
BRANCH  26  28
HETATM   28  C16 UNL     1      -6.605   2.071  16.869  1.00  0.00     0.099 A 
HETATM   29  C17 UNL     1      -6.528   1.667  18.293  1.00  0.00     0.028 A 
HETATM   30  C18 UNL     1      -7.455   0.952  17.371  1.00  0.00     0.028 A 
ENDBRANCH  26  28
ENDBRANCH   7  26
TORSDOF 8
ENDMDL
MODEL 3
REMARK VINA RESULT: -6.857749982      2.947      3.547
REMARK  8 active torsions:
REMARK  status: ('A' for Active; 'I' for Inactive)
REMARK    1  A    between atoms: C2_2  and  C4_4 
REMARK    2  A    between atoms: C4_4  and  C5_5 
REMARK    3  A    between atoms: C5_5  and  N1_6 
REMARK    4  A    between atoms: N1_6  and  C6_8 
REMARK    5  A    between atoms: C7_11  and  N3_12 
REMARK    6  A    between atoms: C10_15  and  N4_16 
REMARK    7  A    between atoms: C15_23  and  N6_24 
REMARK    8  A    between atoms: N6_24  and  C16_26 
ROOT
HETATM    1  C6  UNL     1      -4.212   3.000  13.572  1.00  0.00     0.707 A 
HETATM    2  N2  UNL     1      -4.482   4.111  12.867  1.00  0.00    -0.021 N 
ATOM      3  H2  UNL     1      -3.919   4.296  12.037  1.00  0.00     0.203 HD
HETATM    4  C7  UNL     1      -5.447   4.996  13.181  1.00  0.00     0.709 A 
HETATM    5  N5  UNL     1      -6.178   4.711  14.297  1.00  0.00    -0.021 N 
ATOM      6  H5  UNL     1      -6.921   5.350  14.578  1.00  0.00     0.203 HD
HETATM    7  C15 UNL     1      -5.951   3.624  15.029  1.00  0.00     0.707 A 
HETATM    8  N7  UNL     1      -4.959   2.760  14.665  1.00  0.00    -0.022 N 
ATOM      9  H7  UNL     1      -4.783   1.926  15.225  1.00  0.00     0.203 HD
ENDROOT
BRANCH   4  10
HETATM   10  N3  UNL     1      -5.692   6.147  12.408  1.00  0.00    -0.216 N 
HETATM   11  C8  UNL     1      -4.720   6.662  11.477  1.00  0.00     0.143 C 
HETATM   12  C9  UNL     1      -5.446   7.062  10.188  1.00  0.00     0.045 C 
HETATM   13  C10 UNL     1      -6.380   8.196  10.532  1.00  0.00     0.081 C 
HETATM   14  C13 UNL     1      -6.738   8.244  11.974  1.00  0.00     0.045 C 
HETATM   15  C14 UNL     1      -6.944   6.843  12.538  1.00  0.00     0.143 C 
BRANCH  13  16
HETATM   16  N4  UNL     1      -7.517   8.254   9.647  1.00  0.00    -0.416 N 
HETATM   17  C11 UNL     1      -7.641   7.126   8.787  1.00  0.00     0.143 C 
HETATM   18  C12 UNL     1      -7.734   9.524   9.050  1.00  0.00     0.143 C 
ENDBRANCH  13  16
ENDBRANCH   4  10
BRANCH   1  19
HETATM   19  N1  UNL     1      -3.262   2.216  13.183  1.00  0.00    -0.225 N 
ATOM     20  H1  UNL     1      -2.695   1.720  13.870  1.00  0.00     0.177 HD
BRANCH  19  21
HETATM   21  C5  UNL     1      -3.011   2.048  11.786  1.00  0.00     0.138 C 
BRANCH  21  22
HETATM   22  C4  UNL     1      -2.536   0.659  11.434  1.00  0.00     0.024 C 
BRANCH  22  23
HETATM   23  C2  UNL     1      -3.706  -0.283  11.717  1.00  0.00    -0.021 C 
HETATM   24  C1  UNL     1      -3.267  -1.711  11.456  1.00  0.00     0.009 C 
HETATM   25  C3  UNL     1      -4.865   0.016  10.787  1.00  0.00     0.009 C 
ENDBRANCH  22  23
ENDBRANCH  21  22
ENDBRANCH  19  21
ENDBRANCH   1  19
BRANCH   7  26
HETATM   26  N6  UNL     1      -6.601   3.296  16.087  1.00  0.00    -0.220 N 
ATOM     27  H6  UNL     1      -7.251   3.943  16.531  1.00  0.00     0.178 HD
BRANCH  26  28
HETATM   28  C16 UNL     1      -6.374   1.962  16.628  1.00  0.00     0.099 A 
HETATM   29  C17 UNL     1      -7.561   1.268  17.183  1.00  0.00     0.028 A 
HETATM   30  C18 UNL     1      -6.500   1.768  18.102  1.00  0.00     0.028 A 
ENDBRANCH  26  28
ENDBRANCH   7  26
TORSDOF 8
ENDMDL
MODEL 4
REMARK VINA RESULT: -6.782908366      1.431      1.929
REMARK  8 active torsions:
REMARK  status: ('A' for Active; 'I' for Inactive)
REMARK    1  A    between atoms: C2_2  and  C4_4 
REMARK    2  A    between atoms: C4_4  and  C5_5 
REMARK    3  A    between atoms: C5_5  and  N1_6 
REMARK    4  A    between atoms: N1_6  and  C6_8 
REMARK    5  A    between atoms: C7_11  and  N3_12 
REMARK    6  A    between atoms: C10_15  and  N4_16 
REMARK    7  A    between atoms: C15_23  and  N6_24 
REMARK    8  A    between atoms: N6_24  and  C16_26 
ROOT
HETATM    1  C6  UNL     1      -4.146   1.279  13.402  1.00  0.00     0.707 A 
HETATM    2  N2  UNL     1      -3.754   2.563  13.423  1.00  0.00    -0.021 N 
ATOM      3  H2  UNL     1      -3.506   3.000  12.535  1.00  0.00     0.203 HD
HETATM    4  C7  UNL     1      -3.668   3.315  14.537  1.00  0.00     0.709 A 
HETATM    5  N5  UNL     1      -4.010   2.694  15.702  1.00  0.00    -0.021 N 
ATOM      6  H5  UNL     1      -3.961   3.220  16.576  1.00  0.00     0.203 HD
HETATM    7  C15 UNL     1      -4.405   1.424  15.736  1.00  0.00     0.707 A 
HETATM    8  N7  UNL     1      -4.474   0.709  14.575  1.00  0.00    -0.022 N 
ATOM      9  H7  UNL     1      -4.776  -0.265  14.598  1.00  0.00     0.203 HD
ENDROOT
BRANCH   4  10
HETATM   10  N3  UNL     1      -3.251   4.659  14.507  1.00  0.00    -0.216 N 
HETATM   11  C8  UNL     1      -1.859   5.026  14.467  1.00  0.00     0.143 C 
HETATM   12  C9  UNL     1      -1.685   6.165  13.456  1.00  0.00     0.045 C 
HETATM   13  C10 UNL     1      -2.446   7.355  13.986  1.00  0.00     0.081 C 
HETATM   14  C13 UNL     1      -3.517   6.986  14.949  1.00  0.00     0.045 C 
HETATM   15  C14 UNL     1      -4.232   5.712  14.515  1.00  0.00     0.143 C 
BRANCH  13  16
HETATM   16  N4  UNL     1      -2.888   8.235  12.931  1.00  0.00    -0.416 N 
HETATM   17  C11 UNL     1      -3.023   7.598  11.664  1.00  0.00     0.143 C 
HETATM   18  C12 UNL     1      -2.266   9.510  12.928  1.00  0.00     0.143 C 
ENDBRANCH  13  16
ENDBRANCH   4  10
BRANCH   1  19
HETATM   19  N1  UNL     1      -4.194   0.648  12.276  1.00  0.00    -0.225 N 
ATOM     20  H1  UNL     1      -4.675  -0.249  12.211  1.00  0.00     0.177 HD
BRANCH  19  21
HETATM   21  C5  UNL     1      -3.569   1.213  11.120  1.00  0.00     0.138 C 
BRANCH  21  22
HETATM   22  C4  UNL     1      -2.076   0.991  11.087  1.00  0.00     0.024 C 
BRANCH  22  23
HETATM   23  C2  UNL     1      -1.450   2.321  10.668  1.00  0.00    -0.021 C 
HETATM   24  C1  UNL     1      -0.638   2.872  11.824  1.00  0.00     0.009 C 
HETATM   25  C3  UNL     1      -2.528   3.335  10.342  1.00  0.00     0.009 C 
ENDBRANCH  22  23
ENDBRANCH  21  22
ENDBRANCH  19  21
ENDBRANCH   1  19
BRANCH   7  26
HETATM   26  N6  UNL     1      -4.742   0.782  16.795  1.00  0.00    -0.220 N 
ATOM     27  H6  UNL     1      -4.042   0.339  17.391  1.00  0.00     0.178 HD
BRANCH  26  28
HETATM   28  C16 UNL     1      -6.162   0.709  17.113  1.00  0.00     0.099 A 
HETATM   29  C17 UNL     1      -6.919   1.981  17.032  1.00  0.00     0.028 A 
HETATM   30  C18 UNL     1      -6.639   1.371  18.362  1.00  0.00     0.028 A 
ENDBRANCH  26  28
ENDBRANCH   7  26
TORSDOF 8
ENDMDL
MODEL 5
REMARK VINA RESULT: -6.752458061      2.793      5.313
REMARK  8 active torsions:
REMARK  status: ('A' for Active; 'I' for Inactive)
REMARK    1  A    between atoms: C2_2  and  C4_4 
REMARK    2  A    between atoms: C4_4  and  C5_5 
REMARK    3  A    between atoms: C5_5  and  N1_6 
REMARK    4  A    between atoms: N1_6  and  C6_8 
REMARK    5  A    between atoms: C7_11  and  N3_12 
REMARK    6  A    between atoms: C10_15  and  N4_16 
REMARK    7  A    between atoms: C15_23  and  N6_24 
REMARK    8  A    between atoms: N6_24  and  C16_26 
ROOT
HETATM    1  C6  UNL     1      -4.506   2.523  13.966  1.00  0.00     0.707 A 
HETATM    2  N2  UNL     1      -4.696   3.574  13.150  1.00  0.00    -0.021 N 
ATOM      3  H2  UNL     1      -5.242   4.359  13.505  1.00  0.00     0.203 HD
HETATM    4  C7  UNL     1      -4.213   3.662  11.896  1.00  0.00     0.709 A 
HETATM    5  N5  UNL     1      -3.487   2.591  11.461  1.00  0.00    -0.021 N 
ATOM      6  H5  UNL     1      -3.099   2.608  10.518  1.00  0.00     0.203 HD
HETATM    7  C15 UNL     1      -3.270   1.527  12.229  1.00  0.00     0.707 A 
HETATM    8  N7  UNL     1      -3.784   1.492  13.493  1.00  0.00    -0.022 N 
ATOM      9  H7  UNL     1      -3.619   0.677  14.083  1.00  0.00     0.203 HD
ENDROOT
BRANCH   4  10
HETATM   10  N3  UNL     1      -4.439   4.786  11.080  1.00  0.00    -0.216 N 
HETATM   11  C8  UNL     1      -4.226   4.751   9.656  1.00  0.00     0.143 C 
HETATM   12  C9  UNL     1      -5.392   5.473   8.972  1.00  0.00     0.045 C 
HETATM   13  C10 UNL     1      -5.335   6.920   9.397  1.00  0.00     0.081 C 
HETATM   14  C13 UNL     1      -4.599   7.129  10.671  1.00  0.00     0.045 C 
HETATM   15  C14 UNL     1      -4.898   6.016  11.669  1.00  0.00     0.143 C 
BRANCH  13  16
HETATM   16  N4  UNL     1      -6.633   7.550   9.363  1.00  0.00    -0.416 N 
HETATM   17  C11 UNL     1      -7.596   6.851   8.583  1.00  0.00     0.143 C 
HETATM   18  C12 UNL     1      -6.598   8.959   9.202  1.00  0.00     0.143 C 
ENDBRANCH  13  16
ENDBRANCH   4  10
BRANCH   1  19
HETATM   19  N1  UNL     1      -5.015   2.541  15.153  1.00  0.00    -0.225 N 
ATOM     20  H1  UNL     1      -5.817   3.136  15.357  1.00  0.00     0.177 HD
BRANCH  19  21
HETATM   21  C5  UNL     1      -4.447   1.723  16.179  1.00  0.00     0.138 C 
BRANCH  21  22
HETATM   22  C4  UNL     1      -5.456   0.813  16.835  1.00  0.00     0.024 C 
BRANCH  22  23
HETATM   23  C2  UNL     1      -6.511   1.721  17.467  1.00  0.00    -0.021 C 
HETATM   24  C1  UNL     1      -6.347   1.697  18.974  1.00  0.00     0.009 C 
HETATM   25  C3  UNL     1      -7.905   1.214  17.151  1.00  0.00     0.009 C 
ENDBRANCH  22  23
ENDBRANCH  21  22
ENDBRANCH  19  21
ENDBRANCH   1  19
BRANCH   7  26
HETATM   26  N6  UNL     1      -2.597   0.490  11.883  1.00  0.00    -0.220 N 
ATOM     27  H6  UNL     1      -1.625   0.371  12.169  1.00  0.00     0.178 HD
BRANCH  26  28
HETATM   28  C16 UNL     1      -3.273  -0.509  11.068  1.00  0.00     0.099 A 
HETATM   29  C17 UNL     1      -4.368  -1.262  11.726  1.00  0.00     0.028 A 
HETATM   30  C18 UNL     1      -3.084  -1.948  11.414  1.00  0.00     0.028 A 
ENDBRANCH  26  28
ENDBRANCH   7  26
TORSDOF 8
ENDMDL
