MODEL 1
REMARK VINA RESULT: -6.264153953      0.000      0.000
REMARK  9 active torsions:
REMARK  status: ('A' for Active; 'I' for Inactive)
REMARK    1  A    between atoms: C2_2  and  N1_3 
REMARK    2  A    between atoms: N1_3  and  C3_5 
REMARK    3  A    between atoms: C3_5  and  N2_7 
REMARK    4  A    between atoms: N3_9  and  C5_10 
REMARK    5  A    between atoms: C5_10  and  C6_11 
REMARK    6  A    between atoms: N4_12  and  N5_14 
REMARK    7  A    between atoms: C12_20  and  C13_21 
REMARK    8  A    between atoms: C13_21  and  O2_23 
REMARK    9  A    between atoms: O2_23  and  C14_24 
ROOT
HETATM    1  N2  UNL     1      -3.754   3.990  13.180  1.00  0.00    -0.284 N 
HETATM    2  C4  UNL     1      -4.370   4.567  11.973  1.00  0.00     0.407 C 
HETATM    3  N3  UNL     1      -3.492   4.314  10.877  1.00  0.00     0.132 N 
HETATM    4  C12 UNL     1      -2.270   3.765  11.405  1.00  0.00     0.390 C 
HETATM    5  C16 UNL     1      -2.378   3.907  12.873  1.00  0.00     0.125 C 
HETATM    6  N6  UNL     1      -1.394   3.947  13.677  1.00  0.00    -0.386 N 
ATOM      7  H61 UNL     1      -0.401   3.887  13.455  1.00  0.00     0.157 HD
ATOM      8  H62 UNL     1      -1.469   4.044  14.690  1.00  0.00     0.157 HD
ENDROOT
BRANCH   3   9
HETATM    9  C5  UNL     1      -3.174   5.485  10.103  1.00  0.00     0.322 C 
BRANCH   9  10
HETATM   10  C6  UNL     1      -2.625   5.169   8.779  1.00  0.00     0.110 C 
HETATM   11  N4  UNL     1      -3.370   5.348   7.735  1.00  0.00    -0.316 N 
ATOM     12  H4  UNL     1      -2.985   5.125   6.817  1.00  0.00     0.185 HD
BRANCH  11  13
HETATM   13  N5  UNL     1      -4.663   5.826   7.812  1.00  0.00    -0.328 N 
HETATM   14  C7  UNL     1      -5.761   4.906   7.982  1.00  0.00     0.142 C 
HETATM   15  C8  UNL     1      -7.079   5.657   7.955  1.00  0.00     0.021 C 
HETATM   16  C9  UNL     1      -7.097   6.816   8.903  1.00  0.00     0.003 C 
HETATM   17  C10 UNL     1      -5.820   7.590   8.910  1.00  0.00     0.021 C 
HETATM   18  C11 UNL     1      -4.960   7.234   7.729  1.00  0.00     0.142 C 
ENDBRANCH  11  13
ENDBRANCH   9  10
ENDBRANCH   3   9
BRANCH   4  19
HETATM   19  C13 UNL     1      -2.165   2.298  11.118  1.00  0.00     0.300 C 
HETATM   20  O1  UNL     1      -1.848   1.956   9.949  1.00  0.00    -0.262 OA
BRANCH  19  21
HETATM   21  O2  UNL     1      -2.392   1.306  12.035  1.00  0.00    -0.320 OA
BRANCH  21  22
HETATM   22  C14 UNL     1      -3.322   0.255  11.835  1.00  0.00     0.174 C 
HETATM   23  C15 UNL     1      -4.716   0.838  11.691  1.00  0.00     0.034 C 
ENDBRANCH  21  22
ENDBRANCH  19  21
ENDBRANCH   4  19
BRANCH   1  24
HETATM   24  C3  UNL     1      -4.439   3.621  14.367  1.00  0.00     0.176 C 
HETATM   25  S1  UNL     1      -5.868   4.410  14.662  1.00  0.00    -0.041 SA
BRANCH  24  26
HETATM   26  N1  UNL     1      -3.957   2.651  15.253  1.00  0.00    -0.367 N 
ATOM     27  H1  UNL     1      -3.120   2.829  15.809  1.00  0.00     0.161 HD
BRANCH  26  28
HETATM   28  C2  UNL     1      -4.663   1.390  15.368  1.00  0.00     0.117 C 
HETATM   29  C1  UNL     1      -5.290   1.220  16.725  1.00  0.00     0.026 C 
ENDBRANCH  26  28
ENDBRANCH  24  26
ENDBRANCH   1  24
TORSDOF 9
ENDMDL
MODEL 2
REMARK VINA RESULT: -6.179378088      1.430      2.089
REMARK  9 active torsions:
REMARK  status: ('A' for Active; 'I' for Inactive)
REMARK    1  A    between atoms: C2_2  and  N1_3 
REMARK    2  A    between atoms: N1_3  and  C3_5 
REMARK    3  A    between atoms: C3_5  and  N2_7 
REMARK    4  A    between atoms: N3_9  and  C5_10 
REMARK    5  A    between atoms: C5_10  and  C6_11 
REMARK    6  A    between atoms: N4_12  and  N5_14 
REMARK    7  A    between atoms: C12_20  and  C13_21 
REMARK    8  A    between atoms: C13_21  and  O2_23 
REMARK    9  A    between atoms: O2_23  and  C14_24 
ROOT
HETATM    1  N2  UNL     1      -3.900   3.734  13.309  1.00  0.00    -0.284 N 
HETATM    2  C4  UNL     1      -4.694   4.116  12.129  1.00  0.00     0.407 C 
HETATM    3  N3  UNL     1      -3.880   3.909  10.975  1.00  0.00     0.132 N 
HETATM    4  C12 UNL     1      -2.549   3.590  11.421  1.00  0.00     0.390 C 
HETATM    5  C16 UNL     1      -2.557   3.830  12.880  1.00  0.00     0.125 C 
HETATM    6  N6  UNL     1      -1.528   4.078  13.585  1.00  0.00    -0.386 N 
ATOM      7  H61 UNL     1      -0.559   4.147  13.276  1.00  0.00     0.157 HD
ATOM      8  H62 UNL     1      -1.534   4.243  14.592  1.00  0.00     0.157 HD
ENDROOT
BRANCH   3   9
HETATM    9  C5  UNL     1      -3.811   5.049  10.099  1.00  0.00     0.322 C 
BRANCH   9  10
HETATM   10  C6  UNL     1      -4.858   5.050   9.070  1.00  0.00     0.110 C 
HETATM   11  N4  UNL     1      -5.677   6.050   9.013  1.00  0.00    -0.316 N 
ATOM     12  H4  UNL     1      -6.404   6.046   8.297  1.00  0.00     0.185 HD
BRANCH  11  13
HETATM   13  N5  UNL     1      -5.609   7.123   9.879  1.00  0.00    -0.328 N 
HETATM   14  C7  UNL     1      -4.805   8.272   9.540  1.00  0.00     0.142 C 
HETATM   15  C8  UNL     1      -4.825   9.276  10.677  1.00  0.00     0.021 C 
HETATM   16  C9  UNL     1      -6.216   9.609  11.122  1.00  0.00     0.003 C 
HETATM   17  C10 UNL     1      -7.113   8.418  11.189  1.00  0.00     0.021 C 
HETATM   18  C11 UNL     1      -6.326   7.138  11.129  1.00  0.00     0.142 C 
ENDBRANCH  11  13
ENDBRANCH   9  10
ENDBRANCH   3   9
BRANCH   4  19
HETATM   19  C13 UNL     1      -2.245   2.136  11.224  1.00  0.00     0.300 C 
HETATM   20  O1  UNL     1      -1.323   1.636  11.920  1.00  0.00    -0.262 OA
BRANCH  19  21
HETATM   21  O2  UNL     1      -2.895   1.314  10.341  1.00  0.00    -0.320 OA
BRANCH  21  22
HETATM   22  C14 UNL     1      -3.519   0.099  10.719  1.00  0.00     0.174 C 
HETATM   23  C15 UNL     1      -4.658   0.394  11.678  1.00  0.00     0.034 C 
ENDBRANCH  21  22
ENDBRANCH  19  21
ENDBRANCH   4  19
BRANCH   1  24
HETATM   24  C3  UNL     1      -4.420   3.364  14.576  1.00  0.00     0.176 C 
HETATM   25  S1  UNL     1      -5.946   3.909  14.927  1.00  0.00    -0.041 SA
BRANCH  24  26
HETATM   26  N1  UNL     1      -3.705   2.584  15.493  1.00  0.00    -0.367 N 
ATOM     27  H1  UNL     1      -2.702   2.721  15.615  1.00  0.00     0.161 HD
BRANCH  26  28
HETATM   28  C2  UNL     1      -4.412   1.581  16.265  1.00  0.00     0.117 C 
HETATM   29  C1  UNL     1      -4.467   0.258  15.549  1.00  0.00     0.026 C 
ENDBRANCH  26  28
ENDBRANCH  24  26
ENDBRANCH   1  24
TORSDOF 9
ENDMDL
MODEL 3
REMARK VINA RESULT: -6.126096528      0.935      1.658
REMARK  9 active torsions:
REMARK  status: ('A' for Active; 'I' for Inactive)
REMARK    1  A    between atoms: C2_2  and  N1_3 
REMARK    2  A    between atoms: N1_3  and  C3_5 
REMARK    3  A    between atoms: C3_5  and  N2_7 
REMARK    4  A    between atoms: N3_9  and  C5_10 
REMARK    5  A    between atoms: C5_10  and  C6_11 
REMARK    6  A    between atoms: N4_12  and  N5_14 
REMARK    7  A    between atoms: C12_20  and  C13_21 
REMARK    8  A    between atoms: C13_21  and  O2_23 
REMARK    9  A    between atoms: O2_23  and  C14_24 
ROOT
HETATM    1  N2  UNL     1      -3.759   3.910  13.353  1.00  0.00    -0.284 N 
HETATM    2  C4  UNL     1      -4.451   4.486  12.188  1.00  0.00     0.407 C 
HETATM    3  N3  UNL     1      -3.611   4.300  11.050  1.00  0.00     0.132 N 
HETATM    4  C12 UNL     1      -2.343   3.795  11.512  1.00  0.00     0.390 C 
HETATM    5  C16 UNL     1      -2.395   3.898  12.986  1.00  0.00     0.125 C 
HETATM    6  N6  UNL     1      -1.380   3.963  13.750  1.00  0.00    -0.386 N 
ATOM      7  H61 UNL     1      -0.395   3.954  13.484  1.00  0.00     0.157 HD
ATOM      8  H62 UNL     1      -1.415   4.034  14.767  1.00  0.00     0.157 HD
ENDROOT
BRANCH   3   9
HETATM    9  C5  UNL     1      -3.379   5.502  10.293  1.00  0.00     0.322 C 
BRANCH   9  10
HETATM   10  C6  UNL     1      -4.084   6.669  10.836  1.00  0.00     0.110 C 
HETATM   11  N4  UNL     1      -4.933   7.292  10.083  1.00  0.00    -0.316 N 
ATOM     12  H4  UNL     1      -5.420   8.103  10.464  1.00  0.00     0.185 HD
BRANCH  11  13
HETATM   13  N5  UNL     1      -5.209   6.905   8.787  1.00  0.00    -0.328 N 
HETATM   14  C7  UNL     1      -4.388   7.387   7.702  1.00  0.00     0.142 C 
HETATM   15  C8  UNL     1      -4.935   6.893   6.376  1.00  0.00     0.021 C 
HETATM   16  C9  UNL     1      -5.159   5.412   6.365  1.00  0.00     0.003 C 
HETATM   17  C10 UNL     1      -5.756   4.898   7.633  1.00  0.00     0.021 C 
HETATM   18  C11 UNL     1      -6.302   6.019   8.473  1.00  0.00     0.142 C 
ENDBRANCH  11  13
ENDBRANCH   9  10
ENDBRANCH   3   9
BRANCH   4  19
HETATM   19  C13 UNL     1      -2.186   2.341  11.184  1.00  0.00     0.300 C 
HETATM   20  O1  UNL     1      -1.862   2.044  10.005  1.00  0.00    -0.262 OA
BRANCH  19  21
HETATM   21  O2  UNL     1      -2.371   1.316  12.074  1.00  0.00    -0.320 OA
BRANCH  21  22
HETATM   22  C14 UNL     1      -3.268   0.241  11.852  1.00  0.00     0.174 C 
HETATM   23  C15 UNL     1      -4.687   0.775  11.788  1.00  0.00     0.034 C 
ENDBRANCH  21  22
ENDBRANCH  19  21
ENDBRANCH   4  19
BRANCH   1  24
HETATM   24  C3  UNL     1      -4.375   3.483  14.559  1.00  0.00     0.176 C 
HETATM   25  S1  UNL     1      -5.924   4.014  14.816  1.00  0.00    -0.041 SA
BRANCH  24  26
HETATM   26  N1  UNL     1      -3.731   2.661  15.490  1.00  0.00    -0.367 N 
ATOM     27  H1  UNL     1      -2.731   2.760  15.663  1.00  0.00     0.161 HD
BRANCH  26  28
HETATM   28  C2  UNL     1      -4.508   1.667  16.206  1.00  0.00     0.117 C 
HETATM   29  C1  UNL     1      -4.466   0.326  15.525  1.00  0.00     0.026 C 
ENDBRANCH  26  28
ENDBRANCH  24  26
ENDBRANCH   1  24
TORSDOF 9
ENDMDL
MODEL 4
REMARK VINA RESULT: -6.059957614      1.584      2.225
REMARK  9 active torsions:
REMARK  status: ('A' for Active; 'I' for Inactive)
REMARK    1  A    between atoms: C2_2  and  N1_3 
REMARK    2  A    between atoms: N1_3  and  C3_5 
REMARK    3  A    between atoms: C3_5  and  N2_7 
REMARK    4  A    between atoms: N3_9  and  C5_10 
REMARK    5  A    between atoms: C5_10  and  C6_11 
REMARK    6  A    between atoms: N4_12  and  N5_14 
REMARK    7  A    between atoms: C12_20  and  C13_21 
REMARK    8  A    between atoms: C13_21  and  O2_23 
REMARK    9  A    between atoms: O2_23  and  C14_24 
ROOT
HETATM    1  N2  UNL     1      -4.588   3.129  14.448  1.00  0.00    -0.284 N 
HETATM    2  C4  UNL     1      -5.416   3.768  13.411  1.00  0.00     0.407 C 
HETATM    3  N3  UNL     1      -4.536   4.291  12.416  1.00  0.00     0.132 N 
HETATM    4  C12 UNL     1      -3.187   4.157  12.902  1.00  0.00     0.390 C 
HETATM    5  C16 UNL     1      -3.319   3.735  14.313  1.00  0.00     0.125 C 
HETATM    6  N6  UNL     1      -2.436   3.905  15.212  1.00  0.00    -0.386 N 
ATOM      7  H61 UNL     1      -1.519   4.343  15.115  1.00  0.00     0.157 HD
ATOM      8  H62 UNL     1      -2.526   3.614  16.185  1.00  0.00     0.157 HD
ENDROOT
BRANCH   3   9
HETATM    9  C5  UNL     1      -4.774   5.674  12.095  1.00  0.00     0.322 C 
BRANCH   9  10
HETATM   10  C6  UNL     1      -3.688   6.280  11.316  1.00  0.00     0.110 C 
HETATM   11  N4  UNL     1      -3.835   6.413  10.037  1.00  0.00    -0.316 N 
ATOM     12  H4  UNL     1      -3.077   6.834   9.500  1.00  0.00     0.185 HD
BRANCH  11  13
HETATM   13  N5  UNL     1      -4.975   6.011   9.369  1.00  0.00    -0.328 N 
HETATM   14  C7  UNL     1      -6.048   6.949   9.146  1.00  0.00     0.142 C 
HETATM   15  C8  UNL     1      -7.215   6.255   8.471  1.00  0.00     0.021 C 
HETATM   16  C9  UNL     1      -6.801   5.496   7.249  1.00  0.00     0.003 C 
HETATM   17  C10 UNL     1      -5.518   4.753   7.426  1.00  0.00     0.021 C 
HETATM   18  C11 UNL     1      -5.133   4.665   8.877  1.00  0.00     0.142 C 
ENDBRANCH  11  13
ENDBRANCH   9  10
ENDBRANCH   3   9
BRANCH   4  19
HETATM   19  C13 UNL     1      -2.459   3.058  12.188  1.00  0.00     0.300 C 
HETATM   20  O1  UNL     1      -1.254   2.866  12.494  1.00  0.00    -0.262 OA
BRANCH  19  21
HETATM   21  O2  UNL     1      -3.011   2.252  11.228  1.00  0.00    -0.320 OA
BRANCH  21  22
HETATM   22  C14 UNL     1      -3.268   0.871  11.420  1.00  0.00     0.174 C 
HETATM   23  C15 UNL     1      -4.765   0.626  11.375  1.00  0.00     0.034 C 
ENDBRANCH  21  22
ENDBRANCH  19  21
ENDBRANCH   4  19
BRANCH   1  24
HETATM   24  C3  UNL     1      -5.021   2.132  15.360  1.00  0.00     0.176 C 
HETATM   25  S1  UNL     1      -4.388   0.615  15.139  1.00  0.00    -0.041 SA
BRANCH  24  26
HETATM   26  N1  UNL     1      -5.929   2.390  16.393  1.00  0.00    -0.367 N 
ATOM     27  H1  UNL     1      -6.412   3.287  16.444  1.00  0.00     0.161 HD
BRANCH  26  28
HETATM   28  C2  UNL     1      -6.173   1.364  17.388  1.00  0.00     0.117 C 
HETATM   29  C1  UNL     1      -7.630   0.996  17.469  1.00  0.00     0.026 C 
ENDBRANCH  26  28
ENDBRANCH  24  26
ENDBRANCH   1  24
TORSDOF 9
ENDMDL
MODEL 5
REMARK VINA RESULT: -6.041191397      2.653      4.393
REMARK  9 active torsions:
REMARK  status: ('A' for Active; 'I' for Inactive)
REMARK    1  A    between atoms: C2_2  and  N1_3 
REMARK    2  A    between atoms: N1_3  and  C3_5 
REMARK    3  A    between atoms: C3_5  and  N2_7 
REMARK    4  A    between atoms: N3_9  and  C5_10 
REMARK    5  A    between atoms: C5_10  and  C6_11 
REMARK    6  A    between atoms: N4_12  and  N5_14 
REMARK    7  A    between atoms: C12_20  and  C13_21 
REMARK    8  A    between atoms: C13_21  and  O2_23 
REMARK    9  A    between atoms: O2_23  and  C14_24 
ROOT
HETATM    1  N2  UNL     1      -3.108   2.622  12.208  1.00  0.00    -0.284 N 
HETATM    2  C4  UNL     1      -2.785   3.850  12.953  1.00  0.00     0.407 C 
HETATM    3  N3  UNL     1      -3.810   4.046  13.927  1.00  0.00     0.132 N 
HETATM    4  C12 UNL     1      -4.849   3.080  13.680  1.00  0.00     0.390 C 
HETATM    5  C16 UNL     1      -4.499   2.451  12.388  1.00  0.00     0.125 C 
HETATM    6  N6  UNL     1      -5.322   1.874  11.609  1.00  0.00    -0.386 N 
ATOM      7  H61 UNL     1      -6.326   1.751  11.740  1.00  0.00     0.157 HD
ATOM      8  H62 UNL     1      -5.080   1.440  10.718  1.00  0.00     0.157 HD
ENDROOT
BRANCH   3   9
HETATM    9  C5  UNL     1      -4.391   5.363  13.906  1.00  0.00     0.322 C 
BRANCH   9  10
HETATM   10  C6  UNL     1      -3.422   6.415  13.575  1.00  0.00     0.110 C 
HETATM   11  N4  UNL     1      -3.645   7.169  12.548  1.00  0.00    -0.316 N 
ATOM     12  H4  UNL     1      -2.969   7.898  12.321  1.00  0.00     0.185 HD
BRANCH  11  13
HETATM   13  N5  UNL     1      -4.761   7.030  11.745  1.00  0.00    -0.328 N 
HETATM   14  C7  UNL     1      -5.880   7.925  11.908  1.00  0.00     0.142 C 
HETATM   15  C8  UNL     1      -7.008   7.523  10.976  1.00  0.00     0.021 C 
HETATM   16  C9  UNL     1      -6.551   7.363   9.559  1.00  0.00     0.003 C 
HETATM   17  C10 UNL     1      -5.231   6.675   9.441  1.00  0.00     0.021 C 
HETATM   18  C11 UNL     1      -4.846   6.007  10.733  1.00  0.00     0.142 C 
ENDBRANCH  11  13
ENDBRANCH   9  10
ENDBRANCH   3   9
BRANCH   4  19
HETATM   19  C13 UNL     1      -4.835   1.992  14.710  1.00  0.00     0.300 C 
HETATM   20  O1  UNL     1      -4.443   0.853  14.345  1.00  0.00    -0.262 OA
BRANCH  19  21
HETATM   21  O2  UNL     1      -5.219   2.147  16.015  1.00  0.00    -0.320 OA
BRANCH  21  22
HETATM   22  C14 UNL     1      -5.624   1.071  16.844  1.00  0.00     0.174 C 
HETATM   23  C15 UNL     1      -7.066   1.278  17.269  1.00  0.00     0.034 C 
ENDBRANCH  21  22
ENDBRANCH  19  21
ENDBRANCH   4  19
BRANCH   1  24
HETATM   24  C3  UNL     1      -2.186   1.825  11.479  1.00  0.00     0.176 C 
HETATM   25  S1  UNL     1      -1.215   2.631  10.403  1.00  0.00    -0.041 SA
BRANCH  24  26
HETATM   26  N1  UNL     1      -2.084   0.440  11.644  1.00  0.00    -0.367 N 
ATOM     27  H1  UNL     1      -1.430   0.047  12.321  1.00  0.00     0.161 HD
BRANCH  26  28
HETATM   28  C2  UNL     1      -2.920  -0.428  10.839  1.00  0.00     0.117 C 
HETATM   29  C1  UNL     1      -3.200  -1.736  11.528  1.00  0.00     0.026 C 
ENDBRANCH  26  28
ENDBRANCH  24  26
ENDBRANCH   1  24
TORSDOF 9
ENDMDL
