MODEL 1
REMARK VINA RESULT: -8.142033786      0.000      0.000
REMARK  8 active torsions:
REMARK  status: ('A' for Active; 'I' for Inactive)
REMARK    1  A    between atoms: C2_2  and  C3_3 
REMARK    2  A    between atoms: N1_6  and  C6_7 
REMARK       I    between atoms: N2_14  and  C12_15 
REMARK    3  A    between atoms: C12_15  and  C13_17 
REMARK    4  A    between atoms: C13_17  and  C14_19 
REMARK    5  A    between atoms: C14_19  and  C15_20 
REMARK    6  A    between atoms: C14_19  and  C17_23 
REMARK    7  A    between atoms: C17_23  and  O5_24 
REMARK    8  A    between atoms: N3_26  and  O6_28 
ROOT
HETATM    1  C3  UNL     1      -3.564   5.866  13.437  1.00  0.00     0.121 C 
HETATM    2  C4  UNL     1      -3.511   7.364  13.244  1.00  0.00     0.050 C 
HETATM    3  C5  UNL     1      -4.231   7.694  11.940  1.00  0.00     0.130 C 
HETATM    4  N1  UNL     1      -5.629   7.357  12.121  1.00  0.00    -0.329 N 
HETATM    5  C11 UNL     1      -5.953   6.358  13.065  1.00  0.00     0.328 C 
HETATM    6  O1  UNL     1      -7.127   6.223  13.473  1.00  0.00    -0.246 OA
HETATM    7  N2  UNL     1      -4.944   5.463  13.591  1.00  0.00    -0.255 N 
HETATM    8  C12 UNL     1      -5.377   4.260  14.196  1.00  0.00     0.299 C 
HETATM    9  O2  UNL     1      -6.637   4.045  14.276  1.00  0.00    -0.264 OA
ENDROOT
BRANCH   8  10
HETATM   10  C13 UNL     1      -4.528   3.244  14.735  1.00  0.00     0.236 C 
HETATM   11  O3  UNL     1      -3.410   3.527  15.210  1.00  0.00    -0.286 OA
BRANCH  10  12
HETATM   12  C14 UNL     1      -4.921   1.789  14.764  1.00  0.00     0.210 C 
BRANCH  12  13
HETATM   13  C15 UNL     1      -4.698   1.215  16.123  1.00  0.00     0.142 C 
HETATM   14  C16 UNL     1      -5.711   1.343  17.201  1.00  0.00     0.092 C 
HETATM   15  O4  UNL     1      -3.667   0.621  16.385  1.00  0.00    -0.297 OA
ENDBRANCH  12  13
BRANCH  12  16
HETATM   16  C17 UNL     1      -4.198   1.032  13.725  1.00  0.00     0.154 C 
HETATM   17  N3  UNL     1      -3.326   1.617  13.001  1.00  0.00    -0.250 N 
ATOM     18  H3  UNL     1      -3.142   2.608  13.155  1.00  0.00     0.196 HD
BRANCH  16  19
HETATM   19  O5  UNL     1      -4.463  -0.300  13.536  1.00  0.00    -0.347 OA
ATOM     20  H5  UNL     1      -3.803  -0.868  13.155  1.00  0.00     0.219 HD
ENDBRANCH  16  19
BRANCH  17  21
HETATM   21  O6  UNL     1      -2.629   0.955  12.024  1.00  0.00    -0.288 OA
ATOM     22  H6  UNL     1      -1.692   0.813  12.083  1.00  0.00     0.244 HD
ENDBRANCH  17  21
ENDBRANCH  12  16
ENDBRANCH  10  12
ENDBRANCH   8  10
BRANCH   1  23
HETATM   23  C2  UNL     1      -3.000   5.201  12.223  1.00  0.00    -0.011 C 
HETATM   24  C1  UNL     1      -1.756   4.745  12.203  1.00  0.00     0.009 C 
ENDBRANCH   1  23
BRANCH   4  25
HETATM   25  C6  UNL     1      -6.634   8.011  11.367  1.00  0.00     0.089 C 
HETATM   26  C7  UNL     1      -6.914   7.394  10.010  1.00  0.00     0.025 C 
HETATM   27  C8  UNL     1      -7.885   8.402   9.432  1.00  0.00     0.002 C 
HETATM   28  C9  UNL     1      -7.254   9.716   9.799  1.00  0.00     0.002 C 
HETATM   29  C10 UNL     1      -6.250   9.428  10.923  1.00  0.00     0.025 C 
ENDBRANCH   4  25
TORSDOF 8
ENDMDL
MODEL 2
REMARK VINA RESULT: -7.269093593      2.860      3.865
REMARK  8 active torsions:
REMARK  status: ('A' for Active; 'I' for Inactive)
REMARK    1  A    between atoms: C2_2  and  C3_3 
REMARK    2  A    between atoms: N1_6  and  C6_7 
REMARK       I    between atoms: N2_14  and  C12_15 
REMARK    3  A    between atoms: C12_15  and  C13_17 
REMARK    4  A    between atoms: C13_17  and  C14_19 
REMARK    5  A    between atoms: C14_19  and  C15_20 
REMARK    6  A    between atoms: C14_19  and  C17_23 
REMARK    7  A    between atoms: C17_23  and  O5_24 
REMARK    8  A    between atoms: N3_26  and  O6_28 
ROOT
HETATM    1  C3  UNL     1      -5.396   6.816  11.541  1.00  0.00     0.121 C 
HETATM    2  C4  UNL     1      -6.660   7.577  11.869  1.00  0.00     0.050 C 
HETATM    3  C5  UNL     1      -6.845   8.657  10.808  1.00  0.00     0.130 C 
HETATM    4  N1  UNL     1      -7.090   7.987   9.546  1.00  0.00    -0.329 N 
HETATM    5  C11 UNL     1      -6.577   6.682   9.379  1.00  0.00     0.328 C 
HETATM    6  O1  UNL     1      -6.986   5.951   8.452  1.00  0.00    -0.246 OA
HETATM    7  N2  UNL     1      -5.568   6.150  10.270  1.00  0.00    -0.255 N 
HETATM    8  C12 UNL     1      -4.816   5.035   9.829  1.00  0.00     0.299 C 
HETATM    9  O2  UNL     1      -5.093   4.538   8.681  1.00  0.00    -0.264 OA
ENDROOT
BRANCH   8  10
HETATM   10  C13 UNL     1      -3.761   4.400  10.553  1.00  0.00     0.236 C 
HETATM   11  O3  UNL     1      -2.568   4.698  10.341  1.00  0.00    -0.286 OA
BRANCH  10  12
HETATM   12  C14 UNL     1      -4.014   3.347  11.601  1.00  0.00     0.210 C 
BRANCH  12  13
HETATM   13  C15 UNL     1      -2.973   3.411  12.668  1.00  0.00     0.142 C 
HETATM   14  C16 UNL     1      -3.075   4.365  13.801  1.00  0.00     0.092 C 
HETATM   15  O4  UNL     1      -2.004   2.676  12.635  1.00  0.00    -0.297 OA
ENDBRANCH  12  13
BRANCH  12  16
HETATM   16  C17 UNL     1      -4.087   2.007  10.988  1.00  0.00     0.154 C 
HETATM   17  N3  UNL     1      -5.185   1.358  11.005  1.00  0.00    -0.250 N 
ATOM     18  H3  UNL     1      -6.001   1.780  11.446  1.00  0.00     0.196 HD
BRANCH  16  19
HETATM   19  O5  UNL     1      -2.975   1.459  10.401  1.00  0.00    -0.347 OA
ATOM     20  H5  UNL     1      -2.565   0.691  10.783  1.00  0.00     0.219 HD
ENDBRANCH  16  19
BRANCH  17  21
HETATM   21  O6  UNL     1      -5.301   0.111  10.449  1.00  0.00    -0.288 OA
ATOM     22  H6  UNL     1      -5.989  -0.103   9.831  1.00  0.00     0.244 HD
ENDBRANCH  17  21
ENDBRANCH  12  16
ENDBRANCH  10  12
ENDBRANCH   8  10
BRANCH   1  23
HETATM   23  C2  UNL     1      -4.264   7.785  11.429  1.00  0.00    -0.011 C 
HETATM   24  C1  UNL     1      -3.318   7.851  12.355  1.00  0.00     0.009 C 
ENDBRANCH   1  23
BRANCH   4  25
HETATM   25  C6  UNL     1      -7.818   8.630   8.516  1.00  0.00     0.089 C 
HETATM   26  C7  UNL     1      -7.685  10.141   8.489  1.00  0.00     0.025 C 
HETATM   27  C8  UNL     1      -8.685  10.497   7.408  1.00  0.00     0.002 C 
HETATM   28  C9  UNL     1      -9.860   9.623   7.744  1.00  0.00     0.002 C 
HETATM   29  C10 UNL     1      -9.340   8.515   8.670  1.00  0.00     0.025 C 
ENDBRANCH   4  25
TORSDOF 8
ENDMDL
MODEL 3
REMARK VINA RESULT: -7.231509271      3.314      5.044
REMARK  8 active torsions:
REMARK  status: ('A' for Active; 'I' for Inactive)
REMARK    1  A    between atoms: C2_2  and  C3_3 
REMARK    2  A    between atoms: N1_6  and  C6_7 
REMARK       I    between atoms: N2_14  and  C12_15 
REMARK    3  A    between atoms: C12_15  and  C13_17 
REMARK    4  A    between atoms: C13_17  and  C14_19 
REMARK    5  A    between atoms: C14_19  and  C15_20 
REMARK    6  A    between atoms: C14_19  and  C17_23 
REMARK    7  A    between atoms: C17_23  and  O5_24 
REMARK    8  A    between atoms: N3_26  and  O6_28 
ROOT
HETATM    1  C3  UNL     1      -1.932   2.703  11.802  1.00  0.00     0.121 C 
HETATM    2  C4  UNL     1      -0.502   3.180  11.681  1.00  0.00     0.050 C 
HETATM    3  C5  UNL     1      -0.230   3.478  10.210  1.00  0.00     0.130 C 
HETATM    4  N1  UNL     1      -1.066   4.601   9.834  1.00  0.00    -0.329 N 
HETATM    5  C11 UNL     1      -2.262   4.808  10.557  1.00  0.00     0.328 C 
HETATM    6  O1  UNL     1      -2.872   5.896  10.482  1.00  0.00    -0.246 OA
HETATM    7  N2  UNL     1      -2.817   3.774  11.406  1.00  0.00    -0.255 N 
HETATM    8  C12 UNL     1      -4.181   3.878  11.769  1.00  0.00     0.299 C 
HETATM    9  O2  UNL     1      -4.838   4.896  11.357  1.00  0.00    -0.264 OA
ENDROOT
BRANCH   8  10
HETATM   10  C13 UNL     1      -4.906   2.939  12.566  1.00  0.00     0.236 C 
HETATM   11  O3  UNL     1      -5.564   2.022  12.037  1.00  0.00    -0.286 OA
BRANCH  10  12
HETATM   12  C14 UNL     1      -4.923   2.996  14.072  1.00  0.00     0.210 C 
BRANCH  12  13
HETATM   13  C15 UNL     1      -4.075   4.121  14.562  1.00  0.00     0.142 C 
HETATM   14  C16 UNL     1      -4.626   5.485  14.760  1.00  0.00     0.092 C 
HETATM   15  O4  UNL     1      -2.897   3.947  14.814  1.00  0.00    -0.297 OA
ENDBRANCH  12  13
BRANCH  12  16
HETATM   16  C17 UNL     1      -4.504   1.704  14.648  1.00  0.00     0.154 C 
HETATM   17  N3  UNL     1      -4.106   1.646  15.859  1.00  0.00    -0.250 N 
ATOM     18  H3  UNL     1      -4.084   2.502  16.413  1.00  0.00     0.196 HD
BRANCH  16  19
HETATM   19  O5  UNL     1      -4.541   0.566  13.884  1.00  0.00    -0.347 OA
ATOM     20  H5  UNL     1      -4.623  -0.284  14.300  1.00  0.00     0.219 HD
ENDBRANCH  16  19
BRANCH  17  21
HETATM   21  O6  UNL     1      -3.707   0.470  16.437  1.00  0.00    -0.288 OA
ATOM     22  H6  UNL     1      -4.097  -0.364  16.204  1.00  0.00     0.244 HD
ENDBRANCH  17  21
ENDBRANCH  12  16
ENDBRANCH  10  12
ENDBRANCH   8  10
BRANCH   1  23
HETATM   23  C2  UNL     1      -2.134   1.544  10.879  1.00  0.00    -0.011 C 
HETATM   24  C1  UNL     1      -2.238   0.306  11.341  1.00  0.00     0.009 C 
ENDBRANCH   1  23
BRANCH   4  25
HETATM   25  C6  UNL     1      -0.692   5.457   8.770  1.00  0.00     0.089 C 
HETATM   26  C7  UNL     1      -1.058   4.951   7.388  1.00  0.00     0.025 C 
HETATM   27  C8  UNL     1      -0.390   5.994   6.515  1.00  0.00     0.002 C 
HETATM   28  C9  UNL     1       0.951   6.165   7.173  1.00  0.00     0.002 C 
HETATM   29  C10 UNL     1       0.825   5.595   8.593  1.00  0.00     0.025 C 
ENDBRANCH   4  25
TORSDOF 8
ENDMDL
MODEL 4
REMARK VINA RESULT: -7.222056637      3.175      4.351
REMARK  8 active torsions:
REMARK  status: ('A' for Active; 'I' for Inactive)
REMARK    1  A    between atoms: C2_2  and  C3_3 
REMARK    2  A    between atoms: N1_6  and  C6_7 
REMARK       I    between atoms: N2_14  and  C12_15 
REMARK    3  A    between atoms: C12_15  and  C13_17 
REMARK    4  A    between atoms: C13_17  and  C14_19 
REMARK    5  A    between atoms: C14_19  and  C15_20 
REMARK    6  A    between atoms: C14_19  and  C17_23 
REMARK    7  A    between atoms: C17_23  and  O5_24 
REMARK    8  A    between atoms: N3_26  and  O6_28 
ROOT
HETATM    1  C3  UNL     1      -2.047   4.564  12.172  1.00  0.00     0.121 C 
HETATM    2  C4  UNL     1      -0.823   5.355  12.576  1.00  0.00     0.050 C 
HETATM    3  C5  UNL     1      -1.185   6.836  12.527  1.00  0.00     0.130 C 
HETATM    4  N1  UNL     1      -2.178   7.073  13.556  1.00  0.00    -0.329 N 
HETATM    5  C11 UNL     1      -2.995   5.990  13.949  1.00  0.00     0.328 C 
HETATM    6  O1  UNL     1      -3.659   6.044  15.006  1.00  0.00    -0.246 OA
HETATM    7  N2  UNL     1      -3.090   4.788  13.148  1.00  0.00    -0.255 N 
HETATM    8  C12 UNL     1      -4.197   3.934  13.363  1.00  0.00     0.299 C 
HETATM    9  O2  UNL     1      -5.035   4.253  14.278  1.00  0.00    -0.264 OA
ENDROOT
BRANCH   8  10
HETATM   10  C13 UNL     1      -4.475   2.729  12.646  1.00  0.00     0.236 C 
HETATM   11  O3  UNL     1      -5.488   2.629  11.927  1.00  0.00    -0.286 OA
BRANCH  10  12
HETATM   12  C14 UNL     1      -3.576   1.521  12.712  1.00  0.00     0.210 C 
BRANCH  12  13
HETATM   13  C15 UNL     1      -3.205   1.072  11.338  1.00  0.00     0.142 C 
HETATM   14  C16 UNL     1      -1.792   1.045  10.882  1.00  0.00     0.092 C 
HETATM   15  O4  UNL     1      -4.059   0.713  10.549  1.00  0.00    -0.297 OA
ENDBRANCH  12  13
BRANCH  12  16
HETATM   16  C17 UNL     1      -4.211   0.439  13.487  1.00  0.00     0.154 C 
HETATM   17  N3  UNL     1      -4.341   0.552  14.751  1.00  0.00    -0.250 N 
ATOM     18  H3  UNL     1      -4.000   1.397  15.208  1.00  0.00     0.196 HD
BRANCH  16  19
HETATM   19  O5  UNL     1      -4.662  -0.690  12.850  1.00  0.00    -0.347 OA
ATOM     20  H5  UNL     1      -5.584  -0.917  12.880  1.00  0.00     0.219 HD
ENDBRANCH  16  19
BRANCH  17  21
HETATM   21  O6  UNL     1      -4.925  -0.426  15.513  1.00  0.00    -0.288 OA
ATOM     22  H6  UNL     1      -4.880  -0.420  16.461  1.00  0.00     0.244 HD
ENDBRANCH  17  21
ENDBRANCH  12  16
ENDBRANCH  10  12
ENDBRANCH   8  10
BRANCH   1  23
HETATM   23  C2  UNL     1      -2.520   5.051  10.841  1.00  0.00    -0.011 C 
HETATM   24  C1  UNL     1      -2.221   4.403   9.724  1.00  0.00     0.009 C 
ENDBRANCH   1  23
BRANCH   4  25
HETATM   25  C6  UNL     1      -2.323   8.354  14.140  1.00  0.00     0.089 C 
HETATM   26  C7  UNL     1      -1.801   9.502  13.296  1.00  0.00     0.025 C 
HETATM   27  C8  UNL     1      -1.960  10.660  14.258  1.00  0.00     0.002 C 
HETATM   28  C9  UNL     1      -1.453  10.087  15.552  1.00  0.00     0.002 C 
HETATM   29  C10 UNL     1      -1.468   8.560  15.397  1.00  0.00     0.025 C 
ENDBRANCH   4  25
TORSDOF 8
ENDMDL
MODEL 5
REMARK VINA RESULT: -7.191723197      1.249      2.212
REMARK  8 active torsions:
REMARK  status: ('A' for Active; 'I' for Inactive)
REMARK    1  A    between atoms: C2_2  and  C3_3 
REMARK    2  A    between atoms: N1_6  and  C6_7 
REMARK       I    between atoms: N2_14  and  C12_15 
REMARK    3  A    between atoms: C12_15  and  C13_17 
REMARK    4  A    between atoms: C13_17  and  C14_19 
REMARK    5  A    between atoms: C14_19  and  C15_20 
REMARK    6  A    between atoms: C14_19  and  C17_23 
REMARK    7  A    between atoms: C17_23  and  O5_24 
REMARK    8  A    between atoms: N3_26  and  O6_28 
ROOT
HETATM    1  C3  UNL     1      -3.297   5.956  13.297  1.00  0.00     0.121 C 
HETATM    2  C4  UNL     1      -3.356   7.466  13.308  1.00  0.00     0.050 C 
HETATM    3  C5  UNL     1      -4.083   7.915  12.044  1.00  0.00     0.130 C 
HETATM    4  N1  UNL     1      -5.454   7.455  12.148  1.00  0.00    -0.329 N 
HETATM    5  C11 UNL     1      -5.712   6.316  12.942  1.00  0.00     0.328 C 
HETATM    6  O1  UNL     1      -6.876   6.040  13.301  1.00  0.00    -0.246 OA
HETATM    7  N2  UNL     1      -4.643   5.435  13.365  1.00  0.00    -0.255 N 
HETATM    8  C12 UNL     1      -4.990   4.132  13.794  1.00  0.00     0.299 C 
HETATM    9  O2  UNL     1      -6.230   3.816  13.816  1.00  0.00    -0.264 OA
ENDROOT
BRANCH   8  10
HETATM   10  C13 UNL     1      -4.072   3.119  14.210  1.00  0.00     0.236 C 
HETATM   11  O3  UNL     1      -3.455   3.216  15.289  1.00  0.00    -0.286 OA
BRANCH  10  12
HETATM   12  C14 UNL     1      -3.795   1.887  13.387  1.00  0.00     0.210 C 
BRANCH  12  13
HETATM   13  C15 UNL     1      -4.344   2.046  12.009  1.00  0.00     0.142 C 
HETATM   14  C16 UNL     1      -3.501   2.520  10.883  1.00  0.00     0.092 C 
HETATM   15  O4  UNL     1      -5.510   1.789  11.771  1.00  0.00    -0.297 OA
ENDBRANCH  12  13
BRANCH  12  16
HETATM   16  C17 UNL     1      -4.328   0.683  14.052  1.00  0.00     0.154 C 
HETATM   17  N3  UNL     1      -4.519   0.684  15.313  1.00  0.00    -0.250 N 
ATOM     18  H3  UNL     1      -4.297   1.525  15.845  1.00  0.00     0.196 HD
BRANCH  16  19
HETATM   19  O5  UNL     1      -4.618  -0.437  13.316  1.00  0.00    -0.347 OA
ATOM     20  H5  UNL     1      -4.024  -1.179  13.323  1.00  0.00     0.219 HD
ENDBRANCH  16  19
BRANCH  17  21
HETATM   21  O6  UNL     1      -5.012  -0.410  15.975  1.00  0.00    -0.288 OA
ATOM     22  H6  UNL     1      -5.768  -0.354  16.547  1.00  0.00     0.244 HD
ENDBRANCH  17  21
ENDBRANCH  12  16
ENDBRANCH  10  12
ENDBRANCH   8  10
BRANCH   1  23
HETATM   23  C2  UNL     1      -2.669   5.506  12.018  1.00  0.00    -0.011 C 
HETATM   24  C1  UNL     1      -1.362   5.303  11.925  1.00  0.00     0.009 C 
ENDBRANCH   1  23
BRANCH   4  25
HETATM   25  C6  UNL     1      -6.497   8.128  11.466  1.00  0.00     0.089 C 
HETATM   26  C7  UNL     1      -6.882   7.518  10.131  1.00  0.00     0.025 C 
HETATM   27  C8  UNL     1      -7.873   8.546   9.623  1.00  0.00     0.002 C 
HETATM   28  C9  UNL     1      -7.194   9.847   9.946  1.00  0.00     0.002 C 
HETATM   29  C10 UNL     1      -6.119   9.538  10.997  1.00  0.00     0.025 C 
ENDBRANCH   4  25
TORSDOF 8
ENDMDL
