MODEL 1
REMARK VINA RESULT: -6.869536889      0.000      0.000
REMARK  6 active torsions:
REMARK  status: ('A' for Active; 'I' for Inactive)
REMARK    1  A    between atoms: N1_2  and  C2_3 
REMARK    2  A    between atoms: N1_2  and  C12_21 
REMARK    3  A    between atoms: C2_3  and  C3_4 
REMARK    4  A    between atoms: C3_4  and  C4_5 
REMARK    5  A    between atoms: C4_5  and  N2_6 
REMARK       I    between atoms: N2_6  and  C5_8 
REMARK    6  A    between atoms: C5_8  and  C6_10 
ROOT
HETATM    1  N2  UNL     1      -2.672   1.991  12.201  1.00  0.00    -0.358 N 
ATOM      2  H2  UNL     1      -2.282   2.648  12.877  1.00  0.00     0.162 HD
HETATM    3  C5  UNL     1      -2.039   1.824  10.938  1.00  0.00     0.257 C 
HETATM    4  O1  UNL     1      -2.538   1.005  10.126  1.00  0.00    -0.270 OA
ENDROOT
BRANCH   1   5
HETATM    5  C4  UNL     1      -3.860   1.243  12.537  1.00  0.00     0.124 C 
BRANCH   5   6
HETATM    6  C3  UNL     1      -4.913   2.149  13.134  1.00  0.00     0.050 C 
BRANCH   6   7
HETATM    7  C2  UNL     1      -4.321   2.945  14.281  1.00  0.00     0.274 C 
BRANCH   7   8
HETATM    8  N1  UNL     1      -5.311   3.341  15.228  1.00  0.00     0.089 N 
HETATM    9  C1  UNL     1      -6.237   4.329  14.797  1.00  0.00     0.310 C 
BRANCH   8  10
HETATM   10  C12 UNL     1      -5.915   2.222  15.907  1.00  0.00     0.226 C 
HETATM   11  C13 UNL     1      -7.005   2.619  16.851  1.00  0.00     0.062 C 
HETATM   12  C14 UNL     1      -7.771   1.369  17.226  1.00  0.00     0.169 C 
HETATM   13  O2  UNL     1      -7.026   0.220  17.030  1.00  0.00    -0.391 OA
HETATM   14  C15 UNL     1      -5.708   0.358  17.465  1.00  0.00     0.169 C 
HETATM   15  C16 UNL     1      -4.939   1.358  16.621  1.00  0.00     0.062 C 
ENDBRANCH   8  10
ENDBRANCH   7   8
ENDBRANCH   6   7
ENDBRANCH   5   6
ENDBRANCH   1   5
BRANCH   3  16
HETATM   16  C6  UNL     1      -0.820   2.615  10.629  1.00  0.00     0.278 C 
HETATM   17  N3  UNL     1      -1.013   3.287   9.372  1.00  0.00    -0.368 N 
HETATM   18  C7  UNL     1      -0.059   3.948   8.805  1.00  0.00     0.008 C 
ATOM     19  H3  UNL     1      -1.926   3.240   8.918  1.00  0.00     0.161 HD
HETATM   20  C8  UNL     1      -0.244   4.649   7.504  1.00  0.00     0.127 C 
HETATM   21  C11 UNL     1       1.245   3.960   9.545  1.00  0.00     0.111 C 
HETATM   22  S1  UNL     1       1.222   4.438   6.458  1.00  0.00    -0.163 SA
HETATM   23  C9  UNL     1       2.646   4.292   7.578  1.00  0.00     0.076 C 
HETATM   24  C10 UNL     1       2.226   4.909   8.897  1.00  0.00     0.032 C 
HETATM   25  S2  UNL     1       0.869   4.469  11.248  1.00  0.00    -0.052 SA
HETATM   26  N4  UNL     1      -0.585   3.545  11.724  1.00  0.00    -0.143 NA
ENDBRANCH   3  16
TORSDOF 6
ENDMDL
MODEL 2
REMARK VINA RESULT: -6.778168631      0.948      1.051
REMARK  6 active torsions:
REMARK  status: ('A' for Active; 'I' for Inactive)
REMARK    1  A    between atoms: N1_2  and  C2_3 
REMARK    2  A    between atoms: N1_2  and  C12_21 
REMARK    3  A    between atoms: C2_3  and  C3_4 
REMARK    4  A    between atoms: C3_4  and  C4_5 
REMARK    5  A    between atoms: C4_5  and  N2_6 
REMARK       I    between atoms: N2_6  and  C5_8 
REMARK    6  A    between atoms: C5_8  and  C6_10 
ROOT
HETATM    1  N2  UNL     1      -2.455   2.288  12.232  1.00  0.00    -0.358 N 
ATOM      2  H2  UNL     1      -2.187   2.804  13.070  1.00  0.00     0.162 HD
HETATM    3  C5  UNL     1      -1.674   2.413  11.050  1.00  0.00     0.257 C 
HETATM    4  O1  UNL     1      -2.024   1.761  10.033  1.00  0.00    -0.270 OA
ENDROOT
BRANCH   1   5
HETATM    5  C4  UNL     1      -3.622   1.439  12.261  1.00  0.00     0.124 C 
BRANCH   5   6
HETATM    6  C3  UNL     1      -4.754   2.108  13.008  1.00  0.00     0.050 C 
BRANCH   6   7
HETATM    7  C2  UNL     1      -4.214   2.823  14.232  1.00  0.00     0.274 C 
BRANCH   7   8
HETATM    8  N1  UNL     1      -5.257   3.264  15.099  1.00  0.00     0.089 N 
HETATM    9  C1  UNL     1      -6.179   4.198  14.553  1.00  0.00     0.310 C 
BRANCH   8  10
HETATM   10  C12 UNL     1      -5.874   2.183  15.827  1.00  0.00     0.226 C 
HETATM   11  C13 UNL     1      -6.955   2.635  16.756  1.00  0.00     0.062 C 
HETATM   12  C14 UNL     1      -7.737   1.413  17.188  1.00  0.00     0.169 C 
HETATM   13  O2  UNL     1      -7.007   0.247  17.040  1.00  0.00    -0.391 OA
HETATM   14  C15 UNL     1      -5.686   0.386  17.464  1.00  0.00     0.169 C 
HETATM   15  C16 UNL     1      -4.907   1.338  16.576  1.00  0.00     0.062 C 
ENDBRANCH   8  10
ENDBRANCH   7   8
ENDBRANCH   6   7
ENDBRANCH   5   6
ENDBRANCH   1   5
BRANCH   3  16
HETATM   16  C6  UNL     1      -0.482   3.300  11.059  1.00  0.00     0.278 C 
HETATM   17  N3  UNL     1      -0.085   3.552   9.701  1.00  0.00    -0.368 N 
HETATM   18  C7  UNL     1       1.000   4.196   9.422  1.00  0.00     0.008 C 
ATOM     19  H3  UNL     1      -0.673   3.214   8.939  1.00  0.00     0.161 HD
HETATM   20  C8  UNL     1       1.425   4.466   8.021  1.00  0.00     0.127 C 
HETATM   21  C11 UNL     1       1.801   4.652  10.605  1.00  0.00     0.111 C 
HETATM   22  S1  UNL     1       3.217   4.250   7.850  1.00  0.00    -0.163 SA
HETATM   23  C9  UNL     1       3.950   4.684   9.456  1.00  0.00     0.076 C 
HETATM   24  C10 UNL     1       2.936   5.552  10.176  1.00  0.00     0.032 C 
HETATM   25  S2  UNL     1       0.649   5.531  11.701  1.00  0.00    -0.052 SA
HETATM   26  N4  UNL     1      -0.823   4.521  11.773  1.00  0.00    -0.143 NA
ENDBRANCH   3  16
TORSDOF 6
ENDMDL
MODEL 3
REMARK VINA RESULT: -6.640704913      4.322      5.271
REMARK  6 active torsions:
REMARK  status: ('A' for Active; 'I' for Inactive)
REMARK    1  A    between atoms: N1_2  and  C2_3 
REMARK    2  A    between atoms: N1_2  and  C12_21 
REMARK    3  A    between atoms: C2_3  and  C3_4 
REMARK    4  A    between atoms: C3_4  and  C4_5 
REMARK    5  A    between atoms: C4_5  and  N2_6 
REMARK       I    between atoms: N2_6  and  C5_8 
REMARK    6  A    between atoms: C5_8  and  C6_10 
ROOT
HETATM    1  N2  UNL     1      -3.482   4.561  11.938  1.00  0.00    -0.358 N 
ATOM      2  H2  UNL     1      -3.823   5.480  12.219  1.00  0.00     0.162 HD
HETATM    3  C5  UNL     1      -3.945   3.980  10.725  1.00  0.00     0.257 C 
HETATM    4  O1  UNL     1      -3.504   2.847  10.401  1.00  0.00    -0.270 OA
ENDROOT
BRANCH   1   5
HETATM    5  C4  UNL     1      -2.535   3.865  12.777  1.00  0.00     0.124 C 
BRANCH   5   6
HETATM    6  C3  UNL     1      -3.060   3.742  14.190  1.00  0.00     0.050 C 
BRANCH   6   7
HETATM    7  C2  UNL     1      -4.254   2.807  14.218  1.00  0.00     0.274 C 
BRANCH   7   8
HETATM    8  N1  UNL     1      -5.266   3.256  15.117  1.00  0.00     0.089 N 
HETATM    9  C1  UNL     1      -6.187   4.210  14.604  1.00  0.00     0.310 C 
BRANCH   8  10
HETATM   10  C12 UNL     1      -5.881   2.178  15.851  1.00  0.00     0.226 C 
HETATM   11  C13 UNL     1      -6.999   2.627  16.737  1.00  0.00     0.062 C 
HETATM   12  C14 UNL     1      -7.766   1.398  17.174  1.00  0.00     0.169 C 
HETATM   13  O2  UNL     1      -7.008   0.245  17.074  1.00  0.00    -0.391 OA
HETATM   14  C15 UNL     1      -5.703   0.423  17.533  1.00  0.00     0.169 C 
HETATM   15  C16 UNL     1      -4.919   1.372  16.647  1.00  0.00     0.062 C 
ENDBRANCH   8  10
ENDBRANCH   7   8
ENDBRANCH   6   7
ENDBRANCH   5   6
ENDBRANCH   1   5
BRANCH   3  16
HETATM   16  C6  UNL     1      -4.922   4.726   9.891  1.00  0.00     0.278 C 
HETATM   17  N3  UNL     1      -4.753   6.134  10.132  1.00  0.00    -0.368 N 
HETATM   18  C7  UNL     1      -5.560   7.007   9.626  1.00  0.00     0.008 C 
ATOM     19  H3  UNL     1      -3.979   6.450  10.716  1.00  0.00     0.161 HD
HETATM   20  C8  UNL     1      -5.399   8.468   9.866  1.00  0.00     0.127 C 
HETATM   21  C11 UNL     1      -6.668   6.450   8.783  1.00  0.00     0.111 C 
HETATM   22  S1  UNL     1      -7.014   9.249  10.127  1.00  0.00    -0.163 SA
HETATM   23  C9  UNL     1      -8.219   8.293   9.157  1.00  0.00     0.076 C 
HETATM   24  C10 UNL     1      -7.430   7.556   8.092  1.00  0.00     0.032 C 
HETATM   25  S2  UNL     1      -5.890   5.338   7.576  1.00  0.00    -0.052 SA
HETATM   26  N4  UNL     1      -4.701   4.372   8.497  1.00  0.00    -0.143 NA
ENDBRANCH   3  16
TORSDOF 6
ENDMDL
MODEL 4
REMARK VINA RESULT: -6.631108373      3.318      4.028
REMARK  6 active torsions:
REMARK  status: ('A' for Active; 'I' for Inactive)
REMARK    1  A    between atoms: N1_2  and  C2_3 
REMARK    2  A    between atoms: N1_2  and  C12_21 
REMARK    3  A    between atoms: C2_3  and  C3_4 
REMARK    4  A    between atoms: C3_4  and  C4_5 
REMARK    5  A    between atoms: C4_5  and  N2_6 
REMARK       I    between atoms: N2_6  and  C5_8 
REMARK    6  A    between atoms: C5_8  and  C6_10 
ROOT
HETATM    1  N2  UNL     1      -2.421   4.775  12.525  1.00  0.00    -0.358 N 
ATOM      2  H2  UNL     1      -2.728   5.727  12.329  1.00  0.00     0.162 HD
HETATM    3  C5  UNL     1      -2.371   3.821  11.471  1.00  0.00     0.257 C 
HETATM    4  O1  UNL     1      -1.985   2.655  11.741  1.00  0.00    -0.270 OA
ENDROOT
BRANCH   1   5
HETATM    5  C4  UNL     1      -2.041   4.411  13.870  1.00  0.00     0.124 C 
BRANCH   5   6
HETATM    6  C3  UNL     1      -3.224   4.512  14.807  1.00  0.00     0.050 C 
BRANCH   6   7
HETATM    7  C2  UNL     1      -4.088   3.272  14.684  1.00  0.00     0.274 C 
BRANCH   7   8
HETATM    8  N1  UNL     1      -5.400   3.479  15.203  1.00  0.00     0.089 N 
HETATM    9  C1  UNL     1      -6.325   4.130  14.342  1.00  0.00     0.310 C 
BRANCH   8  10
HETATM   10  C12 UNL     1      -5.931   2.313  15.864  1.00  0.00     0.226 C 
HETATM   11  C13 UNL     1      -6.966   2.634  16.894  1.00  0.00     0.062 C 
HETATM   12  C14 UNL     1      -7.674   1.347  17.257  1.00  0.00     0.169 C 
HETATM   13  O2  UNL     1      -6.914   0.230  16.958  1.00  0.00    -0.391 OA
HETATM   14  C15 UNL     1      -5.574   0.385  17.314  1.00  0.00     0.169 C 
HETATM   15  C16 UNL     1      -4.888   1.444  16.472  1.00  0.00     0.062 C 
ENDBRANCH   8  10
ENDBRANCH   7   8
ENDBRANCH   6   7
ENDBRANCH   5   6
ENDBRANCH   1   5
BRANCH   3  16
HETATM   16  C6  UNL     1      -2.774   4.234  10.102  1.00  0.00     0.278 C 
HETATM   17  N3  UNL     1      -3.950   5.056  10.195  1.00  0.00    -0.368 N 
HETATM   18  C7  UNL     1      -4.584   5.450   9.140  1.00  0.00     0.008 C 
ATOM     19  H3  UNL     1      -4.292   5.333  11.115  1.00  0.00     0.161 HD
HETATM   20  C8  UNL     1      -5.803   6.302   9.221  1.00  0.00     0.127 C 
HETATM   21  C11 UNL     1      -4.010   4.992   7.834  1.00  0.00     0.111 C 
HETATM   22  S1  UNL     1      -7.032   5.764   8.001  1.00  0.00    -0.163 SA
HETATM   23  C9  UNL     1      -6.106   5.081   6.593  1.00  0.00     0.076 C 
HETATM   24  C10 UNL     1      -4.707   5.661   6.672  1.00  0.00     0.032 C 
HETATM   25  S2  UNL     1      -2.244   5.416   7.868  1.00  0.00    -0.052 SA
HETATM   26  N4  UNL     1      -1.657   4.933   9.485  1.00  0.00    -0.143 NA
ENDBRANCH   3  16
TORSDOF 6
ENDMDL
MODEL 5
REMARK VINA RESULT: -6.625563571      3.688      7.736
REMARK  6 active torsions:
REMARK  status: ('A' for Active; 'I' for Inactive)
REMARK    1  A    between atoms: N1_2  and  C2_3 
REMARK    2  A    between atoms: N1_2  and  C12_21 
REMARK    3  A    between atoms: C2_3  and  C3_4 
REMARK    4  A    between atoms: C3_4  and  C4_5 
REMARK    5  A    between atoms: C4_5  and  N2_6 
REMARK       I    between atoms: N2_6  and  C5_8 
REMARK    6  A    between atoms: C5_8  and  C6_10 
ROOT
HETATM    1  N2  UNL     1      -2.631   1.766  12.130  1.00  0.00    -0.358 N 
ATOM      2  H2  UNL     1      -2.262   1.859  13.076  1.00  0.00     0.162 HD
HETATM    3  C5  UNL     1      -4.000   2.057  11.876  1.00  0.00     0.257 C 
HETATM    4  O1  UNL     1      -4.426   1.937  10.699  1.00  0.00    -0.270 OA
ENDROOT
BRANCH   1   5
HETATM    5  C4  UNL     1      -1.756   1.339  11.063  1.00  0.00     0.124 C 
BRANCH   5   6
HETATM    6  C3  UNL     1      -1.063   2.526  10.432  1.00  0.00     0.050 C 
BRANCH   6   7
HETATM    7  C2  UNL     1      -0.870   3.621  11.463  1.00  0.00     0.274 C 
BRANCH   7   8
HETATM    8  N1  UNL     1      -1.388   4.874  11.019  1.00  0.00     0.089 N 
HETATM    9  C1  UNL     1      -2.120   4.858   9.800  1.00  0.00     0.310 C 
BRANCH   8  10
HETATM   10  C12 UNL     1      -2.018   5.625  12.076  1.00  0.00     0.226 C 
HETATM   11  C13 UNL     1      -1.860   7.104  11.928  1.00  0.00     0.062 C 
HETATM   12  C14 UNL     1      -2.832   7.772  12.877  1.00  0.00     0.169 C 
HETATM   13  O2  UNL     1      -3.213   6.934  13.909  1.00  0.00    -0.391 OA
HETATM   14  C15 UNL     1      -2.141   6.215  14.438  1.00  0.00     0.169 C 
HETATM   15  C16 UNL     1      -1.583   5.220  13.439  1.00  0.00     0.062 C 
ENDBRANCH   8  10
ENDBRANCH   7   8
ENDBRANCH   6   7
ENDBRANCH   5   6
ENDBRANCH   1   5
BRANCH   3  16
HETATM   16  C6  UNL     1      -4.869   2.489  13.002  1.00  0.00     0.278 C 
HETATM   17  N3  UNL     1      -4.379   1.895  14.216  1.00  0.00    -0.368 N 
HETATM   18  C7  UNL     1      -5.023   2.008  15.331  1.00  0.00     0.008 C 
ATOM     19  H3  UNL     1      -3.502   1.374  14.198  1.00  0.00     0.161 HD
HETATM   20  C8  UNL     1      -4.529   1.399  16.597  1.00  0.00     0.127 C 
HETATM   21  C11 UNL     1      -6.300   2.790  15.261  1.00  0.00     0.111 C 
HETATM   22  S1  UNL     1      -5.906   0.684  17.535  1.00  0.00    -0.163 SA
HETATM   23  C9  UNL     1      -7.375   1.683  17.149  1.00  0.00     0.076 C 
HETATM   24  C10 UNL     1      -6.869   3.020  16.642  1.00  0.00     0.032 C 
HETATM   25  S2  UNL     1      -5.899   4.364  14.448  1.00  0.00    -0.052 SA
HETATM   26  N4  UNL     1      -4.864   3.943  13.054  1.00  0.00    -0.143 NA
ENDBRANCH   3  16
TORSDOF 6
ENDMDL
