MODEL 1
REMARK VINA RESULT: -6.881679537      0.000      0.000
REMARK  7 active torsions:
REMARK  status: ('A' for Active; 'I' for Inactive)
REMARK    1  A    between atoms: C8_9  and  O2_10 
REMARK    2  A    between atoms: C11_13  and  O3_14 
REMARK    3  A    between atoms: O3_14  and  C12_15 
REMARK    4  A    between atoms: C12_15  and  C13_17 
REMARK    5  A    between atoms: C13_17  and  N1_18 
REMARK    6  A    between atoms: C17_22  and  C18_23 
REMARK    7  A    between atoms: C19_27  and  C20_28 
ROOT
HETATM    1  C12 UNL     1      -4.482   4.263  11.409  1.00  0.00     0.300 C 
HETATM    2  O4  UNL     1      -4.454   3.864  10.204  1.00  0.00    -0.262 OA
ENDROOT
BRANCH   1   3
HETATM    3  O3  UNL     1      -5.424   5.229  11.714  1.00  0.00    -0.309 OA
BRANCH   3   4
HETATM    4  C11 UNL     1      -5.104   6.312  12.569  1.00  0.00     0.167 C 
HETATM    5  C2  UNL     1      -6.150   6.277  13.657  1.00  0.00    -0.059 C 
HETATM    6  C1  UNL     1      -6.003   5.850  14.907  1.00  0.00     0.017 C 
HETATM    7  C3  UNL     1      -7.371   6.827  13.008  1.00  0.00     0.041 C 
HETATM    8  C4  UNL     1      -6.840   7.808  12.019  1.00  0.00     0.008 C 
HETATM    9  C5  UNL     1      -6.859   7.415  10.577  1.00  0.00     0.051 C 
HETATM   10  C10 UNL     1      -5.327   7.655  11.986  1.00  0.00     0.061 C 
HETATM   11  C6  UNL     1      -7.552   8.468   9.743  1.00  0.00     0.175 C 
HETATM   12  C8  UNL     1      -5.395   7.807  10.501  1.00  0.00     0.094 C 
HETATM   13  O1  UNL     1      -6.573   9.305   9.232  1.00  0.00    -0.388 OA
HETATM   14  C7  UNL     1      -5.500   9.252  10.115  1.00  0.00     0.206 C 
BRANCH  12  15
HETATM   15  O2  UNL     1      -4.603   6.991   9.747  1.00  0.00    -0.382 OA
HETATM   16  C9  UNL     1      -3.574   7.708   9.156  1.00  0.00     0.202 C 
ENDBRANCH  12  15
ENDBRANCH   3   4
ENDBRANCH   1   3
BRANCH   1  17
HETATM   17  C13 UNL     1      -3.537   3.709  12.433  1.00  0.00     0.262 A 
HETATM   18  C17 UNL     1      -3.519   2.224  12.528  1.00  0.00     0.082 A 
HETATM   19  C20 UNL     1      -4.166   3.056  13.581  1.00  0.00     0.041 A 
HETATM   20  C21 UNL     1      -3.661   3.122  14.973  1.00  0.00     0.021 C 
BRANCH  17  21
HETATM   21  N1  UNL     1      -2.283   4.375  12.479  1.00  0.00     0.109 N 
HETATM   22  C14 UNL     1      -1.101   3.611  12.259  1.00  0.00     0.276 C 
HETATM   23  C15 UNL     1      -0.474   4.876  11.651  1.00  0.00     0.060 C 
HETATM   24  C16 UNL     1      -1.938   5.146  11.281  1.00  0.00     0.276 C 
ENDBRANCH  17  21
BRANCH  18  25
HETATM   25  C18 UNL     1      -4.856   1.502  12.345  1.00  0.00     0.225 A 
HETATM   26  N2  UNL     1      -5.146   0.951  11.057  1.00  0.00    -0.061 N 
HETATM   27  C19 UNL     1      -4.177   0.307  11.985  1.00  0.00     0.229 A 
ATOM     28  H22 UNL     1      -5.984   0.662  10.554  1.00  0.00     0.278 HD
ATOM     29  H21 UNL     1      -5.128   1.287  10.093  1.00  0.00     0.278 HD
ENDBRANCH  18  25
ENDBRANCH   1  17
TORSDOF 7
ENDMDL
MODEL 2
REMARK VINA RESULT: -6.717286331      1.919      3.072
REMARK  7 active torsions:
REMARK  status: ('A' for Active; 'I' for Inactive)
REMARK    1  A    between atoms: C8_9  and  O2_10 
REMARK    2  A    between atoms: C11_13  and  O3_14 
REMARK    3  A    between atoms: O3_14  and  C12_15 
REMARK    4  A    between atoms: C12_15  and  C13_17 
REMARK    5  A    between atoms: C13_17  and  N1_18 
REMARK    6  A    between atoms: C17_22  and  C18_23 
REMARK    7  A    between atoms: C19_27  and  C20_28 
ROOT
HETATM    1  C12 UNL     1      -5.433   4.955  12.921  1.00  0.00     0.300 C 
HETATM    2  O4  UNL     1      -6.521   5.261  13.500  1.00  0.00    -0.262 OA
ENDROOT
BRANCH   1   3
HETATM    3  O3  UNL     1      -5.331   5.296  11.585  1.00  0.00    -0.309 OA
BRANCH   3   4
HETATM    4  C11 UNL     1      -4.907   6.590  11.196  1.00  0.00     0.167 C 
HETATM    5  C2  UNL     1      -6.179   7.387  11.028  1.00  0.00    -0.059 C 
HETATM    6  C1  UNL     1      -6.675   8.302  11.854  1.00  0.00     0.017 C 
HETATM    7  C3  UNL     1      -6.739   6.911   9.734  1.00  0.00     0.041 C 
HETATM    8  C4  UNL     1      -5.535   6.573   8.924  1.00  0.00     0.008 C 
HETATM    9  C5  UNL     1      -5.209   5.125   8.741  1.00  0.00     0.051 C 
HETATM   10  C10 UNL     1      -4.323   6.674   9.837  1.00  0.00     0.061 C 
HETATM   11  C6  UNL     1      -5.052   4.791   7.275  1.00  0.00     0.175 C 
HETATM   12  C8  UNL     1      -3.794   5.436   9.190  1.00  0.00     0.094 C 
HETATM   13  O1  UNL     1      -3.702   4.863   6.974  1.00  0.00    -0.388 OA
HETATM   14  C7  UNL     1      -3.137   5.755   7.880  1.00  0.00     0.206 C 
BRANCH  12  15
HETATM   15  O2  UNL     1      -3.211   4.503   9.995  1.00  0.00    -0.382 OA
HETATM   16  C9  UNL     1      -1.838   4.467   9.801  1.00  0.00     0.202 C 
ENDBRANCH  12  15
ENDBRANCH   3   4
ENDBRANCH   1   3
BRANCH   1  17
HETATM   17  C13 UNL     1      -4.328   4.261  13.661  1.00  0.00     0.262 A 
HETATM   18  C17 UNL     1      -3.806   3.035  12.999  1.00  0.00     0.082 A 
HETATM   19  C20 UNL     1      -4.667   2.951  14.213  1.00  0.00     0.041 A 
HETATM   20  C21 UNL     1      -4.175   2.426  15.509  1.00  0.00     0.021 C 
BRANCH  17  21
HETATM   21  N1  UNL     1      -3.371   5.146  14.227  1.00  0.00     0.109 N 
HETATM   22  C14 UNL     1      -2.410   5.749  13.365  1.00  0.00     0.276 C 
HETATM   23  C15 UNL     1      -2.418   6.961  14.310  1.00  0.00     0.060 C 
HETATM   24  C16 UNL     1      -3.863   6.494  14.526  1.00  0.00     0.276 C 
ENDBRANCH  17  21
BRANCH  18  25
HETATM   25  C18 UNL     1      -4.826   2.152  12.275  1.00  0.00     0.225 A 
HETATM   26  N2  UNL     1      -4.834   2.179  10.845  1.00  0.00    -0.061 N 
HETATM   27  C19 UNL     1      -3.777   1.463  11.610  1.00  0.00     0.229 A 
ATOM     28  H22 UNL     1      -5.499   1.938  10.110  1.00  0.00     0.278 HD
ATOM     29  H21 UNL     1      -4.858   2.900  10.124  1.00  0.00     0.278 HD
ENDBRANCH  18  25
ENDBRANCH   1  17
TORSDOF 7
ENDMDL
MODEL 3
REMARK VINA RESULT: -6.713432006      3.034      5.889
REMARK  7 active torsions:
REMARK  status: ('A' for Active; 'I' for Inactive)
REMARK    1  A    between atoms: C8_9  and  O2_10 
REMARK    2  A    between atoms: C11_13  and  O3_14 
REMARK    3  A    between atoms: O3_14  and  C12_15 
REMARK    4  A    between atoms: C12_15  and  C13_17 
REMARK    5  A    between atoms: C13_17  and  N1_18 
REMARK    6  A    between atoms: C17_22  and  C18_23 
REMARK    7  A    between atoms: C19_27  and  C20_28 
ROOT
HETATM    1  C12 UNL     1      -2.821   4.053  14.413  1.00  0.00     0.300 C 
HETATM    2  O4  UNL     1      -2.344   3.868  15.575  1.00  0.00    -0.262 OA
ENDROOT
BRANCH   1   3
HETATM    3  O3  UNL     1      -3.234   2.923  13.731  1.00  0.00    -0.309 OA
BRANCH   3   4
HETATM    4  C11 UNL     1      -4.599   2.548  13.705  1.00  0.00     0.167 C 
HETATM    5  C2  UNL     1      -4.785   1.659  14.911  1.00  0.00    -0.059 C 
HETATM    6  C1  UNL     1      -5.371   1.971  16.063  1.00  0.00     0.017 C 
HETATM    7  C3  UNL     1      -4.166   0.367  14.512  1.00  0.00     0.041 C 
HETATM    8  C4  UNL     1      -4.403   0.295  13.041  1.00  0.00     0.008 C 
HETATM    9  C5  UNL     1      -3.239   0.556  12.140  1.00  0.00     0.051 C 
HETATM   10  C10 UNL     1      -4.975   1.634  12.602  1.00  0.00     0.061 C 
HETATM   11  C6  UNL     1      -3.060  -0.575  11.153  1.00  0.00     0.175 C 
HETATM   12  C8  UNL     1      -4.105   1.551  11.391  1.00  0.00     0.094 C 
HETATM   13  O1  UNL     1      -3.710  -0.213   9.985  1.00  0.00    -0.388 OA
HETATM   14  C7  UNL     1      -4.723   0.670  10.346  1.00  0.00     0.206 C 
BRANCH  12  15
HETATM   15  O2  UNL     1      -3.478   2.692  10.985  1.00  0.00    -0.382 OA
HETATM   16  C9  UNL     1      -4.309   3.456  10.180  1.00  0.00     0.202 C 
ENDBRANCH  12  15
ENDBRANCH   3   4
ENDBRANCH   1   3
BRANCH   1  17
HETATM   17  C13 UNL     1      -2.925   5.430  13.826  1.00  0.00     0.262 A 
HETATM   18  C17 UNL     1      -2.209   5.615  12.535  1.00  0.00     0.082 A 
HETATM   19  C20 UNL     1      -1.681   6.198  13.801  1.00  0.00     0.041 A 
HETATM   20  C21 UNL     1      -1.585   7.659  14.031  1.00  0.00     0.021 C 
BRANCH  17  21
HETATM   21  N1  UNL     1      -4.220   6.005  13.935  1.00  0.00     0.109 N 
HETATM   22  C14 UNL     1      -5.268   5.475  13.128  1.00  0.00     0.276 C 
HETATM   23  C15 UNL     1      -6.241   5.855  14.256  1.00  0.00     0.060 C 
HETATM   24  C16 UNL     1      -4.994   5.592  15.110  1.00  0.00     0.276 C 
ENDBRANCH  17  21
BRANCH  18  25
HETATM   25  C18 UNL     1      -0.874   4.884  12.373  1.00  0.00     0.225 A 
HETATM   26  N2  UNL     1      -0.865   3.675  11.608  1.00  0.00    -0.061 N 
HETATM   27  C19 UNL     1      -0.960   5.012  10.961  1.00  0.00     0.229 A 
ATOM     28  H22 UNL     1      -0.255   2.862  11.527  1.00  0.00     0.278 HD
ATOM     29  H21 UNL     1      -1.408   2.811  11.592  1.00  0.00     0.278 HD
ENDBRANCH  18  25
ENDBRANCH   1  17
TORSDOF 7
ENDMDL
MODEL 4
REMARK VINA RESULT: -6.667231926      2.691      5.095
REMARK  7 active torsions:
REMARK  status: ('A' for Active; 'I' for Inactive)
REMARK    1  A    between atoms: C8_9  and  O2_10 
REMARK    2  A    between atoms: C11_13  and  O3_14 
REMARK    3  A    between atoms: O3_14  and  C12_15 
REMARK    4  A    between atoms: C12_15  and  C13_17 
REMARK    5  A    between atoms: C13_17  and  N1_18 
REMARK    6  A    between atoms: C17_22  and  C18_23 
REMARK    7  A    between atoms: C19_27  and  C20_28 
ROOT
HETATM    1  C12 UNL     1      -4.281   4.664  12.645  1.00  0.00     0.300 C 
HETATM    2  O4  UNL     1      -5.195   4.950  11.811  1.00  0.00    -0.262 OA
ENDROOT
BRANCH   1   3
HETATM    3  O3  UNL     1      -3.202   3.951  12.153  1.00  0.00    -0.309 OA
BRANCH   3   4
HETATM    4  C11 UNL     1      -3.220   3.419  10.841  1.00  0.00     0.167 C 
HETATM    5  C2  UNL     1      -3.137   1.922  11.023  1.00  0.00    -0.059 C 
HETATM    6  C1  UNL     1      -4.119   1.036  10.898  1.00  0.00     0.017 C 
HETATM    7  C3  UNL     1      -1.711   1.675  11.370  1.00  0.00     0.041 C 
HETATM    8  C4  UNL     1      -0.973   2.740  10.632  1.00  0.00     0.008 C 
HETATM    9  C5  UNL     1      -0.446   3.892  11.426  1.00  0.00     0.051 C 
HETATM   10  C10 UNL     1      -2.004   3.688  10.041  1.00  0.00     0.061 C 
HETATM   11  C6  UNL     1       1.031   4.090  11.169  1.00  0.00     0.175 C 
HETATM   12  C8  UNL     1      -1.110   4.821  10.427  1.00  0.00     0.094 C 
HETATM   13  O1  UNL     1       1.156   5.053  10.180  1.00  0.00    -0.388 OA
HETATM   14  C7  UNL     1      -0.010   5.003   9.423  1.00  0.00     0.206 C 
BRANCH  12  15
HETATM   15  O2  UNL     1      -1.694   5.935  10.954  1.00  0.00    -0.382 OA
HETATM   16  C9  UNL     1      -1.684   6.979  10.042  1.00  0.00     0.202 C 
ENDBRANCH  12  15
ENDBRANCH   3   4
ENDBRANCH   1   3
BRANCH   1  17
HETATM   17  C13 UNL     1      -4.381   5.083  14.081  1.00  0.00     0.262 A 
HETATM   18  C17 UNL     1      -4.248   3.976  15.066  1.00  0.00     0.082 A 
HETATM   19  C20 UNL     1      -5.568   4.611  14.793  1.00  0.00     0.041 A 
HETATM   20  C21 UNL     1      -6.309   5.391  15.812  1.00  0.00     0.021 C 
BRANCH  17  21
HETATM   21  N1  UNL     1      -3.700   6.295  14.375  1.00  0.00     0.109 N 
HETATM   22  C14 UNL     1      -2.276   6.304  14.318  1.00  0.00     0.276 C 
HETATM   23  C15 UNL     1      -2.367   7.779  13.895  1.00  0.00     0.060 C 
HETATM   24  C16 UNL     1      -3.692   7.288  13.297  1.00  0.00     0.276 C 
ENDBRANCH  17  21
BRANCH  18  25
HETATM   25  C18 UNL     1      -4.871   2.631  14.684  1.00  0.00     0.225 A 
HETATM   26  N2  UNL     1      -3.986   1.550  14.375  1.00  0.00    -0.061 N 
HETATM   27  C19 UNL     1      -4.213   2.002  15.775  1.00  0.00     0.229 A 
ATOM     28  H22 UNL     1      -4.054   0.668  13.868  1.00  0.00     0.278 HD
ATOM     29  H21 UNL     1      -3.176   1.414  13.770  1.00  0.00     0.278 HD
ENDBRANCH  18  25
ENDBRANCH   1  17
TORSDOF 7
ENDMDL
MODEL 5
REMARK VINA RESULT: -6.644006379      2.404      4.015
REMARK  7 active torsions:
REMARK  status: ('A' for Active; 'I' for Inactive)
REMARK    1  A    between atoms: C8_9  and  O2_10 
REMARK    2  A    between atoms: C11_13  and  O3_14 
REMARK    3  A    between atoms: O3_14  and  C12_15 
REMARK    4  A    between atoms: C12_15  and  C13_17 
REMARK    5  A    between atoms: C13_17  and  N1_18 
REMARK    6  A    between atoms: C17_22  and  C18_23 
REMARK    7  A    between atoms: C19_27  and  C20_28 
ROOT
HETATM    1  C12 UNL     1      -3.176   3.371  13.156  1.00  0.00     0.300 C 
HETATM    2  O4  UNL     1      -1.983   3.477  13.579  1.00  0.00    -0.262 OA
ENDROOT
BRANCH   1   3
HETATM    3  O3  UNL     1      -3.563   4.271  12.179  1.00  0.00    -0.309 OA
BRANCH   3   4
HETATM    4  C11 UNL     1      -2.818   5.451  11.942  1.00  0.00     0.167 C 
HETATM    5  C2  UNL     1      -3.698   6.577  12.431  1.00  0.00    -0.059 C 
HETATM    6  C1  UNL     1      -3.569   7.274  13.555  1.00  0.00     0.017 C 
HETATM    7  C3  UNL     1      -4.732   6.719  11.370  1.00  0.00     0.041 C 
HETATM    8  C4  UNL     1      -4.015   6.344  10.118  1.00  0.00     0.008 C 
HETATM    9  C5  UNL     1      -4.311   5.003   9.527  1.00  0.00     0.051 C 
HETATM   10  C10 UNL     1      -2.648   5.807  10.514  1.00  0.00     0.061 C 
HETATM   11  C6  UNL     1      -4.704   5.133   8.073  1.00  0.00     0.175 C 
HETATM   12  C8  UNL     1      -2.817   4.750   9.472  1.00  0.00     0.094 C 
HETATM   13  O1  UNL     1      -3.564   4.924   7.314  1.00  0.00    -0.388 OA
HETATM   14  C7  UNL     1      -2.482   5.282   8.110  1.00  0.00     0.206 C 
BRANCH  12  15
HETATM   15  O2  UNL     1      -2.420   3.484   9.787  1.00  0.00    -0.382 OA
HETATM   16  C9  UNL     1      -1.079   3.295   9.487  1.00  0.00     0.202 C 
ENDBRANCH  12  15
ENDBRANCH   3   4
ENDBRANCH   1   3
BRANCH   1  17
HETATM   17  C13 UNL     1      -4.102   2.323  13.697  1.00  0.00     0.262 A 
HETATM   18  C17 UNL     1      -5.309   2.851  14.389  1.00  0.00     0.082 A 
HETATM   19  C20 UNL     1      -4.182   2.247  15.155  1.00  0.00     0.041 A 
HETATM   20  C21 UNL     1      -4.324   0.992  15.931  1.00  0.00     0.021 C 
BRANCH  17  21
HETATM   21  N1  UNL     1      -4.289   1.216  12.826  1.00  0.00     0.109 N 
HETATM   22  C14 UNL     1      -4.974   1.430  11.595  1.00  0.00     0.276 C 
HETATM   23  C15 UNL     1      -4.109   0.310  10.994  1.00  0.00     0.060 C 
HETATM   24  C16 UNL     1      -3.114   0.831  12.039  1.00  0.00     0.276 C 
ENDBRANCH  17  21
BRANCH  18  25
HETATM   25  C18 UNL     1      -5.128   4.123  15.220  1.00  0.00     0.225 A 
HETATM   26  N2  UNL     1      -5.968   5.242  14.919  1.00  0.00    -0.061 N 
HETATM   27  C19 UNL     1      -6.481   4.051  15.649  1.00  0.00     0.229 A 
ATOM     28  H22 UNL     1      -5.938   6.248  15.084  1.00  0.00     0.278 HD
ATOM     29  H21 UNL     1      -6.230   5.758  14.079  1.00  0.00     0.278 HD
ENDBRANCH  18  25
ENDBRANCH   1  17
TORSDOF 7
ENDMDL
