MODEL 1
REMARK VINA RESULT: -8.748388944      0.000      0.000
REMARK  3 active torsions:
REMARK  status: ('A' for Active; 'I' for Inactive)
REMARK       I    between atoms: C1_2  and  N1_4 
REMARK    1  A    between atoms: N1_4  and  C2_5 
REMARK       I    between atoms: N1_4  and  C7_11 
REMARK    2  A    between atoms: C2_5  and  C3_6 
REMARK    3  A    between atoms: C7_11  and  C8_13 
ROOT
HETATM    1  C8  UNL     1      -4.644   2.107  13.036  1.00  0.00     0.183 C 
HETATM    2  C9  UNL     1      -3.332   2.702  12.578  1.00  0.00     0.204 C 
HETATM    3  O5  UNL     1      -2.349   2.990  13.198  1.00  0.00    -0.291 OA
HETATM    4  C10 UNL     1      -3.609   2.836  11.093  1.00  0.00     0.234 C 
HETATM    5  O6  UNL     1      -4.590   3.781  10.944  1.00  0.00    -0.346 OA
HETATM    6  C11 UNL     1      -3.888   4.970  10.674  1.00  0.00     0.198 C 
HETATM    7  C12 UNL     1      -2.809   4.423   9.737  1.00  0.00     0.198 C 
HETATM    8  O7  UNL     1      -2.489   3.234  10.404  1.00  0.00    -0.346 OA
HETATM    9  C13 UNL     1      -4.059   1.443  10.775  1.00  0.00     0.086 C 
HETATM   10  C14 UNL     1      -2.826   0.591  10.593  1.00  0.00     0.015 C 
HETATM   11  C15 UNL     1      -3.363  -0.846  10.546  1.00  0.00     0.027 C 
HETATM   12  C16 UNL     1      -3.951  -1.106  11.894  1.00  0.00     0.168 C 
HETATM   13  O8  UNL     1      -4.835  -0.223  12.377  1.00  0.00    -0.384 OA
HETATM   14  C17 UNL     1      -4.883   1.055  11.968  1.00  0.00     0.151 C 
ENDROOT
BRANCH   1  15
HETATM   15  C7  UNL     1      -4.645   1.634  14.404  1.00  0.00     0.242 C 
HETATM   16  N1  UNL     1      -5.343   2.182  15.483  1.00  0.00    -0.259 N 
HETATM   17  C1  UNL     1      -5.195   1.563  16.778  1.00  0.00     0.292 C 
HETATM   18  O1  UNL     1      -5.815   2.011  17.779  1.00  0.00    -0.629 OA
HETATM   19  O2  UNL     1      -4.366   0.481  16.904  1.00  0.00    -0.629 OA
HETATM   20  O4  UNL     1      -3.912   0.595  14.644  1.00  0.00    -0.272 OA
BRANCH  16  21
HETATM   21  C2  UNL     1      -6.212   3.323  15.341  1.00  0.00     0.170 C 
BRANCH  21  22
HETATM   22  C3  UNL     1      -5.566   4.586  14.897  1.00  0.00     0.140 C 
HETATM   23  C4  UNL     1      -6.187   5.736  15.718  1.00  0.00     0.036 C 
HETATM   24  C5  UNL     1      -5.043   6.713  15.881  1.00  0.00     0.029 C 
HETATM   25  C6  UNL     1      -3.972   6.048  15.013  1.00  0.00     0.168 C 
HETATM   26  O3  UNL     1      -4.235   4.695  15.294  1.00  0.00    -0.384 OA
ENDBRANCH  21  22
ENDBRANCH  16  21
ENDBRANCH   1  15
TORSDOF 3
ENDMDL
MODEL 2
REMARK VINA RESULT: -8.586137348      1.728      4.286
REMARK  3 active torsions:
REMARK  status: ('A' for Active; 'I' for Inactive)
REMARK       I    between atoms: C1_2  and  N1_4 
REMARK    1  A    between atoms: N1_4  and  C2_5 
REMARK       I    between atoms: N1_4  and  C7_11 
REMARK    2  A    between atoms: C2_5  and  C3_6 
REMARK    3  A    between atoms: C7_11  and  C8_13 
ROOT
HETATM    1  C8  UNL     1      -3.963   2.860  12.951  1.00  0.00     0.183 C 
HETATM    2  C9  UNL     1      -4.384   2.176  11.670  1.00  0.00     0.204 C 
HETATM    3  O5  UNL     1      -5.337   2.355  10.968  1.00  0.00    -0.291 OA
HETATM    4  C10 UNL     1      -3.246   1.185  11.517  1.00  0.00     0.234 C 
HETATM    5  O6  UNL     1      -3.348   0.284  12.543  1.00  0.00    -0.346 OA
HETATM    6  C11 UNL     1      -4.047  -0.802  11.985  1.00  0.00     0.198 C 
HETATM    7  C12 UNL     1      -3.382  -0.853  10.608  1.00  0.00     0.198 C 
HETATM    8  O7  UNL     1      -3.317   0.516  10.319  1.00  0.00    -0.346 OA
HETATM    9  C13 UNL     1      -2.068   2.104  11.634  1.00  0.00     0.086 C 
HETATM   10  C14 UNL     1      -1.852   2.748  10.286  1.00  0.00     0.015 C 
HETATM   11  C15 UNL     1      -0.826   3.857  10.559  1.00  0.00     0.027 C 
HETATM   12  C16 UNL     1      -1.505   4.826  11.469  1.00  0.00     0.168 C 
HETATM   13  O8  UNL     1      -2.081   4.350  12.580  1.00  0.00    -0.384 OA
HETATM   14  C17 UNL     1      -2.481   3.074  12.702  1.00  0.00     0.151 C 
ENDROOT
BRANCH   1  15
HETATM   15  C7  UNL     1      -4.729   4.042  13.281  1.00  0.00     0.242 C 
HETATM   16  N1  UNL     1      -5.212   4.409  14.539  1.00  0.00    -0.259 N 
HETATM   17  C1  UNL     1      -5.972   5.630  14.650  1.00  0.00     0.292 C 
HETATM   18  O1  UNL     1      -6.416   6.010  15.767  1.00  0.00    -0.629 OA
HETATM   19  O2  UNL     1      -6.206   6.370  13.523  1.00  0.00    -0.629 OA
HETATM   20  O4  UNL     1      -4.995   4.837  12.294  1.00  0.00    -0.272 OA
BRANCH  16  21
HETATM   21  C2  UNL     1      -4.962   3.622  15.720  1.00  0.00     0.170 C 
BRANCH  21  22
HETATM   22  C3  UNL     1      -5.873   2.469  15.945  1.00  0.00     0.140 C 
HETATM   23  C4  UNL     1      -5.051   1.356  16.627  1.00  0.00     0.036 C 
HETATM   24  C5  UNL     1      -6.055   0.678  17.534  1.00  0.00     0.029 C 
HETATM   25  C6  UNL     1      -7.340   1.411  17.137  1.00  0.00     0.168 C 
HETATM   26  O3  UNL     1      -6.828   2.706  16.932  1.00  0.00    -0.384 OA
ENDBRANCH  21  22
ENDBRANCH  16  21
ENDBRANCH   1  15
TORSDOF 3
ENDMDL
MODEL 3
REMARK VINA RESULT: -8.338120769      1.853      5.399
REMARK  3 active torsions:
REMARK  status: ('A' for Active; 'I' for Inactive)
REMARK       I    between atoms: C1_2  and  N1_4 
REMARK    1  A    between atoms: N1_4  and  C2_5 
REMARK       I    between atoms: N1_4  and  C7_11 
REMARK    2  A    between atoms: C2_5  and  C3_6 
REMARK    3  A    between atoms: C7_11  and  C8_13 
ROOT
HETATM    1  C8  UNL     1      -4.234   2.113  14.142  1.00  0.00     0.183 C 
HETATM    2  C9  UNL     1      -5.429   3.027  13.991  1.00  0.00     0.204 C 
HETATM    3  O5  UNL     1      -6.282   3.062  13.151  1.00  0.00    -0.291 OA
HETATM    4  C10 UNL     1      -5.247   3.901  15.216  1.00  0.00     0.234 C 
HETATM    5  O6  UNL     1      -4.109   4.640  15.025  1.00  0.00    -0.346 OA
HETATM    6  C11 UNL     1      -4.573   5.868  14.517  1.00  0.00     0.198 C 
HETATM    7  C12 UNL     1      -5.810   6.057  15.397  1.00  0.00     0.198 C 
HETATM    8  O7  UNL     1      -6.312   4.750  15.394  1.00  0.00    -0.346 OA
HETATM    9  C13 UNL     1      -5.116   2.854  16.279  1.00  0.00     0.086 C 
HETATM   10  C14 UNL     1      -6.507   2.404  16.656  1.00  0.00     0.015 C 
HETATM   11  C15 UNL     1      -6.278   1.163  17.530  1.00  0.00     0.027 C 
HETATM   12  C16 UNL     1      -5.653   0.144  16.635  1.00  0.00     0.168 C 
HETATM   13  O8  UNL     1      -4.573   0.504  15.929  1.00  0.00    -0.384 OA
HETATM   14  C17 UNL     1      -4.298   1.781  15.621  1.00  0.00     0.151 C 
ENDROOT
BRANCH   1  15
HETATM   15  C7  UNL     1      -4.223   0.984  13.237  1.00  0.00     0.242 C 
HETATM   16  N1  UNL     1      -3.825   0.982  11.898  1.00  0.00    -0.259 N 
HETATM   17  C1  UNL     1      -3.905  -0.258  11.163  1.00  0.00     0.292 C 
HETATM   18  O1  UNL     1      -3.544  -0.313   9.957  1.00  0.00    -0.629 OA
HETATM   19  O2  UNL     1      -4.382  -1.373  11.796  1.00  0.00    -0.629 OA
HETATM   20  O4  UNL     1      -4.633  -0.140  13.731  1.00  0.00    -0.272 OA
BRANCH  16  21
HETATM   21  C2  UNL     1      -3.326   2.163  11.240  1.00  0.00     0.170 C 
BRANCH  21  22
HETATM   22  C3  UNL     1      -1.885   2.466  11.443  1.00  0.00     0.140 C 
HETATM   23  C4  UNL     1      -1.253   2.663  10.049  1.00  0.00     0.036 C 
HETATM   24  C5  UNL     1      -0.189   3.712  10.287  1.00  0.00     0.029 C 
HETATM   25  C6  UNL     1      -0.270   3.863  11.808  1.00  0.00     0.168 C 
HETATM   26  O3  UNL     1      -1.659   3.726  11.992  1.00  0.00    -0.384 OA
ENDBRANCH  21  22
ENDBRANCH  16  21
ENDBRANCH   1  15
TORSDOF 3
ENDMDL
MODEL 4
REMARK VINA RESULT: -8.251524730      2.404      4.740
REMARK  3 active torsions:
REMARK  status: ('A' for Active; 'I' for Inactive)
REMARK       I    between atoms: C1_2  and  N1_4 
REMARK    1  A    between atoms: N1_4  and  C2_5 
REMARK       I    between atoms: N1_4  and  C7_11 
REMARK    2  A    between atoms: C2_5  and  C3_6 
REMARK    3  A    between atoms: C7_11  and  C8_13 
ROOT
HETATM    1  C8  UNL     1      -3.728   3.031  12.348  1.00  0.00     0.183 C 
HETATM    2  C9  UNL     1      -3.079   1.669  12.249  1.00  0.00     0.204 C 
HETATM    3  O5  UNL     1      -1.933   1.362  12.092  1.00  0.00    -0.291 OA
HETATM    4  C10 UNL     1      -4.301   0.785  12.406  1.00  0.00     0.234 C 
HETATM    5  O6  UNL     1      -5.087   0.973  11.299  1.00  0.00    -0.346 OA
HETATM    6  C11 UNL     1      -4.732  -0.083  10.439  1.00  0.00     0.198 C 
HETATM    7  C12 UNL     1      -4.615  -1.216  11.461  1.00  0.00     0.198 C 
HETATM    8  O7  UNL     1      -3.957  -0.542  12.496  1.00  0.00    -0.346 OA
HETATM    9  C13 UNL     1      -4.885   1.351  13.665  1.00  0.00     0.086 C 
HETATM   10  C14 UNL     1      -4.144   0.743  14.830  1.00  0.00     0.015 C 
HETATM   11  C15 UNL     1      -4.605   1.566  16.041  1.00  0.00     0.027 C 
HETATM   12  C16 UNL     1      -4.106   2.954  15.805  1.00  0.00     0.168 C 
HETATM   13  O8  UNL     1      -4.387   3.533  14.631  1.00  0.00    -0.384 OA
HETATM   14  C17 UNL     1      -4.668   2.829  13.522  1.00  0.00     0.151 C 
ENDROOT
BRANCH   1  15
HETATM   15  C7  UNL     1      -2.798   4.134  12.461  1.00  0.00     0.242 C 
HETATM   16  N1  UNL     1      -3.006   5.456  12.061  1.00  0.00    -0.259 N 
HETATM   17  C1  UNL     1      -1.935   6.404  12.252  1.00  0.00     0.292 C 
HETATM   18  O1  UNL     1      -2.081   7.611  11.921  1.00  0.00    -0.629 OA
HETATM   19  O2  UNL     1      -0.757   5.972  12.795  1.00  0.00    -0.629 OA
HETATM   20  O4  UNL     1      -1.649   3.852  12.985  1.00  0.00    -0.272 OA
BRANCH  16  21
HETATM   21  C2  UNL     1      -4.251   5.901  11.487  1.00  0.00     0.170 C 
BRANCH  21  22
HETATM   22  C3  UNL     1      -5.235   6.491  12.433  1.00  0.00     0.140 C 
HETATM   23  C4  UNL     1      -5.949   7.645  11.698  1.00  0.00     0.036 C 
HETATM   24  C5  UNL     1      -7.350   7.615  12.268  1.00  0.00     0.029 C 
HETATM   25  C6  UNL     1      -7.198   6.539  13.348  1.00  0.00     0.168 C 
HETATM   26  O3  UNL     1      -6.321   5.657  12.690  1.00  0.00    -0.384 OA
ENDBRANCH  21  22
ENDBRANCH  16  21
ENDBRANCH   1  15
TORSDOF 3
ENDMDL
MODEL 5
REMARK VINA RESULT: -8.003356731      2.028      2.567
REMARK  3 active torsions:
REMARK  status: ('A' for Active; 'I' for Inactive)
REMARK       I    between atoms: C1_2  and  N1_4 
REMARK    1  A    between atoms: N1_4  and  C2_5 
REMARK       I    between atoms: N1_4  and  C7_11 
REMARK    2  A    between atoms: C2_5  and  C3_6 
REMARK    3  A    between atoms: C7_11  and  C8_13 
ROOT
HETATM    1  C8  UNL     1      -4.256   3.006  12.179  1.00  0.00     0.183 C 
HETATM    2  C9  UNL     1      -2.752   3.118  12.293  1.00  0.00     0.204 C 
HETATM    3  O5  UNL     1      -2.063   3.439  13.218  1.00  0.00    -0.291 OA
HETATM    4  C10 UNL     1      -2.352   2.706  10.890  1.00  0.00     0.234 C 
HETATM    5  O6  UNL     1      -2.797   3.680  10.035  1.00  0.00    -0.346 OA
HETATM    6  C11 UNL     1      -1.679   4.515   9.848  1.00  0.00     0.198 C 
HETATM    7  C12 UNL     1      -0.582   3.453   9.747  1.00  0.00     0.198 C 
HETATM    8  O7  UNL     1      -0.989   2.586  10.768  1.00  0.00    -0.346 OA
HETATM    9  C13 UNL     1      -3.093   1.410  10.767  1.00  0.00     0.086 C 
HETATM   10  C14 UNL     1      -2.270   0.343  11.447  1.00  0.00     0.015 C 
HETATM   11  C15 UNL     1      -3.208  -0.870  11.517  1.00  0.00     0.027 C 
HETATM   12  C16 UNL     1      -4.333  -0.465  12.411  1.00  0.00     0.168 C 
HETATM   13  O8  UNL     1      -4.967   0.684  12.145  1.00  0.00    -0.384 OA
HETATM   14  C17 UNL     1      -4.401   1.683  11.450  1.00  0.00     0.151 C 
ENDROOT
BRANCH   1  15
HETATM   15  C7  UNL     1      -4.964   3.119  13.437  1.00  0.00     0.242 C 
HETATM   16  N1  UNL     1      -5.332   4.296  14.092  1.00  0.00    -0.259 N 
HETATM   17  C1  UNL     1      -6.026   4.188  15.353  1.00  0.00     0.292 C 
HETATM   18  O1  UNL     1      -6.392   5.221  15.974  1.00  0.00    -0.629 OA
HETATM   19  O2  UNL     1      -6.279   2.945  15.865  1.00  0.00    -0.629 OA
HETATM   20  O4  UNL     1      -5.281   2.003  14.009  1.00  0.00    -0.272 OA
BRANCH  16  21
HETATM   21  C2  UNL     1      -5.060   5.601  13.545  1.00  0.00     0.170 C 
BRANCH  21  22
HETATM   22  C3  UNL     1      -5.937   6.040  12.428  1.00  0.00     0.140 C 
HETATM   23  C4  UNL     1      -7.123   6.810  13.045  1.00  0.00     0.036 C 
HETATM   24  C5  UNL     1      -7.441   7.864  12.008  1.00  0.00     0.029 C 
HETATM   25  C6  UNL     1      -6.483   7.458  10.884  1.00  0.00     0.168 C 
HETATM   26  O3  UNL     1      -5.374   7.046  11.647  1.00  0.00    -0.384 OA
ENDBRANCH  21  22
ENDBRANCH  16  21
ENDBRANCH   1  15
TORSDOF 3
ENDMDL
