MODEL 1
REMARK VINA RESULT: -7.750896024      0.000      0.000
REMARK  3 active torsions:
REMARK  status: ('A' for Active; 'I' for Inactive)
REMARK    1  A    between atoms: O1_2  and  C2_3 
REMARK    2  A    between atoms: C18_24  and  O5_25 
REMARK    3  A    between atoms: O5_25  and  C19_26 
ROOT
HETATM    1  C2  UNL     1      -4.788   2.486  14.547  1.00  0.00     0.114 C 
HETATM    2  C3  UNL     1      -5.742   2.920  13.432  1.00  0.00     0.051 C 
HETATM    3  C4  UNL     1      -4.939   3.927  12.576  1.00  0.00     0.025 C 
HETATM    4  C5  UNL     1      -5.094   5.142  13.460  1.00  0.00     0.008 C 
HETATM    5  C6  UNL     1      -4.735   4.887  14.896  1.00  0.00     0.008 C 
HETATM    6  C7  UNL     1      -4.049   3.614  15.198  1.00  0.00     0.025 C 
HETATM    7  C8  UNL     1      -2.561   3.641  15.107  1.00  0.00     0.010 C 
HETATM    8  C9  UNL     1      -1.878   4.586  14.219  1.00  0.00     0.033 C 
HETATM    9  C10 UNL     1      -1.533   4.295  12.836  1.00  0.00     0.134 C 
HETATM   10  O2  UNL     1      -1.041   3.115  12.428  1.00  0.00    -0.370 OA
HETATM   11  C11 UNL     1      -1.373   2.969  11.053  1.00  0.00     0.221 C 
HETATM   12  C12 UNL     1      -0.526   3.933  10.316  1.00  0.00     0.247 C 
HETATM   13  O3  UNL     1       0.622   3.541  10.047  1.00  0.00    -0.271 OA
HETATM   14  N1  UNL     1      -0.895   5.227   9.901  1.00  0.00    -0.359 N 
ATOM     15  H1  UNL     1      -0.135   5.818   9.564  1.00  0.00     0.162 HD
HETATM   16  C13 UNL     1      -2.190   5.818   9.889  1.00  0.00     0.123 C 
HETATM   17  C14 UNL     1      -2.958   5.693  11.170  1.00  0.00     0.035 C 
HETATM   18  C15 UNL     1      -2.750   4.503  11.973  1.00  0.00     0.029 A 
HETATM   19  C16 UNL     1      -2.853   3.382  10.995  1.00  0.00     0.074 A 
HETATM   20  C17 UNL     1      -3.655   3.392  12.279  1.00  0.00     0.086 A 
HETATM   21  O4  UNL     1      -3.191   2.308  12.926  1.00  0.00    -0.345 OA
HETATM   22  C18 UNL     1      -3.844   1.559  13.760  1.00  0.00     0.305 C 
ENDROOT
BRANCH  22  23
HETATM   23  O5  UNL     1      -4.714   0.572  13.180  1.00  0.00    -0.287 OA
BRANCH  23  24
HETATM   24  C19 UNL     1      -4.370  -0.186  12.082  1.00  0.00     0.257 C 
HETATM   25  C20 UNL     1      -4.766   0.148  10.703  1.00  0.00     0.126 C 
HETATM   26  O6  UNL     1      -3.678  -1.223  12.292  1.00  0.00    -0.266 OA
ENDBRANCH  23  24
ENDBRANCH  22  23
BRANCH   1  27
HETATM   27  O1  UNL     1      -5.461   1.637  15.380  1.00  0.00    -0.380 OA
HETATM   28  C1  UNL     1      -4.973   1.419  16.619  1.00  0.00     0.202 C 
ENDBRANCH   1  27
TORSDOF 3
ENDMDL
MODEL 2
REMARK VINA RESULT: -7.146110686      1.356      1.534
REMARK  3 active torsions:
REMARK  status: ('A' for Active; 'I' for Inactive)
REMARK    1  A    between atoms: O1_2  and  C2_3 
REMARK    2  A    between atoms: C18_24  and  O5_25 
REMARK    3  A    between atoms: O5_25  and  C19_26 
ROOT
HETATM    1  C2  UNL     1      -4.549   3.300  14.357  1.00  0.00     0.114 C 
HETATM    2  C3  UNL     1      -5.786   3.910  13.693  1.00  0.00     0.051 C 
HETATM    3  C4  UNL     1      -5.262   5.121  12.888  1.00  0.00     0.025 C 
HETATM    4  C5  UNL     1      -5.137   6.106  14.026  1.00  0.00     0.008 C 
HETATM    5  C6  UNL     1      -4.373   5.568  15.202  1.00  0.00     0.008 C 
HETATM    6  C7  UNL     1      -3.640   4.301  15.001  1.00  0.00     0.025 C 
HETATM    7  C8  UNL     1      -2.245   4.431  14.490  1.00  0.00     0.010 C 
HETATM    8  C9  UNL     1      -1.846   5.583  13.677  1.00  0.00     0.033 C 
HETATM    9  C10 UNL     1      -1.927   5.617  12.224  1.00  0.00     0.134 C 
HETATM   10  O2  UNL     1      -1.590   4.583  11.439  1.00  0.00    -0.370 OA
HETATM   11  C11 UNL     1      -2.314   4.719  10.223  1.00  0.00     0.221 C 
HETATM   12  C12 UNL     1      -1.713   5.866   9.507  1.00  0.00     0.247 C 
HETATM   13  O3  UNL     1      -0.699   5.607   8.836  1.00  0.00    -0.271 OA
HETATM   14  N1  UNL     1      -2.175   7.196   9.516  1.00  0.00    -0.359 N 
ATOM     15  H1  UNL     1      -1.542   7.888   9.114  1.00  0.00     0.162 HD
HETATM   16  C13 UNL     1      -3.410   7.701  10.011  1.00  0.00     0.123 C 
HETATM   17  C14 UNL     1      -3.767   7.259  11.399  1.00  0.00     0.035 C 
HETATM   18  C15 UNL     1      -3.342   5.937  11.821  1.00  0.00     0.029 A 
HETATM   19  C16 UNL     1      -3.741   5.050  10.691  1.00  0.00     0.074 A 
HETATM   20  C17 UNL     1      -4.128   4.737  12.120  1.00  0.00     0.086 A 
HETATM   21  O4  UNL     1      -3.504   3.567  12.345  1.00  0.00    -0.345 OA
HETATM   22  C18 UNL     1      -3.888   2.620  13.144  1.00  0.00     0.305 C 
ENDROOT
BRANCH  22  23
HETATM   23  O5  UNL     1      -4.900   1.734  12.636  1.00  0.00    -0.287 OA
BRANCH  23  24
HETATM   24  C19 UNL     1      -4.630   0.465  12.172  1.00  0.00     0.257 C 
HETATM   25  C20 UNL     1      -4.521   0.123  10.744  1.00  0.00     0.126 C 
HETATM   26  O6  UNL     1      -4.472  -0.443  13.038  1.00  0.00    -0.266 OA
ENDBRANCH  23  24
ENDBRANCH  22  23
BRANCH   1  27
HETATM   27  O1  UNL     1      -4.955   2.254  15.138  1.00  0.00    -0.380 OA
HETATM   28  C1  UNL     1      -4.103   1.765  16.062  1.00  0.00     0.202 C 
ENDBRANCH   1  27
TORSDOF 3
ENDMDL
MODEL 3
REMARK VINA RESULT: -7.061839123      2.525      3.237
REMARK  3 active torsions:
REMARK  status: ('A' for Active; 'I' for Inactive)
REMARK    1  A    between atoms: O1_2  and  C2_3 
REMARK    2  A    between atoms: C18_24  and  O5_25 
REMARK    3  A    between atoms: O5_25  and  C19_26 
ROOT
HETATM    1  C2  UNL     1      -3.728   3.901  14.604  1.00  0.00     0.114 C 
HETATM    2  C3  UNL     1      -5.147   3.530  14.164  1.00  0.00     0.051 C 
HETATM    3  C4  UNL     1      -5.669   4.764  13.391  1.00  0.00     0.025 C 
HETATM    4  C5  UNL     1      -6.043   5.625  14.575  1.00  0.00     0.008 C 
HETATM    5  C6  UNL     1      -4.944   5.756  15.590  1.00  0.00     0.008 C 
HETATM    6  C7  UNL     1      -3.605   5.273  15.193  1.00  0.00     0.025 C 
HETATM    7  C8  UNL     1      -2.731   6.268  14.509  1.00  0.00     0.010 C 
HETATM    8  C9  UNL     1      -3.309   7.373  13.740  1.00  0.00     0.033 C 
HETATM    9  C10 UNL     1      -3.615   7.301  12.319  1.00  0.00     0.134 C 
HETATM   10  O2  UNL     1      -2.812   6.716  11.417  1.00  0.00    -0.370 OA
HETATM   11  C11 UNL     1      -3.625   6.306  10.326  1.00  0.00     0.221 C 
HETATM   12  C12 UNL     1      -4.035   7.544   9.625  1.00  0.00     0.247 C 
HETATM   13  O3  UNL     1      -3.216   7.990   8.804  1.00  0.00    -0.271 OA
HETATM   14  N1  UNL     1      -5.243   8.245   9.800  1.00  0.00    -0.359 N 
ATOM     15  H1  UNL     1      -5.285   9.170   9.370  1.00  0.00     0.162 HD
HETATM   16  C13 UNL     1      -6.414   7.834  10.497  1.00  0.00     0.123 C 
HETATM   17  C14 UNL     1      -6.179   7.310  11.882  1.00  0.00     0.035 C 
HETATM   18  C15 UNL     1      -4.938   6.603  12.138  1.00  0.00     0.029 A 
HETATM   19  C16 UNL     1      -4.830   5.637  11.008  1.00  0.00     0.074 A 
HETATM   20  C17 UNL     1      -4.694   5.192  12.448  1.00  0.00     0.086 A 
HETATM   21  O4  UNL     1      -3.434   4.724  12.495  1.00  0.00    -0.345 OA
HETATM   22  C18 UNL     1      -2.981   3.782  13.264  1.00  0.00     0.305 C 
ENDROOT
BRANCH  22  23
HETATM   23  O5  UNL     1      -3.235   2.434  12.832  1.00  0.00    -0.287 OA
BRANCH  23  24
HETATM   24  C19 UNL     1      -3.028   2.003  11.540  1.00  0.00     0.257 C 
HETATM   25  C20 UNL     1      -1.728   1.533  11.033  1.00  0.00     0.126 C 
HETATM   26  O6  UNL     1      -4.025   2.022  10.761  1.00  0.00    -0.266 OA
ENDBRANCH  23  24
ENDBRANCH  22  23
BRANCH   1  27
HETATM   27  O1  UNL     1      -3.229   2.870  15.350  1.00  0.00    -0.380 OA
HETATM   28  C1  UNL     1      -4.090   2.066  16.008  1.00  0.00     0.202 C 
ENDBRANCH   1  27
TORSDOF 3
ENDMDL
MODEL 4
REMARK VINA RESULT: -7.046789723      2.540      4.629
REMARK  3 active torsions:
REMARK  status: ('A' for Active; 'I' for Inactive)
REMARK    1  A    between atoms: O1_2  and  C2_3 
REMARK    2  A    between atoms: C18_24  and  O5_25 
REMARK    3  A    between atoms: O5_25  and  C19_26 
ROOT
HETATM    1  C2  UNL     1      -4.425   5.431  14.247  1.00  0.00     0.114 C 
HETATM    2  C3  UNL     1      -3.387   5.889  13.220  1.00  0.00     0.051 C 
HETATM    3  C4  UNL     1      -2.774   4.587  12.652  1.00  0.00     0.025 C 
HETATM    4  C5  UNL     1      -1.819   4.282  13.781  1.00  0.00     0.008 C 
HETATM    5  C6  UNL     1      -2.468   4.305  15.136  1.00  0.00     0.008 C 
HETATM    6  C7  UNL     1      -3.944   4.355  15.171  1.00  0.00     0.025 C 
HETATM    7  C8  UNL     1      -4.639   3.035  15.153  1.00  0.00     0.010 C 
HETATM    8  C9  UNL     1      -4.013   1.864  14.535  1.00  0.00     0.033 C 
HETATM    9  C10 UNL     1      -4.186   1.493  13.138  1.00  0.00     0.134 C 
HETATM   10  O2  UNL     1      -5.361   1.562  12.494  1.00  0.00    -0.370 OA
HETATM   11  C11 UNL     1      -5.079   1.713  11.110  1.00  0.00     0.221 C 
HETATM   12  C12 UNL     1      -4.544   0.411  10.650  1.00  0.00     0.247 C 
HETATM   13  O3  UNL     1      -5.397  -0.441  10.349  1.00  0.00    -0.271 OA
HETATM   14  N1  UNL     1      -3.187   0.060  10.524  1.00  0.00    -0.359 N 
ATOM     15  H1  UNL     1      -2.999  -0.931  10.365  1.00  0.00     0.162 HD
HETATM   16  C13 UNL     1      -2.043   0.904  10.590  1.00  0.00     0.123 C 
HETATM   17  C14 UNL     1      -1.997   1.822  11.774  1.00  0.00     0.035 C 
HETATM   18  C15 UNL     1      -3.256   2.323  12.293  1.00  0.00     0.029 A 
HETATM   19  C16 UNL     1      -3.987   2.795  11.082  1.00  0.00     0.074 A 
HETATM   20  C17 UNL     1      -3.811   3.680  12.298  1.00  0.00     0.086 A 
HETATM   21  O4  UNL     1      -5.077   3.885  12.700  1.00  0.00    -0.345 OA
HETATM   22  C18 UNL     1      -5.541   4.930  13.312  1.00  0.00     0.305 C 
ENDROOT
BRANCH  22  23
HETATM   23  O5  UNL     1      -5.850   6.065  12.485  1.00  0.00    -0.287 OA
BRANCH  23  24
HETATM   24  C19 UNL     1      -7.034   6.764  12.572  1.00  0.00     0.257 C 
HETATM   25  C20 UNL     1      -7.307   8.006  11.828  1.00  0.00     0.126 C 
HETATM   26  O6  UNL     1      -7.923   6.295  13.339  1.00  0.00    -0.266 OA
ENDBRANCH  23  24
ENDBRANCH  22  23
BRANCH   1  27
HETATM   27  O1  UNL     1      -4.964   6.542  14.834  1.00  0.00    -0.380 OA
HETATM   28  C1  UNL     1      -5.637   6.402  15.995  1.00  0.00     0.202 C 
ENDBRANCH   1  27
TORSDOF 3
ENDMDL
MODEL 5
REMARK VINA RESULT: -7.038858278      1.536      1.792
REMARK  3 active torsions:
REMARK  status: ('A' for Active; 'I' for Inactive)
REMARK    1  A    between atoms: O1_2  and  C2_3 
REMARK    2  A    between atoms: C18_24  and  O5_25 
REMARK    3  A    between atoms: O5_25  and  C19_26 
ROOT
HETATM    1  C2  UNL     1      -3.978   2.827  14.668  1.00  0.00     0.114 C 
HETATM    2  C3  UNL     1      -5.434   2.991  14.222  1.00  0.00     0.051 C 
HETATM    3  C4  UNL     1      -5.425   4.172  13.224  1.00  0.00     0.025 C 
HETATM    4  C5  UNL     1      -5.391   5.305  14.223  1.00  0.00     0.008 C 
HETATM    5  C6  UNL     1      -4.312   5.157  15.258  1.00  0.00     0.008 C 
HETATM    6  C7  UNL     1      -3.295   4.113  15.021  1.00  0.00     0.025 C 
HETATM    7  C8  UNL     1      -2.106   4.532  14.225  1.00  0.00     0.010 C 
HETATM    8  C9  UNL     1      -2.200   5.622  13.250  1.00  0.00     0.033 C 
HETATM    9  C10 UNL     1      -2.539   5.429  11.847  1.00  0.00     0.134 C 
HETATM   10  O2  UNL     1      -2.062   4.421  11.102  1.00  0.00    -0.370 OA
HETATM   11  C11 UNL     1      -2.994   4.189  10.055  1.00  0.00     0.221 C 
HETATM   12  C12 UNL     1      -2.880   5.341   9.133  1.00  0.00     0.247 C 
HETATM   13  O3  UNL     1      -1.967   5.266   8.293  1.00  0.00    -0.271 OA
HETATM   14  N1  UNL     1      -3.694   6.489   9.122  1.00  0.00    -0.359 N 
ATOM     15  H1  UNL     1      -3.365   7.260   8.539  1.00  0.00     0.162 HD
HETATM   16  C13 UNL     1      -4.916   6.717   9.815  1.00  0.00     0.123 C 
HETATM   17  C14 UNL     1      -4.885   6.396  11.279  1.00  0.00     0.035 C 
HETATM   18  C15 UNL     1      -4.034   5.306  11.718  1.00  0.00     0.029 A 
HETATM   19  C16 UNL     1      -4.353   4.195  10.775  1.00  0.00     0.074 A 
HETATM   20  C17 UNL     1      -4.379   3.995  12.275  1.00  0.00     0.086 A 
HETATM   21  O4  UNL     1      -3.419   3.074  12.468  1.00  0.00    -0.345 OA
HETATM   22  C18 UNL     1      -3.372   2.182  13.409  1.00  0.00     0.305 C 
ENDROOT
BRANCH  22  23
HETATM   23  O5  UNL     1      -4.161   0.998  13.199  1.00  0.00    -0.287 OA
BRANCH  23  24
HETATM   24  C19 UNL     1      -4.239   0.346  11.987  1.00  0.00     0.257 C 
HETATM   25  C20 UNL     1      -3.228  -0.612  11.508  1.00  0.00     0.126 C 
HETATM   26  O6  UNL     1      -5.242   0.600  11.261  1.00  0.00    -0.266 OA
ENDBRANCH  23  24
ENDBRANCH  22  23
BRANCH   1  27
HETATM   27  O1  UNL     1      -3.926   1.832  15.603  1.00  0.00    -0.380 OA
HETATM   28  C1  UNL     1      -4.999   1.626  16.393  1.00  0.00     0.202 C 
ENDBRANCH   1  27
TORSDOF 3
ENDMDL
