MODEL 1
REMARK VINA RESULT: -7.670452606      0.000      0.000
REMARK  5 active torsions:
REMARK  status: ('A' for Active; 'I' for Inactive)
REMARK    1  A    between atoms: C2_2  and  O1_5 
REMARK    2  A    between atoms: O1_5  and  C5_6 
REMARK       I    between atoms: C5_6  and  N1_8 
REMARK    3  A    between atoms: C8_11  and  C9_12 
REMARK       I    between atoms: C9_12  and  N2_14 
REMARK    4  A    between atoms: N2_14  and  C10_16 
REMARK    5  A    between atoms: C10_16  and  C11_17 
ROOT
HETATM    1  C5  UNL     1      -4.309   1.127  14.072  1.00  0.00     0.364 C 
HETATM    2  O2  UNL     1      -4.698   0.060  14.665  1.00  0.00    -0.238 OA
HETATM    3  N1  UNL     1      -4.798   2.400  14.447  1.00  0.00    -0.315 N 
HETATM    4  C6  UNL     1      -5.754   2.627  15.502  1.00  0.00     0.130 C 
HETATM    5  C7  UNL     1      -6.418   3.941  15.155  1.00  0.00     0.036 C 
HETATM    6  C8  UNL     1      -5.261   4.713  14.545  1.00  0.00     0.110 C 
HETATM    7  C15 UNL     1      -4.423   3.658  13.844  1.00  0.00     0.073 C 
HETATM    8  C16 UNL     1      -2.963   3.895  14.065  1.00  0.00     0.060 C 
HETATM    9  C17 UNL     1      -2.378   3.999  12.708  1.00  0.00     0.170 C 
HETATM   10  O6  UNL     1      -3.372   4.007  11.777  1.00  0.00    -0.389 OA
HETATM   11  C18 UNL     1      -4.557   3.658  12.362  1.00  0.00     0.199 C 
ENDROOT
BRANCH   6  12
HETATM   12  C9  UNL     1      -5.795   5.725  13.605  1.00  0.00     0.224 C 
HETATM   13  O3  UNL     1      -7.029   5.786  13.440  1.00  0.00    -0.273 OA
HETATM   14  N2  UNL     1      -4.931   6.604  12.910  1.00  0.00    -0.358 N 
ATOM     15  H2  UNL     1      -3.931   6.507  13.084  1.00  0.00     0.162 HD
BRANCH  14  16
HETATM   16  C10 UNL     1      -5.335   7.615  11.985  1.00  0.00     0.156 C 
BRANCH  16  17
HETATM   17  C11 UNL     1      -5.414   7.071  10.589  1.00  0.00     0.163 C 
HETATM   18  C12 UNL     1      -4.728   8.013   9.617  1.00  0.00     0.201 C 
HETATM   19  O4  UNL     1      -5.640   8.820   8.945  1.00  0.00    -0.386 OA
HETATM   20  C13 UNL     1      -6.570   8.075   8.229  1.00  0.00     0.193 C 
HETATM   21  C14 UNL     1      -6.795   6.710   8.858  1.00  0.00     0.194 C 
HETATM   22  O5  UNL     1      -6.743   6.854  10.229  1.00  0.00    -0.380 OA
ENDBRANCH  16  17
ENDBRANCH  14  16
ENDBRANCH   6  12
BRANCH   1  23
HETATM   23  O1  UNL     1      -3.392   0.897  13.061  1.00  0.00    -0.294 OA
BRANCH  23  24
HETATM   24  C2  UNL     1      -3.648   0.223  11.870  1.00  0.00     0.061 C 
HETATM   25  C1  UNL     1      -3.472  -1.274  11.976  1.00  0.00     0.046 C 
HETATM   26  C3  UNL     1      -4.993   0.502  11.275  1.00  0.00     0.046 C 
HETATM   27  C4  UNL     1      -2.598   0.698  10.856  1.00  0.00     0.046 C 
ENDBRANCH  23  24
ENDBRANCH   1  23
TORSDOF 5
ENDMDL
MODEL 2
REMARK VINA RESULT: -7.444365710      1.075      1.190
REMARK  5 active torsions:
REMARK  status: ('A' for Active; 'I' for Inactive)
REMARK    1  A    between atoms: C2_2  and  O1_5 
REMARK    2  A    between atoms: O1_5  and  C5_6 
REMARK       I    between atoms: C5_6  and  N1_8 
REMARK    3  A    between atoms: C8_11  and  C9_12 
REMARK       I    between atoms: C9_12  and  N2_14 
REMARK    4  A    between atoms: N2_14  and  C10_16 
REMARK    5  A    between atoms: C10_16  and  C11_17 
ROOT
HETATM    1  C5  UNL     1      -4.217   1.280  13.960  1.00  0.00     0.364 C 
HETATM    2  O2  UNL     1      -4.728   0.173  14.352  1.00  0.00    -0.238 OA
HETATM    3  N1  UNL     1      -4.653   2.520  14.482  1.00  0.00    -0.315 N 
HETATM    4  C6  UNL     1      -5.685   2.667  15.478  1.00  0.00     0.130 C 
HETATM    5  C7  UNL     1      -6.226   4.067  15.281  1.00  0.00     0.036 C 
HETATM    6  C8  UNL     1      -4.969   4.824  14.889  1.00  0.00     0.110 C 
HETATM    7  C15 UNL     1      -4.142   3.818  14.108  1.00  0.00     0.073 C 
HETATM    8  C16 UNL     1      -2.696   3.905  14.480  1.00  0.00     0.060 C 
HETATM    9  C17 UNL     1      -1.984   4.158  13.205  1.00  0.00     0.170 C 
HETATM   10  O6  UNL     1      -2.885   4.378  12.210  1.00  0.00    -0.389 OA
HETATM   11  C18 UNL     1      -4.140   4.043  12.636  1.00  0.00     0.199 C 
ENDROOT
BRANCH   6  12
HETATM   12  C9  UNL     1      -5.347   6.000  14.073  1.00  0.00     0.224 C 
HETATM   13  O3  UNL     1      -4.523   6.928  13.955  1.00  0.00    -0.273 OA
HETATM   14  N2  UNL     1      -6.610   6.075  13.441  1.00  0.00    -0.358 N 
ATOM     15  H2  UNL     1      -7.244   5.287  13.573  1.00  0.00     0.162 HD
BRANCH  14  16
HETATM   16  C10 UNL     1      -7.078   7.156  12.632  1.00  0.00     0.156 C 
BRANCH  16  17
HETATM   17  C11 UNL     1      -6.219   7.333  11.415  1.00  0.00     0.163 C 
HETATM   18  C12 UNL     1      -6.892   8.267  10.427  1.00  0.00     0.201 C 
HETATM   19  O4  UNL     1      -7.529   7.571   9.406  1.00  0.00    -0.386 OA
HETATM   20  C13 UNL     1      -6.650   6.762   8.695  1.00  0.00     0.193 C 
HETATM   21  C14 UNL     1      -5.478   6.321   9.554  1.00  0.00     0.194 C 
HETATM   22  O5  UNL     1      -5.943   6.096  10.834  1.00  0.00    -0.380 OA
ENDBRANCH  16  17
ENDBRANCH  14  16
ENDBRANCH   6  12
BRANCH   1  23
HETATM   23  O1  UNL     1      -3.228   1.127  13.004  1.00  0.00    -0.294 OA
BRANCH  23  24
HETATM   24  C2  UNL     1      -3.399   0.561  11.743  1.00  0.00     0.061 C 
HETATM   25  C1  UNL     1      -3.154  -0.931  11.716  1.00  0.00     0.046 C 
HETATM   26  C3  UNL     1      -4.728   0.835  11.114  1.00  0.00     0.046 C 
HETATM   27  C4  UNL     1      -2.330   1.178  10.831  1.00  0.00     0.046 C 
ENDBRANCH  23  24
ENDBRANCH   1  23
TORSDOF 5
ENDMDL
MODEL 3
REMARK VINA RESULT: -7.254274978      0.987      1.409
REMARK  5 active torsions:
REMARK  status: ('A' for Active; 'I' for Inactive)
REMARK    1  A    between atoms: C2_2  and  O1_5 
REMARK    2  A    between atoms: O1_5  and  C5_6 
REMARK       I    between atoms: C5_6  and  N1_8 
REMARK    3  A    between atoms: C8_11  and  C9_12 
REMARK       I    between atoms: C9_12  and  N2_14 
REMARK    4  A    between atoms: N2_14  and  C10_16 
REMARK    5  A    between atoms: C10_16  and  C11_17 
ROOT
HETATM    1  C5  UNL     1      -4.299   1.067  14.093  1.00  0.00     0.364 C 
HETATM    2  O2  UNL     1      -4.660  -0.001  14.701  1.00  0.00    -0.238 OA
HETATM    3  N1  UNL     1      -4.789   2.336  14.478  1.00  0.00    -0.315 N 
HETATM    4  C6  UNL     1      -5.717   2.558  15.559  1.00  0.00     0.130 C 
HETATM    5  C7  UNL     1      -6.403   3.865  15.227  1.00  0.00     0.036 C 
HETATM    6  C8  UNL     1      -5.271   4.645  14.581  1.00  0.00     0.110 C 
HETATM    7  C15 UNL     1      -4.443   3.595  13.861  1.00  0.00     0.073 C 
HETATM    8  C16 UNL     1      -2.980   3.847  14.040  1.00  0.00     0.060 C 
HETATM    9  C17 UNL     1      -2.434   3.952  12.666  1.00  0.00     0.170 C 
HETATM   10  O6  UNL     1      -3.454   3.947  11.764  1.00  0.00    -0.389 OA
HETATM   11  C18 UNL     1      -4.619   3.589  12.382  1.00  0.00     0.199 C 
ENDROOT
BRANCH   6  12
HETATM   12  C9  UNL     1      -5.841   5.649  13.654  1.00  0.00     0.224 C 
HETATM   13  O3  UNL     1      -7.069   5.626  13.438  1.00  0.00    -0.273 OA
HETATM   14  N2  UNL     1      -5.018   6.613  13.025  1.00  0.00    -0.358 N 
ATOM     15  H2  UNL     1      -4.021   6.583  13.238  1.00  0.00     0.162 HD
BRANCH  14  16
HETATM   16  C10 UNL     1      -5.459   7.624  12.118  1.00  0.00     0.156 C 
BRANCH  16  17
HETATM   17  C11 UNL     1      -4.736   7.527  10.806  1.00  0.00     0.163 C 
HETATM   18  C12 UNL     1      -5.663   6.989   9.732  1.00  0.00     0.201 C 
HETATM   19  O4  UNL     1      -5.463   5.632   9.507  1.00  0.00    -0.386 OA
HETATM   20  C13 UNL     1      -4.158   5.351   9.120  1.00  0.00     0.193 C 
HETATM   21  C14 UNL     1      -3.180   6.374   9.672  1.00  0.00     0.194 C 
HETATM   22  O5  UNL     1      -3.600   6.731  10.938  1.00  0.00    -0.380 OA
ENDBRANCH  16  17
ENDBRANCH  14  16
ENDBRANCH   6  12
BRANCH   1  23
HETATM   23  O1  UNL     1      -3.408   0.842  13.058  1.00  0.00    -0.294 OA
BRANCH  23  24
HETATM   24  C2  UNL     1      -3.698   0.181  11.867  1.00  0.00     0.061 C 
HETATM   25  C1  UNL     1      -3.561  -1.321  11.964  1.00  0.00     0.046 C 
HETATM   26  C3  UNL     1      -5.042   0.499  11.291  1.00  0.00     0.046 C 
HETATM   27  C4  UNL     1      -2.648   0.633  10.843  1.00  0.00     0.046 C 
ENDBRANCH  23  24
ENDBRANCH   1  23
TORSDOF 5
ENDMDL
MODEL 4
REMARK VINA RESULT: -7.178299729      1.676      2.306
REMARK  5 active torsions:
REMARK  status: ('A' for Active; 'I' for Inactive)
REMARK    1  A    between atoms: C2_2  and  O1_5 
REMARK    2  A    between atoms: O1_5  and  C5_6 
REMARK       I    between atoms: C5_6  and  N1_8 
REMARK    3  A    between atoms: C8_11  and  C9_12 
REMARK       I    between atoms: C9_12  and  N2_14 
REMARK    4  A    between atoms: N2_14  and  C10_16 
REMARK    5  A    between atoms: C10_16  and  C11_17 
ROOT
HETATM    1  C5  UNL     1      -4.315   1.084  14.041  1.00  0.00     0.364 C 
HETATM    2  O2  UNL     1      -4.738   0.022  14.618  1.00  0.00    -0.238 OA
HETATM    3  N1  UNL     1      -4.785   2.364  14.416  1.00  0.00    -0.315 N 
HETATM    4  C6  UNL     1      -5.758   2.604  15.452  1.00  0.00     0.130 C 
HETATM    5  C7  UNL     1      -6.387   3.934  15.102  1.00  0.00     0.036 C 
HETATM    6  C8  UNL     1      -5.201   4.686  14.521  1.00  0.00     0.110 C 
HETATM    7  C15 UNL     1      -4.372   3.618  13.831  1.00  0.00     0.073 C 
HETATM    8  C16 UNL     1      -2.912   3.823  14.084  1.00  0.00     0.060 C 
HETATM    9  C17 UNL     1      -2.296   3.925  12.740  1.00  0.00     0.170 C 
HETATM   10  O6  UNL     1      -3.270   3.960  11.789  1.00  0.00    -0.389 OA
HETATM   11  C18 UNL     1      -4.475   3.632  12.345  1.00  0.00     0.199 C 
ENDROOT
BRANCH   6  12
HETATM   12  C9  UNL     1      -5.695   5.715  13.579  1.00  0.00     0.224 C 
HETATM   13  O3  UNL     1      -6.920   5.780  13.361  1.00  0.00    -0.273 OA
HETATM   14  N2  UNL     1      -4.802   6.607  12.938  1.00  0.00    -0.358 N 
ATOM     15  H2  UNL     1      -3.810   6.507  13.154  1.00  0.00     0.162 HD
BRANCH  14  16
HETATM   16  C10 UNL     1      -5.165   7.635  12.016  1.00  0.00     0.156 C 
BRANCH  16  17
HETATM   17  C11 UNL     1      -3.950   8.289  11.428  1.00  0.00     0.163 C 
HETATM   18  C12 UNL     1      -2.694   7.777  12.109  1.00  0.00     0.201 C 
HETATM   19  O4  UNL     1      -2.232   8.661  13.077  1.00  0.00    -0.386 OA
HETATM   20  C13 UNL     1      -1.946   9.914  12.549  1.00  0.00     0.193 C 
HETATM   21  C14 UNL     1      -2.794  10.210  11.323  1.00  0.00     0.194 C 
HETATM   22  O5  UNL     1      -4.049   9.676  11.530  1.00  0.00    -0.380 OA
ENDBRANCH  16  17
ENDBRANCH  14  16
ENDBRANCH   6  12
BRANCH   1  23
HETATM   23  O1  UNL     1      -3.381   0.842  13.048  1.00  0.00    -0.294 OA
BRANCH  23  24
HETATM   24  C2  UNL     1      -3.630   0.195  11.840  1.00  0.00     0.061 C 
HETATM   25  C1  UNL     1      -3.491  -1.307  11.924  1.00  0.00     0.046 C 
HETATM   26  C3  UNL     1      -4.956   0.516  11.226  1.00  0.00     0.046 C 
HETATM   27  C4  UNL     1      -2.550   0.664  10.856  1.00  0.00     0.046 C 
ENDBRANCH  23  24
ENDBRANCH   1  23
TORSDOF 5
ENDMDL
MODEL 5
REMARK VINA RESULT: -7.121175090      2.001      7.110
REMARK  5 active torsions:
REMARK  status: ('A' for Active; 'I' for Inactive)
REMARK    1  A    between atoms: C2_2  and  O1_5 
REMARK    2  A    between atoms: O1_5  and  C5_6 
REMARK       I    between atoms: C5_6  and  N1_8 
REMARK    3  A    between atoms: C8_11  and  C9_12 
REMARK       I    between atoms: C9_12  and  N2_14 
REMARK    4  A    between atoms: N2_14  and  C10_16 
REMARK    5  A    between atoms: C10_16  and  C11_17 
ROOT
HETATM    1  C5  UNL     1      -4.874   5.907  10.300  1.00  0.00     0.364 C 
HETATM    2  O2  UNL     1      -4.630   6.316   9.111  1.00  0.00    -0.238 OA
HETATM    3  N1  UNL     1      -3.976   5.059  10.987  1.00  0.00    -0.315 N 
HETATM    4  C6  UNL     1      -2.730   4.578  10.442  1.00  0.00     0.130 C 
HETATM    5  C7  UNL     1      -2.436   3.301  11.199  1.00  0.00     0.036 C 
HETATM    6  C8  UNL     1      -2.966   3.640  12.581  1.00  0.00     0.110 C 
HETATM    7  C15 UNL     1      -4.157   4.546  12.325  1.00  0.00     0.073 C 
HETATM    8  C16 UNL     1      -4.185   5.686  13.291  1.00  0.00     0.060 C 
HETATM    9  C17 UNL     1      -5.508   5.602  13.952  1.00  0.00     0.170 C 
HETATM   10  O6  UNL     1      -6.139   4.456  13.575  1.00  0.00    -0.389 OA
HETATM   11  C18 UNL     1      -5.478   3.887  12.523  1.00  0.00     0.199 C 
ENDROOT
BRANCH   6  12
HETATM   12  C9  UNL     1      -3.346   2.389  13.275  1.00  0.00     0.224 C 
HETATM   13  O3  UNL     1      -3.260   1.315  12.648  1.00  0.00    -0.273 OA
HETATM   14  N2  UNL     1      -3.798   2.405  14.616  1.00  0.00    -0.358 N 
ATOM     15  H2  UNL     1      -3.849   3.312  15.078  1.00  0.00     0.162 HD
BRANCH  14  16
HETATM   16  C10 UNL     1      -4.188   1.263  15.380  1.00  0.00     0.156 C 
BRANCH  16  17
HETATM   17  C11 UNL     1      -5.026   1.662  16.559  1.00  0.00     0.163 C 
HETATM   18  C12 UNL     1      -5.535   0.430  17.285  1.00  0.00     0.201 C 
HETATM   19  O4  UNL     1      -6.847   0.128  16.938  1.00  0.00    -0.386 OA
HETATM   20  C13 UNL     1      -7.717   1.175  17.219  1.00  0.00     0.193 C 
HETATM   21  C14 UNL     1      -7.009   2.518  17.169  1.00  0.00     0.194 C 
HETATM   22  O5  UNL     1      -6.080   2.477  16.149  1.00  0.00    -0.380 OA
ENDBRANCH  16  17
ENDBRANCH  14  16
ENDBRANCH   6  12
BRANCH   1  23
HETATM   23  O1  UNL     1      -6.072   6.375  10.812  1.00  0.00    -0.294 OA
BRANCH  23  24
HETATM   24  C2  UNL     1      -6.427   7.714  10.952  1.00  0.00     0.061 C 
HETATM   25  C1  UNL     1      -5.269   8.606  11.333  1.00  0.00     0.046 C 
HETATM   26  C3  UNL     1      -7.109   8.304   9.758  1.00  0.00     0.046 C 
HETATM   27  C4  UNL     1      -7.418   7.790  12.122  1.00  0.00     0.046 C 
ENDBRANCH  23  24
ENDBRANCH   1  23
TORSDOF 5
ENDMDL
