MODEL 1
REMARK VINA RESULT: -6.776213953      0.000      0.000
REMARK  7 active torsions:
REMARK  status: ('A' for Active; 'I' for Inactive)
REMARK    1  A    between atoms: C2_2  and  N1_5 
REMARK    2  A    between atoms: C5_7  and  O1_8 
REMARK    3  A    between atoms: C5_7  and  C17_25 
REMARK    4  A    between atoms: O1_8  and  C6_9 
REMARK    5  A    between atoms: C6_9  and  C7_10 
REMARK       I    between atoms: C7_10  and  N2_12 
REMARK       I    between atoms: N3_15  and  C10_16 
REMARK    6  A    between atoms: C10_16  and  O4_18 
REMARK    7  A    between atoms: O4_18  and  C11_19 
ROOT
HETATM    1  C7  UNL     1      -1.298   3.009  11.376  1.00  0.00     0.244 C 
HETATM    2  O2  UNL     1      -0.350   2.973  12.202  1.00  0.00    -0.271 OA
HETATM    3  N2  UNL     1      -1.937   4.243  11.026  1.00  0.00    -0.347 N 
HETATM    4  C8  UNL     1      -1.464   5.459  11.647  1.00  0.00     0.146 C 
HETATM    5  C9  UNL     1      -2.653   6.045  12.408  1.00  0.00     0.148 C 
HETATM    6  N3  UNL     1      -3.703   6.270  11.447  1.00  0.00    -0.325 N 
HETATM    7  C10 UNL     1      -4.229   7.571  11.301  1.00  0.00     0.363 C 
HETATM    8  O3  UNL     1      -3.795   8.526  11.993  1.00  0.00    -0.238 OA
HETATM    9  C15 UNL     1      -4.162   5.133  10.679  1.00  0.00     0.148 C 
HETATM   10  C16 UNL     1      -3.025   4.336  10.085  1.00  0.00     0.146 C 
ENDROOT
BRANCH   1  11
HETATM   11  C6  UNL     1      -1.768   1.759  10.751  1.00  0.00     0.280 C 
BRANCH  11  12
HETATM   12  O1  UNL     1      -2.195   0.879  11.768  1.00  0.00    -0.328 OA
BRANCH  12  13
HETATM   13  C5  UNL     1      -3.378   1.188  12.469  1.00  0.00     0.147 C 
HETATM   14  N1  UNL     1      -3.253   2.069  13.379  1.00  0.00    -0.364 N 
ATOM     15  H1  UNL     1      -2.317   2.455  13.503  1.00  0.00     0.162 HD
BRANCH  14  16
HETATM   16  C2  UNL     1      -4.265   2.584  14.249  1.00  0.00     0.021 C 
HETATM   17  C1  UNL     1      -5.404   3.157  13.423  1.00  0.00     0.037 C 
HETATM   18  C3  UNL     1      -4.744   1.526  15.207  1.00  0.00     0.037 C 
HETATM   19  C4  UNL     1      -3.663   3.700  15.121  1.00  0.00     0.037 C 
ENDBRANCH  14  16
BRANCH  13  20
HETATM   20  C17 UNL     1      -4.651   0.504  12.127  1.00  0.00     0.285 A 
HETATM   21  C18 UNL     1      -4.709  -0.594  11.152  1.00  0.00     0.274 A 
HETATM   22  N4  UNL     1      -5.104   0.716  10.739  1.00  0.00    -0.059 N 
ATOM     23  H42 UNL     1      -5.942   1.110  10.312  1.00  0.00     0.278 HD
ATOM     24  H41 UNL     1      -4.825   1.342   9.984  1.00  0.00     0.278 HD
ENDBRANCH  13  20
ENDBRANCH  12  13
ENDBRANCH  11  12
ENDBRANCH   1  11
BRANCH   7  25
HETATM   25  O4  UNL     1      -5.241   7.886  10.401  1.00  0.00    -0.294 OA
BRANCH  25  26
HETATM   26  C11 UNL     1      -6.514   8.332  10.814  1.00  0.00     0.061 C 
HETATM   27  C12 UNL     1      -6.567   9.809  11.047  1.00  0.00     0.046 C 
HETATM   28  C13 UNL     1      -7.021   7.605  12.030  1.00  0.00     0.046 C 
HETATM   29  C14 UNL     1      -7.476   8.012   9.674  1.00  0.00     0.046 C 
ENDBRANCH  25  26
ENDBRANCH   7  25
TORSDOF 7
ENDMDL
MODEL 2
REMARK VINA RESULT: -6.635452682      2.671      6.854
REMARK  7 active torsions:
REMARK  status: ('A' for Active; 'I' for Inactive)
REMARK    1  A    between atoms: C2_2  and  N1_5 
REMARK    2  A    between atoms: C5_7  and  O1_8 
REMARK    3  A    between atoms: C5_7  and  C17_25 
REMARK    4  A    between atoms: O1_8  and  C6_9 
REMARK    5  A    between atoms: C6_9  and  C7_10 
REMARK       I    between atoms: C7_10  and  N2_12 
REMARK       I    between atoms: N3_15  and  C10_16 
REMARK    6  A    between atoms: C10_16  and  O4_18 
REMARK    7  A    between atoms: O4_18  and  C11_19 
ROOT
HETATM    1  C7  UNL     1      -3.527   3.761  11.150  1.00  0.00     0.244 C 
HETATM    2  O2  UNL     1      -3.275   3.057  10.138  1.00  0.00    -0.271 OA
HETATM    3  N2  UNL     1      -3.578   3.190  12.463  1.00  0.00    -0.347 N 
HETATM    4  C8  UNL     1      -3.330   1.774  12.604  1.00  0.00     0.146 C 
HETATM    5  C9  UNL     1      -4.594   1.175  13.221  1.00  0.00     0.148 C 
HETATM    6  N3  UNL     1      -4.809   1.841  14.480  1.00  0.00    -0.325 N 
HETATM    7  C10 UNL     1      -4.878   1.070  15.659  1.00  0.00     0.363 C 
HETATM    8  O3  UNL     1      -4.754  -0.181  15.623  1.00  0.00    -0.238 OA
HETATM    9  C15 UNL     1      -4.944   3.282  14.460  1.00  0.00     0.148 C 
HETATM   10  C16 UNL     1      -3.862   3.955  13.652  1.00  0.00     0.146 C 
ENDROOT
BRANCH   1  11
HETATM   11  C6  UNL     1      -3.777   5.205  10.988  1.00  0.00     0.280 C 
BRANCH  11  12
HETATM   12  O1  UNL     1      -4.393   5.419   9.736  1.00  0.00    -0.328 OA
BRANCH  12  13
HETATM   13  C5  UNL     1      -5.506   6.280   9.675  1.00  0.00     0.147 C 
HETATM   14  N1  UNL     1      -5.662   7.035  10.688  1.00  0.00    -0.364 N 
ATOM     15  H1  UNL     1      -4.969   6.938  11.430  1.00  0.00     0.162 HD
BRANCH  14  16
HETATM   16  C2  UNL     1      -6.690   8.004  10.913  1.00  0.00     0.021 C 
HETATM   17  C1  UNL     1      -6.071   9.385  11.034  1.00  0.00     0.037 C 
HETATM   18  C3  UNL     1      -7.732   7.948   9.828  1.00  0.00     0.037 C 
HETATM   19  C4  UNL     1      -7.427   7.666  12.221  1.00  0.00     0.037 C 
ENDBRANCH  14  16
BRANCH  13  20
HETATM   20  C17 UNL     1      -6.400   6.266   8.490  1.00  0.00     0.285 A 
HETATM   21  C18 UNL     1      -6.339   5.201   7.480  1.00  0.00     0.274 A 
HETATM   22  N4  UNL     1      -5.707   6.451   7.201  1.00  0.00    -0.059 N 
ATOM     23  H42 UNL     1      -5.772   7.133   6.446  1.00  0.00     0.278 HD
ATOM     24  H41 UNL     1      -4.765   6.732   6.930  1.00  0.00     0.278 HD
ENDBRANCH  13  20
ENDBRANCH  12  13
ENDBRANCH  11  12
ENDBRANCH   1  11
BRANCH   7  25
HETATM   25  O4  UNL     1      -5.082   1.621  16.919  1.00  0.00    -0.294 OA
BRANCH  25  26
HETATM   26  C11 UNL     1      -6.367   1.802  17.472  1.00  0.00     0.061 C 
HETATM   27  C12 UNL     1      -7.297   0.669  17.167  1.00  0.00     0.046 C 
HETATM   28  C13 UNL     1      -6.999   3.105  17.065  1.00  0.00     0.046 C 
HETATM   29  C14 UNL     1      -6.185   1.852  18.985  1.00  0.00     0.046 C 
ENDBRANCH  25  26
ENDBRANCH   7  25
TORSDOF 7
ENDMDL
MODEL 3
REMARK VINA RESULT: -6.612488068      2.688      5.862
REMARK  7 active torsions:
REMARK  status: ('A' for Active; 'I' for Inactive)
REMARK    1  A    between atoms: C2_2  and  N1_5 
REMARK    2  A    between atoms: C5_7  and  O1_8 
REMARK    3  A    between atoms: C5_7  and  C17_25 
REMARK    4  A    between atoms: O1_8  and  C6_9 
REMARK    5  A    between atoms: C6_9  and  C7_10 
REMARK       I    between atoms: C7_10  and  N2_12 
REMARK       I    between atoms: N3_15  and  C10_16 
REMARK    6  A    between atoms: C10_16  and  O4_18 
REMARK    7  A    between atoms: O4_18  and  C11_19 
ROOT
HETATM    1  C7  UNL     1      -4.200   4.640  11.425  1.00  0.00     0.244 C 
HETATM    2  O2  UNL     1      -4.960   4.575  10.425  1.00  0.00    -0.271 OA
HETATM    3  N2  UNL     1      -2.785   4.809  11.277  1.00  0.00    -0.347 N 
HETATM    4  C8  UNL     1      -2.243   4.905   9.941  1.00  0.00     0.146 C 
HETATM    5  C9  UNL     1      -1.260   3.744   9.790  1.00  0.00     0.148 C 
HETATM    6  N3  UNL     1      -0.263   3.895  10.819  1.00  0.00    -0.325 N 
HETATM    7  C10 UNL     1       1.094   3.992  10.446  1.00  0.00     0.363 C 
HETATM    8  O3  UNL     1       1.439   3.950   9.238  1.00  0.00    -0.238 OA
HETATM    9  C15 UNL     1      -0.719   3.938  12.191  1.00  0.00     0.148 C 
HETATM   10  C16 UNL     1      -1.873   4.890  12.391  1.00  0.00     0.146 C 
ENDROOT
BRANCH   1  11
HETATM   11  C6  UNL     1      -4.769   4.541  12.781  1.00  0.00     0.280 C 
BRANCH  11  12
HETATM   12  O1  UNL     1      -5.497   3.335  12.878  1.00  0.00    -0.328 OA
BRANCH  12  13
HETATM   13  C5  UNL     1      -4.781   2.121  12.903  1.00  0.00     0.147 C 
HETATM   14  N1  UNL     1      -4.559   1.601  11.762  1.00  0.00    -0.364 N 
ATOM     15  H1  UNL     1      -4.919   2.115  10.958  1.00  0.00     0.162 HD
BRANCH  14  16
HETATM   16  C2  UNL     1      -3.865   0.385  11.471  1.00  0.00     0.021 C 
HETATM   17  C1  UNL     1      -2.367   0.633  11.496  1.00  0.00     0.037 C 
HETATM   18  C3  UNL     1      -4.269  -0.709  12.423  1.00  0.00     0.037 C 
HETATM   19  C4  UNL     1      -4.270  -0.106  10.069  1.00  0.00     0.037 C 
ENDBRANCH  14  16
BRANCH  13  20
HETATM   20  C17 UNL     1      -4.342   1.537  14.195  1.00  0.00     0.285 A 
HETATM   21  C18 UNL     1      -4.881   1.997  15.482  1.00  0.00     0.274 A 
HETATM   22  N4  UNL     1      -3.599   2.468  15.064  1.00  0.00    -0.059 N 
ATOM     23  H42 UNL     1      -2.667   2.470  15.479  1.00  0.00     0.278 HD
ATOM     24  H41 UNL     1      -3.183   3.389  14.934  1.00  0.00     0.278 HD
ENDBRANCH  13  20
ENDBRANCH  12  13
ENDBRANCH  11  12
ENDBRANCH   1  11
BRANCH   7  25
HETATM   25  O4  UNL     1       2.127   4.140  11.366  1.00  0.00    -0.294 OA
BRANCH  25  26
HETATM   26  C11 UNL     1       2.802   5.363  11.561  1.00  0.00     0.061 C 
HETATM   27  C12 UNL     1       1.877   6.539  11.605  1.00  0.00     0.046 C 
HETATM   28  C13 UNL     1       3.883   5.603  10.542  1.00  0.00     0.046 C 
HETATM   29  C14 UNL     1       3.489   5.268  12.920  1.00  0.00     0.046 C 
ENDBRANCH  25  26
ENDBRANCH   7  25
TORSDOF 7
ENDMDL
MODEL 4
REMARK VINA RESULT: -6.575309806      2.798      7.087
REMARK  7 active torsions:
REMARK  status: ('A' for Active; 'I' for Inactive)
REMARK    1  A    between atoms: C2_2  and  N1_5 
REMARK    2  A    between atoms: C5_7  and  O1_8 
REMARK    3  A    between atoms: C5_7  and  C17_25 
REMARK    4  A    between atoms: O1_8  and  C6_9 
REMARK    5  A    between atoms: C6_9  and  C7_10 
REMARK       I    between atoms: C7_10  and  N2_12 
REMARK       I    between atoms: N3_15  and  C10_16 
REMARK    6  A    between atoms: C10_16  and  O4_18 
REMARK    7  A    between atoms: O4_18  and  C11_19 
ROOT
HETATM    1  C7  UNL     1      -3.191   3.517  11.260  1.00  0.00     0.244 C 
HETATM    2  O2  UNL     1      -2.980   2.810  10.241  1.00  0.00    -0.271 OA
HETATM    3  N2  UNL     1      -3.316   2.932  12.561  1.00  0.00    -0.347 N 
HETATM    4  C8  UNL     1      -3.192   1.498  12.682  1.00  0.00     0.146 C 
HETATM    5  C9  UNL     1      -4.514   0.998  13.265  1.00  0.00     0.148 C 
HETATM    6  N3  UNL     1      -4.697   1.661  14.532  1.00  0.00    -0.325 N 
HETATM    7  C10 UNL     1      -4.854   0.879  15.695  1.00  0.00     0.363 C 
HETATM    8  O3  UNL     1      -4.836  -0.377  15.640  1.00  0.00    -0.238 OA
HETATM    9  C15 UNL     1      -4.708   3.107  14.535  1.00  0.00     0.148 C 
HETATM   10  C16 UNL     1      -3.557   3.699  13.758  1.00  0.00     0.146 C 
ENDROOT
BRANCH   1  11
HETATM   11  C6  UNL     1      -3.314   4.980  11.119  1.00  0.00     0.280 C 
BRANCH  11  12
HETATM   12  O1  UNL     1      -4.672   5.335  11.273  1.00  0.00    -0.328 OA
BRANCH  12  13
HETATM   13  C5  UNL     1      -5.319   5.982  10.202  1.00  0.00     0.147 C 
HETATM   14  N1  UNL     1      -5.309   5.346   9.099  1.00  0.00    -0.364 N 
ATOM     15  H1  UNL     1      -4.836   4.442   9.108  1.00  0.00     0.162 HD
BRANCH  14  16
HETATM   16  C2  UNL     1      -5.879   5.744   7.849  1.00  0.00     0.021 C 
HETATM   17  C1  UNL     1      -7.389   5.832   7.982  1.00  0.00     0.037 C 
HETATM   18  C3  UNL     1      -5.281   7.040   7.371  1.00  0.00     0.037 C 
HETATM   19  C4  UNL     1      -5.528   4.697   6.777  1.00  0.00     0.037 C 
ENDBRANCH  14  16
BRANCH  13  20
HETATM   20  C17 UNL     1      -5.952   7.310  10.402  1.00  0.00     0.285 A 
HETATM   21  C18 UNL     1      -5.574   8.195  11.512  1.00  0.00     0.274 A 
HETATM   22  N4  UNL     1      -6.767   7.419  11.627  1.00  0.00    -0.059 N 
ATOM     23  H42 UNL     1      -7.746   7.634  11.818  1.00  0.00     0.278 HD
ATOM     24  H41 UNL     1      -7.124   6.751  12.310  1.00  0.00     0.278 HD
ENDBRANCH  13  20
ENDBRANCH  12  13
ENDBRANCH  11  12
ENDBRANCH   1  11
BRANCH   7  25
HETATM   25  O4  UNL     1      -5.034   1.426  16.961  1.00  0.00    -0.294 OA
BRANCH  25  26
HETATM   26  C11 UNL     1      -6.310   1.704  17.495  1.00  0.00     0.061 C 
HETATM   27  C12 UNL     1      -7.304   0.617  17.226  1.00  0.00     0.046 C 
HETATM   28  C13 UNL     1      -6.861   3.025  17.031  1.00  0.00     0.046 C 
HETATM   29  C14 UNL     1      -6.136   1.804  19.007  1.00  0.00     0.046 C 
ENDBRANCH  25  26
ENDBRANCH   7  25
TORSDOF 7
ENDMDL
MODEL 5
REMARK VINA RESULT: -6.302335103      1.620      3.153
REMARK  7 active torsions:
REMARK  status: ('A' for Active; 'I' for Inactive)
REMARK    1  A    between atoms: C2_2  and  N1_5 
REMARK    2  A    between atoms: C5_7  and  O1_8 
REMARK    3  A    between atoms: C5_7  and  C17_25 
REMARK    4  A    between atoms: O1_8  and  C6_9 
REMARK    5  A    between atoms: C6_9  and  C7_10 
REMARK       I    between atoms: C7_10  and  N2_12 
REMARK       I    between atoms: N3_15  and  C10_16 
REMARK    6  A    between atoms: C10_16  and  O4_18 
REMARK    7  A    between atoms: O4_18  and  C11_19 
ROOT
HETATM    1  C7  UNL     1      -1.273   5.474  11.764  1.00  0.00     0.244 C 
HETATM    2  O2  UNL     1      -0.433   6.167  12.394  1.00  0.00    -0.271 OA
HETATM    3  N2  UNL     1      -2.475   6.052  11.241  1.00  0.00    -0.347 N 
HETATM    4  C8  UNL     1      -2.705   7.462  11.453  1.00  0.00     0.146 C 
HETATM    5  C9  UNL     1      -4.009   7.572  12.246  1.00  0.00     0.148 C 
HETATM    6  N3  UNL     1      -5.038   6.941  11.459  1.00  0.00    -0.325 N 
HETATM    7  C10 UNL     1      -6.176   7.691  11.094  1.00  0.00     0.363 C 
HETATM    8  O3  UNL     1      -6.300   8.892  11.445  1.00  0.00    -0.238 OA
HETATM    9  C15 UNL     1      -4.841   5.558  11.084  1.00  0.00     0.148 C 
HETATM   10  C16 UNL     1      -3.468   5.300  10.513  1.00  0.00     0.146 C 
ENDROOT
BRANCH   1  11
HETATM   11  C6  UNL     1      -1.023   4.036  11.556  1.00  0.00     0.280 C 
BRANCH  11  12
HETATM   12  O1  UNL     1      -1.308   3.350  12.756  1.00  0.00    -0.328 OA
BRANCH  12  13
HETATM   13  C5  UNL     1      -2.576   2.752  12.900  1.00  0.00     0.147 C 
HETATM   14  N1  UNL     1      -2.770   1.717  12.185  1.00  0.00    -0.364 N 
ATOM     15  H1  UNL     1      -1.993   1.432  11.589  1.00  0.00     0.162 HD
BRANCH  14  16
HETATM   16  C2  UNL     1      -3.945   0.904  12.116  1.00  0.00     0.021 C 
HETATM   17  C1  UNL     1      -4.287   0.383  13.501  1.00  0.00     0.037 C 
HETATM   18  C3  UNL     1      -5.092   1.662  11.502  1.00  0.00     0.037 C 
HETATM   19  C4  UNL     1      -3.681  -0.289  11.180  1.00  0.00     0.037 C 
ENDBRANCH  14  16
BRANCH  13  20
HETATM   20  C17 UNL     1      -3.574   3.330  13.834  1.00  0.00     0.285 A 
HETATM   21  C18 UNL     1      -3.324   4.578  14.570  1.00  0.00     0.274 A 
HETATM   22  N4  UNL     1      -3.158   3.332  15.248  1.00  0.00    -0.059 N 
ATOM     23  H42 UNL     1      -3.535   2.928  16.106  1.00  0.00     0.278 HD
ATOM     24  H41 UNL     1      -2.397   2.897  15.770  1.00  0.00     0.278 HD
ENDBRANCH  13  20
ENDBRANCH  12  13
ENDBRANCH  11  12
ENDBRANCH   1  11
BRANCH   7  25
HETATM   25  O4  UNL     1      -7.220   7.171  10.337  1.00  0.00    -0.294 OA
BRANCH  25  26
HETATM   26  C11 UNL     1      -7.291   7.318   8.936  1.00  0.00     0.061 C 
HETATM   27  C12 UNL     1      -7.395   6.008   8.218  1.00  0.00     0.046 C 
HETATM   28  C13 UNL     1      -6.146   8.117   8.375  1.00  0.00     0.046 C 
HETATM   29  C14 UNL     1      -8.564   8.104   8.646  1.00  0.00     0.046 C 
ENDBRANCH  25  26
ENDBRANCH   7  25
TORSDOF 7
ENDMDL
