MODEL 1
REMARK VINA RESULT: -8.618603198      0.000      0.000
REMARK  8 active torsions:
REMARK  status: ('A' for Active; 'I' for Inactive)
REMARK    1  A    between atoms: C1_2  and  C2_3 
REMARK    2  A    between atoms: C1_2  and  O4_11 
REMARK    3  A    between atoms: C2_3  and  C3_4 
REMARK    4  A    between atoms: C3_4  and  C4_5 
REMARK       I    between atoms: C4_5  and  N1_7 
REMARK    5  A    between atoms: O4_11  and  C5_12 
REMARK    6  A    between atoms: C7_15  and  C8_16 
REMARK    7  A    between atoms: C8_16  and  N4_17 
REMARK    8  A    between atoms: C9_18  and  O6_19 
ROOT
HETATM    1  C5  UNL     1      -2.524   2.306  11.556  1.00  0.00     0.186 C 
HETATM    2  C6  UNL     1      -1.512   1.906  10.469  1.00  0.00     0.203 C 
HETATM    3  O5  UNL     1      -2.119   2.920   9.686  1.00  0.00    -0.379 OA
HETATM    4  C7  UNL     1      -2.273   3.617  10.907  1.00  0.00     0.179 C 
ENDROOT
BRANCH   4   5
HETATM    5  C8  UNL     1      -3.433   4.573  10.922  1.00  0.00     0.276 C 
BRANCH   5   6
HETATM    6  N4  UNL     1      -3.399   5.400  12.141  1.00  0.00    -0.025 N 
HETATM    7  C9  UNL     1      -4.389   5.099  13.076  1.00  0.00     0.328 C 
HETATM    8  C10 UNL     1      -4.124   5.361  14.504  1.00  0.00     0.043 C 
HETATM    9  C11 UNL     1      -4.384   6.771  14.941  1.00  0.00     0.013 C 
HETATM   10  C15 UNL     1      -2.702   4.968  14.835  1.00  0.00     0.015 C 
HETATM   11  C12 UNL     1      -3.379   7.686  14.308  1.00  0.00    -0.012 C 
HETATM   12  C13 UNL     1      -1.952   7.264  14.553  1.00  0.00     0.011 C 
HETATM   13  C18 UNL     1      -3.584   7.850  12.846  1.00  0.00     0.040 C 
HETATM   14  C14 UNL     1      -1.818   5.852  13.984  1.00  0.00     0.020 C 
HETATM   15  C16 UNL     1      -2.131   5.817  12.537  1.00  0.00     0.229 A 
HETATM   16  C17 UNL     1      -3.031   6.777  11.985  1.00  0.00     0.226 A 
BRANCH   7  17
HETATM   17  O6  UNL     1      -5.584   5.775  12.731  1.00  0.00    -0.369 OA
ATOM     18  H6  UNL     1      -5.639   5.858  11.786  1.00  0.00     0.212 HD
ENDBRANCH   7  17
ENDBRANCH   5   6
ENDBRANCH   4   5
BRANCH   1  19
HETATM   19  O4  UNL     1      -3.744   1.667  11.260  1.00  0.00    -0.311 OA
BRANCH  19  20
HETATM   20  C1  UNL     1      -4.706   1.550  12.272  1.00  0.00     0.259 C 
HETATM   21  O1  UNL     1      -5.854   1.931  11.999  1.00  0.00    -0.265 OA
BRANCH  20  22
HETATM   22  C2  UNL     1      -4.402   1.006  13.603  1.00  0.00     0.120 C 
BRANCH  22  23
HETATM   23  C3  UNL     1      -4.806   1.899  14.740  1.00  0.00     0.116 C 
BRANCH  23  24
HETATM   24  C4  UNL     1      -4.539   1.360  16.079  1.00  0.00     0.256 C 
HETATM   25  O2  UNL     1      -3.393   1.457  16.569  1.00  0.00    -0.270 OA
HETATM   26  N1  UNL     1      -5.559   0.731  16.828  1.00  0.00    -0.114 N 
HETATM   27  N2  UNL     1      -6.855   0.462  16.621  1.00  0.00     0.069 NA
HETATM   28  N3  UNL     1      -5.727   0.145  18.003  1.00  0.00     0.069 NA
HETATM   29  O3  UNL     1      -6.978  -0.098  17.768  1.00  0.00    -0.124 OA
ENDBRANCH  23  24
ENDBRANCH  22  23
ENDBRANCH  20  22
ENDBRANCH  19  20
ENDBRANCH   1  19
TORSDOF 8
ENDMDL
MODEL 2
REMARK VINA RESULT: -8.328754936      2.150      3.196
REMARK  8 active torsions:
REMARK  status: ('A' for Active; 'I' for Inactive)
REMARK    1  A    between atoms: C1_2  and  C2_3 
REMARK    2  A    between atoms: C1_2  and  O4_11 
REMARK    3  A    between atoms: C2_3  and  C3_4 
REMARK    4  A    between atoms: C3_4  and  C4_5 
REMARK       I    between atoms: C4_5  and  N1_7 
REMARK    5  A    between atoms: O4_11  and  C5_12 
REMARK    6  A    between atoms: C7_15  and  C8_16 
REMARK    7  A    between atoms: C8_16  and  N4_17 
REMARK    8  A    between atoms: C9_18  and  O6_19 
ROOT
HETATM    1  C5  UNL     1      -4.220   1.379  12.256  1.00  0.00     0.186 C 
HETATM    2  C6  UNL     1      -4.531   0.123  11.425  1.00  0.00     0.203 C 
HETATM    3  O5  UNL     1      -4.834   1.026  10.375  1.00  0.00    -0.379 OA
HETATM    4  C7  UNL     1      -3.790   1.819  10.904  1.00  0.00     0.179 C 
ENDROOT
BRANCH   4   5
HETATM    5  C8  UNL     1      -3.940   3.289  10.631  1.00  0.00     0.276 C 
BRANCH   5   6
HETATM    6  N4  UNL     1      -2.623   3.950  10.641  1.00  0.00    -0.025 N 
HETATM    7  C9  UNL     1      -2.287   4.557  11.851  1.00  0.00     0.328 C 
HETATM    8  C10 UNL     1      -0.863   4.688  12.211  1.00  0.00     0.043 C 
HETATM    9  C11 UNL     1      -0.173   5.880  11.621  1.00  0.00     0.013 C 
HETATM   10  C15 UNL     1      -0.128   3.421  11.833  1.00  0.00     0.015 C 
HETATM   11  C12 UNL     1      -0.060   5.709  10.136  1.00  0.00    -0.012 C 
HETATM   12  C13 UNL     1       0.593   4.411   9.733  1.00  0.00     0.011 C 
HETATM   13  C18 UNL     1      -1.367   5.823   9.439  1.00  0.00     0.040 C 
HETATM   14  C14 UNL     1      -0.262   3.296  10.332  1.00  0.00     0.020 C 
HETATM   15  C16 UNL     1      -1.657   3.353   9.837  1.00  0.00     0.229 A 
HETATM   16  C17 UNL     1      -2.212   4.605   9.433  1.00  0.00     0.226 A 
BRANCH   7  17
HETATM   17  O6  UNL     1      -2.862   5.851  11.905  1.00  0.00    -0.369 OA
ATOM     18  H6  UNL     1      -2.210   6.496  11.658  1.00  0.00     0.212 HD
ENDBRANCH   7  17
ENDBRANCH   5   6
ENDBRANCH   4   5
BRANCH   1  19
HETATM   19  O4  UNL     1      -5.442   1.887  12.737  1.00  0.00    -0.311 OA
BRANCH  19  20
HETATM   20  C1  UNL     1      -5.416   2.890  13.715  1.00  0.00     0.259 C 
HETATM   21  O1  UNL     1      -6.437   3.586  13.829  1.00  0.00    -0.265 OA
BRANCH  20  22
HETATM   22  C2  UNL     1      -4.254   3.130  14.582  1.00  0.00     0.120 C 
BRANCH  22  23
HETATM   23  C3  UNL     1      -4.535   2.966  16.047  1.00  0.00     0.116 C 
BRANCH  23  24
HETATM   24  C4  UNL     1      -4.617   1.576  16.512  1.00  0.00     0.256 C 
HETATM   25  O2  UNL     1      -3.576   0.887  16.591  1.00  0.00    -0.270 OA
HETATM   26  N1  UNL     1      -5.855   1.001  16.874  1.00  0.00    -0.114 N 
HETATM   27  N2  UNL     1      -7.123   1.433  16.912  1.00  0.00     0.069 NA
HETATM   28  N3  UNL     1      -6.337  -0.149  17.317  1.00  0.00     0.069 NA
HETATM   29  O3  UNL     1      -7.552   0.302  17.340  1.00  0.00    -0.124 OA
ENDBRANCH  23  24
ENDBRANCH  22  23
ENDBRANCH  20  22
ENDBRANCH  19  20
ENDBRANCH   1  19
TORSDOF 8
ENDMDL
MODEL 3
REMARK VINA RESULT: -8.255826723      1.629      4.327
REMARK  8 active torsions:
REMARK  status: ('A' for Active; 'I' for Inactive)
REMARK    1  A    between atoms: C1_2  and  C2_3 
REMARK    2  A    between atoms: C1_2  and  O4_11 
REMARK    3  A    between atoms: C2_3  and  C3_4 
REMARK    4  A    between atoms: C3_4  and  C4_5 
REMARK       I    between atoms: C4_5  and  N1_7 
REMARK    5  A    between atoms: O4_11  and  C5_12 
REMARK    6  A    between atoms: C7_15  and  C8_16 
REMARK    7  A    between atoms: C8_16  and  N4_17 
REMARK    8  A    between atoms: C9_18  and  O6_19 
ROOT
HETATM    1  C5  UNL     1      -3.844   6.819  13.870  1.00  0.00     0.186 C 
HETATM    2  C6  UNL     1      -3.118   8.089  14.344  1.00  0.00     0.203 C 
HETATM    3  O5  UNL     1      -2.172   7.202  14.918  1.00  0.00    -0.379 OA
HETATM    4  C7  UNL     1      -2.428   6.380  13.796  1.00  0.00     0.179 C 
ENDROOT
BRANCH   4   5
HETATM    5  C8  UNL     1      -2.196   4.916  14.046  1.00  0.00     0.276 C 
BRANCH   5   6
HETATM    6  N4  UNL     1      -2.268   4.162  12.782  1.00  0.00    -0.025 N 
HETATM    7  C9  UNL     1      -3.427   3.403  12.623  1.00  0.00     0.328 C 
HETATM    8  C10 UNL     1      -3.918   3.129  11.259  1.00  0.00     0.043 C 
HETATM    9  C11 UNL     1      -3.267   1.961  10.582  1.00  0.00     0.013 C 
HETATM   10  C15 UNL     1      -3.770   4.371  10.410  1.00  0.00     0.015 C 
HETATM   11  C12 UNL     1      -1.833   2.284  10.291  1.00  0.00    -0.012 C 
HETATM   12  C13 UNL     1      -1.656   3.566   9.518  1.00  0.00     0.011 C 
HETATM   13  C18 UNL     1      -0.993   2.344  11.515  1.00  0.00     0.040 C 
HETATM   14  C14 UNL     1      -2.288   4.670  10.365  1.00  0.00     0.020 C 
HETATM   15  C16 UNL     1      -1.645   4.770  11.696  1.00  0.00     0.229 A 
HETATM   16  C17 UNL     1      -1.042   3.615  12.278  1.00  0.00     0.226 A 
BRANCH   7  17
HETATM   17  O6  UNL     1      -3.268   2.158  13.279  1.00  0.00    -0.369 OA
ATOM     18  H6  UNL     1      -3.463   2.260  14.203  1.00  0.00     0.212 HD
ENDBRANCH   7  17
ENDBRANCH   5   6
ENDBRANCH   4   5
BRANCH   1  19
HETATM   19  O4  UNL     1      -4.609   6.336  14.950  1.00  0.00    -0.311 OA
BRANCH  19  20
HETATM   20  C1  UNL     1      -5.722   5.530  14.680  1.00  0.00     0.259 C 
HETATM   21  O1  UNL     1      -6.206   5.608  13.540  1.00  0.00    -0.265 OA
BRANCH  20  22
HETATM   22  C2  UNL     1      -6.313   4.623  15.674  1.00  0.00     0.120 C 
BRANCH  22  23
HETATM   23  C3  UNL     1      -6.278   3.175  15.284  1.00  0.00     0.116 C 
BRANCH  23  24
HETATM   24  C4  UNL     1      -5.303   2.357  16.016  1.00  0.00     0.256 C 
HETATM   25  O2  UNL     1      -4.101   2.702  16.044  1.00  0.00    -0.270 OA
HETATM   26  N1  UNL     1      -5.699   1.183  16.693  1.00  0.00    -0.114 N 
HETATM   27  N2  UNL     1      -6.861   0.538  16.867  1.00  0.00     0.069 NA
HETATM   28  N3  UNL     1      -5.168   0.218  17.428  1.00  0.00     0.069 NA
HETATM   29  O3  UNL     1      -6.309  -0.378  17.575  1.00  0.00    -0.124 OA
ENDBRANCH  23  24
ENDBRANCH  22  23
ENDBRANCH  20  22
ENDBRANCH  19  20
ENDBRANCH   1  19
TORSDOF 8
ENDMDL
MODEL 4
REMARK VINA RESULT: -8.253249558      1.971      3.482
REMARK  8 active torsions:
REMARK  status: ('A' for Active; 'I' for Inactive)
REMARK    1  A    between atoms: C1_2  and  C2_3 
REMARK    2  A    between atoms: C1_2  and  O4_11 
REMARK    3  A    between atoms: C2_3  and  C3_4 
REMARK    4  A    between atoms: C3_4  and  C4_5 
REMARK       I    between atoms: C4_5  and  N1_7 
REMARK    5  A    between atoms: O4_11  and  C5_12 
REMARK    6  A    between atoms: C7_15  and  C8_16 
REMARK    7  A    between atoms: C8_16  and  N4_17 
REMARK    8  A    between atoms: C9_18  and  O6_19 
ROOT
HETATM    1  C5  UNL     1      -4.285   1.513  12.302  1.00  0.00     0.186 C 
HETATM    2  C6  UNL     1      -4.567   0.401  11.277  1.00  0.00     0.203 C 
HETATM    3  O5  UNL     1      -4.644   1.449  10.326  1.00  0.00    -0.379 OA
HETATM    4  C7  UNL     1      -3.631   2.071  11.092  1.00  0.00     0.179 C 
ENDROOT
BRANCH   4   5
HETATM    5  C8  UNL     1      -3.629   3.571  10.999  1.00  0.00     0.276 C 
BRANCH   5   6
HETATM    6  N4  UNL     1      -2.247   4.079  10.932  1.00  0.00    -0.025 N 
HETATM    7  C9  UNL     1      -1.266   3.131  11.226  1.00  0.00     0.328 C 
HETATM    8  C10 UNL     1       0.072   3.283  10.624  1.00  0.00     0.043 C 
HETATM    9  C11 UNL     1       0.991   4.208  11.362  1.00  0.00     0.013 C 
HETATM   10  C15 UNL     1      -0.068   3.727   9.185  1.00  0.00     0.015 C 
HETATM   11  C12 UNL     1       0.485   5.615  11.248  1.00  0.00    -0.012 C 
HETATM   12  C13 UNL     1       0.255   6.051   9.823  1.00  0.00     0.011 C 
HETATM   13  C18 UNL     1      -0.760   5.847  12.025  1.00  0.00     0.040 C 
HETATM   14  C14 UNL     1      -0.758   5.072   9.231  1.00  0.00     0.020 C 
HETATM   15  C16 UNL     1      -2.030   5.079   9.990  1.00  0.00     0.229 A 
HETATM   16  C17 UNL     1      -2.024   5.424  11.375  1.00  0.00     0.226 A 
BRANCH   7  17
HETATM   17  O6  UNL     1      -1.097   3.047  12.629  1.00  0.00    -0.369 OA
ATOM     18  H6  UNL     1      -1.492   2.244  12.947  1.00  0.00     0.212 HD
ENDBRANCH   7  17
ENDBRANCH   5   6
ENDBRANCH   4   5
BRANCH   1  19
HETATM   19  O4  UNL     1      -5.523   2.071  12.678  1.00  0.00    -0.311 OA
BRANCH  19  20
HETATM   20  C1  UNL     1      -5.547   3.034  13.695  1.00  0.00     0.259 C 
HETATM   21  O1  UNL     1      -6.599   3.676  13.832  1.00  0.00    -0.265 OA
BRANCH  20  22
HETATM   22  C2  UNL     1      -4.399   3.294  14.575  1.00  0.00     0.120 C 
BRANCH  22  23
HETATM   23  C3  UNL     1      -4.688   3.104  16.036  1.00  0.00     0.116 C 
BRANCH  23  24
HETATM   24  C4  UNL     1      -4.637   1.714  16.504  1.00  0.00     0.256 C 
HETATM   25  O2  UNL     1      -3.537   1.121  16.568  1.00  0.00    -0.270 OA
HETATM   26  N1  UNL     1      -5.812   1.031  16.887  1.00  0.00    -0.114 N 
HETATM   27  N2  UNL     1      -7.114   1.346  16.944  1.00  0.00     0.069 NA
HETATM   28  N3  UNL     1      -6.182  -0.158  17.340  1.00  0.00     0.069 NA
HETATM   29  O3  UNL     1      -7.431   0.183  17.382  1.00  0.00    -0.124 OA
ENDBRANCH  23  24
ENDBRANCH  22  23
ENDBRANCH  20  22
ENDBRANCH  19  20
ENDBRANCH   1  19
TORSDOF 8
ENDMDL
MODEL 5
REMARK VINA RESULT: -7.983403011      2.018      4.432
REMARK  8 active torsions:
REMARK  status: ('A' for Active; 'I' for Inactive)
REMARK    1  A    between atoms: C1_2  and  C2_3 
REMARK    2  A    between atoms: C1_2  and  O4_11 
REMARK    3  A    between atoms: C2_3  and  C3_4 
REMARK    4  A    between atoms: C3_4  and  C4_5 
REMARK       I    between atoms: C4_5  and  N1_7 
REMARK    5  A    between atoms: O4_11  and  C5_12 
REMARK    6  A    between atoms: C7_15  and  C8_16 
REMARK    7  A    between atoms: C8_16  and  N4_17 
REMARK    8  A    between atoms: C9_18  and  O6_19 
ROOT
HETATM    1  C5  UNL     1      -4.868   5.622  14.607  1.00  0.00     0.186 C 
HETATM    2  C6  UNL     1      -3.892   6.684  15.138  1.00  0.00     0.203 C 
HETATM    3  O5  UNL     1      -2.875   5.745  14.833  1.00  0.00    -0.379 OA
HETATM    4  C7  UNL     1      -3.691   5.385  13.734  1.00  0.00     0.179 C 
ENDROOT
BRANCH   4   5
HETATM    5  C8  UNL     1      -3.506   3.966  13.276  1.00  0.00     0.276 C 
BRANCH   5   6
HETATM    6  N4  UNL     1      -2.695   3.926  12.046  1.00  0.00    -0.025 N 
HETATM    7  C9  UNL     1      -3.223   4.650  10.978  1.00  0.00     0.328 C 
HETATM    8  C10 UNL     1      -2.301   5.205   9.969  1.00  0.00     0.043 C 
HETATM    9  C11 UNL     1      -1.897   4.245   8.892  1.00  0.00     0.013 C 
HETATM   10  C15 UNL     1      -1.074   5.761  10.657  1.00  0.00     0.015 C 
HETATM   11  C12 UNL     1      -1.036   3.167   9.479  1.00  0.00    -0.012 C 
HETATM   12  C13 UNL     1       0.148   3.700  10.244  1.00  0.00     0.011 C 
HETATM   13  C18 UNL     1      -1.792   2.235  10.356  1.00  0.00     0.040 C 
HETATM   14  C14 UNL     1      -0.419   4.588  11.351  1.00  0.00     0.020 C 
HETATM   15  C16 UNL     1      -1.321   3.829  12.248  1.00  0.00     0.229 A 
HETATM   16  C17 UNL     1      -2.025   2.693  11.746  1.00  0.00     0.226 A 
BRANCH   7  17
HETATM   17  O6  UNL     1      -4.176   3.856  10.295  1.00  0.00    -0.369 OA
ATOM     18  H6  UNL     1      -4.295   3.036  10.760  1.00  0.00     0.212 HD
ENDBRANCH   7  17
ENDBRANCH   5   6
ENDBRANCH   4   5
BRANCH   1  19
HETATM   19  O4  UNL     1      -5.095   4.695  15.643  1.00  0.00    -0.311 OA
BRANCH  19  20
HETATM   20  C1  UNL     1      -6.286   3.957  15.639  1.00  0.00     0.259 C 
HETATM   21  O1  UNL     1      -6.673   3.526  14.541  1.00  0.00    -0.265 OA
BRANCH  20  22
HETATM   22  C2  UNL     1      -7.064   3.689  16.856  1.00  0.00     0.120 C 
BRANCH  22  23
HETATM   23  C3  UNL     1      -6.534   2.557  17.687  1.00  0.00     0.116 C 
BRANCH  23  24
HETATM   24  C4  UNL     1      -6.534   1.247  17.025  1.00  0.00     0.256 C 
HETATM   25  O2  UNL     1      -7.618   0.660  16.812  1.00  0.00    -0.270 OA
HETATM   26  N1  UNL     1      -5.328   0.635  16.622  1.00  0.00    -0.114 N 
HETATM   27  N2  UNL     1      -4.030   0.966  16.688  1.00  0.00     0.069 NA
HETATM   28  N3  UNL     1      -4.912  -0.474  16.029  1.00  0.00     0.069 NA
HETATM   29  O3  UNL     1      -3.668  -0.120  16.111  1.00  0.00    -0.124 OA
ENDBRANCH  23  24
ENDBRANCH  22  23
ENDBRANCH  20  22
ENDBRANCH  19  20
ENDBRANCH   1  19
TORSDOF 8
ENDMDL
