MODEL 1
REMARK VINA RESULT: -7.222089454      0.000      0.000
REMARK  6 active torsions:
REMARK  status: ('A' for Active; 'I' for Inactive)
REMARK    1  A    between atoms: C2_2  and  N1_4 
REMARK       I    between atoms: N1_4  and  C4_6 
REMARK    2  A    between atoms: C4_6  and  C5_8 
REMARK       I    between atoms: N2_12  and  C9_13 
REMARK    3  A    between atoms: C9_13  and  C10_15 
REMARK    4  A    between atoms: C12_18  and  C13_19 
REMARK    5  A    between atoms: C13_19  and  N3_20 
REMARK    6  A    between atoms: N3_20  and  C15_22 
ROOT
HETATM    1  C5  UNL     1      -5.929   4.577  13.851  1.00  0.00     0.184 C 
HETATM    2  C6  UNL     1      -5.850   6.085  13.974  1.00  0.00     0.105 C 
HETATM    3  C7  UNL     1      -4.375   6.417  14.061  1.00  0.00     0.182 C 
HETATM    4  C8  UNL     1      -3.687   5.178  13.611  1.00  0.00     0.195 C 
HETATM    5  N2  UNL     1      -4.678   4.202  13.222  1.00  0.00    -0.332 N 
HETATM    6  C9  UNL     1      -4.443   3.102  12.383  1.00  0.00     0.254 C 
HETATM    7  O2  UNL     1      -5.384   2.286  12.088  1.00  0.00    -0.271 OA
HETATM    8  O5  UNL     1      -3.993   6.706  15.373  1.00  0.00    -0.351 OA
HETATM    9  C16 UNL     1      -3.071   7.733  15.319  1.00  0.00     0.198 C 
HETATM   10  C17 UNL     1      -2.897   8.007  13.851  1.00  0.00     0.198 C 
HETATM   11  O6  UNL     1      -4.101   7.537  13.310  1.00  0.00    -0.351 OA
ENDROOT
BRANCH   1  12
HETATM   12  C4  UNL     1      -6.077   3.975  15.195  1.00  0.00     0.241 C 
HETATM   13  N1  UNL     1      -5.771   2.613  15.387  1.00  0.00    -0.355 N 
ATOM     14  H1  UNL     1      -5.452   2.078  14.579  1.00  0.00     0.162 HD
HETATM   15  O1  UNL     1      -6.468   4.639  16.185  1.00  0.00    -0.271 OA
BRANCH  13  16
HETATM   16  C2  UNL     1      -5.880   1.927  16.651  1.00  0.00     0.076 C 
HETATM   17  C1  UNL     1      -4.837   0.871  16.777  1.00  0.00     0.032 C 
HETATM   18  C3  UNL     1      -7.279   1.425  16.914  1.00  0.00     0.032 C 
ENDBRANCH  13  16
ENDBRANCH   1  12
BRANCH   6  19
HETATM   19  C10 UNL     1      -3.124   2.840  11.812  1.00  0.00     0.303 C 
HETATM   20  C11 UNL     1      -3.065   1.523  11.034  1.00  0.00     0.213 C 
HETATM   21  O3  UNL     1      -2.098   1.723  10.066  1.00  0.00    -0.355 OA
HETATM   22  C12 UNL     1      -1.648   3.034  10.179  1.00  0.00     0.340 C 
HETATM   23  N4  UNL     1      -2.803   3.772  10.720  1.00  0.00    -0.032 N 
ATOM     24  H42 UNL     1      -3.555   3.997  10.067  1.00  0.00     0.281 HD
ATOM     25  H41 UNL     1      -2.650   4.748  10.974  1.00  0.00     0.281 HD
BRANCH  22  26
HETATM   26  C13 UNL     1      -1.186   3.528   8.858  1.00  0.00     0.186 C 
BRANCH  26  27
HETATM   27  N3  UNL     1       0.198   3.831   8.741  1.00  0.00    -0.359 N 
HETATM   28  C14 UNL     1       0.741   4.236   7.464  1.00  0.00     0.152 C 
BRANCH  27  29
HETATM   29  C15 UNL     1       1.052   3.742   9.855  1.00  0.00     0.350 C 
HETATM   30  O4  UNL     1       2.215   3.302   9.718  1.00  0.00    -0.284 OA
ENDBRANCH  27  29
ENDBRANCH  26  27
ENDBRANCH  22  26
ENDBRANCH   6  19
TORSDOF 6
ENDMDL
MODEL 2
REMARK VINA RESULT: -7.195744786      1.335      1.440
REMARK  6 active torsions:
REMARK  status: ('A' for Active; 'I' for Inactive)
REMARK    1  A    between atoms: C2_2  and  N1_4 
REMARK       I    between atoms: N1_4  and  C4_6 
REMARK    2  A    between atoms: C4_6  and  C5_8 
REMARK       I    between atoms: N2_12  and  C9_13 
REMARK    3  A    between atoms: C9_13  and  C10_15 
REMARK    4  A    between atoms: C12_18  and  C13_19 
REMARK    5  A    between atoms: C13_19  and  N3_20 
REMARK    6  A    between atoms: N3_20  and  C15_22 
ROOT
HETATM    1  C5  UNL     1      -5.418   2.879  14.319  1.00  0.00     0.184 C 
HETATM    2  C6  UNL     1      -5.814   4.341  14.375  1.00  0.00     0.105 C 
HETATM    3  C7  UNL     1      -4.537   5.126  14.158  1.00  0.00     0.182 C 
HETATM    4  C8  UNL     1      -3.574   4.128  13.620  1.00  0.00     0.195 C 
HETATM    5  N2  UNL     1      -4.246   2.858  13.467  1.00  0.00    -0.332 N 
HETATM    6  C9  UNL     1      -3.817   1.814  12.632  1.00  0.00     0.254 C 
HETATM    7  O2  UNL     1      -4.477   0.721  12.555  1.00  0.00    -0.271 OA
HETATM    8  O5  UNL     1      -4.045   5.641  15.358  1.00  0.00    -0.351 OA
HETATM    9  C16 UNL     1      -3.532   6.896  15.091  1.00  0.00     0.198 C 
HETATM   10  C17 UNL     1      -3.720   7.071  13.609  1.00  0.00     0.198 C 
HETATM   11  O6  UNL     1      -4.780   6.199  13.332  1.00  0.00    -0.351 OA
ENDROOT
BRANCH   1  12
HETATM   12  C4  UNL     1      -5.121   2.390  15.684  1.00  0.00     0.241 C 
HETATM   13  N1  UNL     1      -6.181   2.070  16.555  1.00  0.00    -0.355 N 
ATOM     14  H1  UNL     1      -7.133   2.187  16.211  1.00  0.00     0.162 HD
HETATM   15  O1  UNL     1      -3.947   2.246  16.101  1.00  0.00    -0.271 OA
BRANCH  13  16
HETATM   16  C2  UNL     1      -6.005   1.587  17.903  1.00  0.00     0.076 C 
HETATM   17  C1  UNL     1      -6.369   0.146  18.005  1.00  0.00     0.032 C 
HETATM   18  C3  UNL     1      -6.701   2.458  18.921  1.00  0.00     0.032 C 
ENDBRANCH  13  16
ENDBRANCH   1  12
BRANCH   6  19
HETATM   19  C10 UNL     1      -2.608   1.926  11.821  1.00  0.00     0.303 C 
HETATM   20  C11 UNL     1      -2.578   0.930  10.659  1.00  0.00     0.213 C 
HETATM   21  O3  UNL     1      -1.827   1.549   9.676  1.00  0.00    -0.355 OA
HETATM   22  C12 UNL     1      -1.480   2.814  10.141  1.00  0.00     0.340 C 
HETATM   23  N4  UNL     1      -2.576   3.182  11.054  1.00  0.00    -0.032 N 
ATOM     24  H42 UNL     1      -3.451   3.486  10.627  1.00  0.00     0.281 HD
ATOM     25  H41 UNL     1      -2.464   4.046  11.585  1.00  0.00     0.281 HD
BRANCH  22  26
HETATM   26  C13 UNL     1      -1.314   3.746   8.998  1.00  0.00     0.186 C 
BRANCH  26  27
HETATM   27  N3  UNL     1       0.010   3.927   8.512  1.00  0.00    -0.359 N 
HETATM   28  C14 UNL     1       0.276   3.838   7.094  1.00  0.00     0.152 C 
BRANCH  27  29
HETATM   29  C15 UNL     1       1.072   4.193   9.396  1.00  0.00     0.350 C 
HETATM   30  O4  UNL     1       1.956   3.329   9.590  1.00  0.00    -0.284 OA
ENDBRANCH  27  29
ENDBRANCH  26  27
ENDBRANCH  22  26
ENDBRANCH   6  19
TORSDOF 6
ENDMDL
MODEL 3
REMARK VINA RESULT: -7.179234801      2.669      7.435
REMARK  6 active torsions:
REMARK  status: ('A' for Active; 'I' for Inactive)
REMARK    1  A    between atoms: C2_2  and  N1_4 
REMARK       I    between atoms: N1_4  and  C4_6 
REMARK    2  A    between atoms: C4_6  and  C5_8 
REMARK       I    between atoms: N2_12  and  C9_13 
REMARK    3  A    between atoms: C9_13  and  C10_15 
REMARK    4  A    between atoms: C12_18  and  C13_19 
REMARK    5  A    between atoms: C13_19  and  N3_20 
REMARK    6  A    between atoms: N3_20  and  C15_22 
ROOT
HETATM    1  C5  UNL     1      -2.156   5.210  10.668  1.00  0.00     0.184 C 
HETATM    2  C6  UNL     1      -2.646   6.642  10.601  1.00  0.00     0.105 C 
HETATM    3  C7  UNL     1      -4.151   6.574  10.762  1.00  0.00     0.182 C 
HETATM    4  C8  UNL     1      -4.407   5.205  11.284  1.00  0.00     0.195 C 
HETATM    5  N2  UNL     1      -3.145   4.530  11.481  1.00  0.00    -0.332 N 
HETATM    6  C9  UNL     1      -2.944   3.421  12.317  1.00  0.00     0.254 C 
HETATM    7  O2  UNL     1      -1.788   2.886  12.434  1.00  0.00    -0.271 OA
HETATM    8  O5  UNL     1      -4.803   6.730   9.538  1.00  0.00    -0.351 OA
HETATM    9  C16 UNL     1      -5.940   7.480   9.768  1.00  0.00     0.198 C 
HETATM   10  C17 UNL     1      -5.938   7.723  11.251  1.00  0.00     0.198 C 
HETATM   11  O6  UNL     1      -4.582   7.594  11.578  1.00  0.00    -0.351 OA
ENDROOT
BRANCH   1  12
HETATM   12  C4  UNL     1      -2.077   4.646   9.302  1.00  0.00     0.241 C 
HETATM   13  N1  UNL     1      -2.116   5.507   8.189  1.00  0.00    -0.355 N 
ATOM     14  H1  UNL     1      -2.198   6.509   8.363  1.00  0.00     0.162 HD
HETATM   15  O1  UNL     1      -1.973   3.413   9.094  1.00  0.00    -0.271 OA
BRANCH  13  16
HETATM   16  C2  UNL     1      -2.047   5.065   6.817  1.00  0.00     0.076 C 
HETATM   17  C1  UNL     1      -0.661   5.192   6.284  1.00  0.00     0.032 C 
HETATM   18  C3  UNL     1      -3.089   5.724   5.948  1.00  0.00     0.032 C 
ENDBRANCH  13  16
ENDBRANCH   1  12
BRANCH   6  19
HETATM   19  C10 UNL     1      -4.037   2.831  13.086  1.00  0.00     0.303 C 
HETATM   20  C11 UNL     1      -4.135   1.313  12.911  1.00  0.00     0.213 C 
HETATM   21  O3  UNL     1      -4.675   0.851  14.097  1.00  0.00    -0.355 OA
HETATM   22  C12 UNL     1      -4.838   1.942  14.944  1.00  0.00     0.340 C 
HETATM   23  N4  UNL     1      -3.782   2.884  14.534  1.00  0.00    -0.032 N 
ATOM     24  H42 UNL     1      -2.832   2.678  14.844  1.00  0.00     0.281 HD
ATOM     25  H41 UNL     1      -3.789   3.805  14.972  1.00  0.00     0.281 HD
BRANCH  22  26
HETATM   26  C13 UNL     1      -4.736   1.506  16.359  1.00  0.00     0.186 C 
BRANCH  26  27
HETATM   27  N3  UNL     1      -5.922   1.589  17.137  1.00  0.00    -0.359 N 
HETATM   28  C14 UNL     1      -6.689   2.814  17.155  1.00  0.00     0.152 C 
BRANCH  27  29
HETATM   29  C15 UNL     1      -6.364   0.490  17.897  1.00  0.00     0.350 C 
HETATM   30  O4  UNL     1      -6.025  -0.671  17.573  1.00  0.00    -0.284 OA
ENDBRANCH  27  29
ENDBRANCH  26  27
ENDBRANCH  22  26
ENDBRANCH   6  19
TORSDOF 6
ENDMDL
MODEL 4
REMARK VINA RESULT: -7.075299992      2.813      7.696
REMARK  6 active torsions:
REMARK  status: ('A' for Active; 'I' for Inactive)
REMARK    1  A    between atoms: C2_2  and  N1_4 
REMARK       I    between atoms: N1_4  and  C4_6 
REMARK    2  A    between atoms: C4_6  and  C5_8 
REMARK       I    between atoms: N2_12  and  C9_13 
REMARK    3  A    between atoms: C9_13  and  C10_15 
REMARK    4  A    between atoms: C12_18  and  C13_19 
REMARK    5  A    between atoms: C13_19  and  N3_20 
REMARK    6  A    between atoms: N3_20  and  C15_22 
ROOT
HETATM    1  C5  UNL     1      -1.742   4.949  10.240  1.00  0.00     0.184 C 
HETATM    2  C6  UNL     1      -2.371   6.248   9.778  1.00  0.00     0.105 C 
HETATM    3  C7  UNL     1      -3.856   5.973   9.663  1.00  0.00     0.182 C 
HETATM    4  C8  UNL     1      -4.057   4.700  10.406  1.00  0.00     0.195 C 
HETATM    5  N2  UNL     1      -2.797   4.282  10.976  1.00  0.00    -0.332 N 
HETATM    6  C9  UNL     1      -2.654   3.392  12.052  1.00  0.00     0.254 C 
HETATM    7  O2  UNL     1      -1.496   3.077  12.496  1.00  0.00    -0.271 OA
HETATM    8  O5  UNL     1      -4.241   5.797   8.333  1.00  0.00    -0.351 OA
HETATM    9  C16 UNL     1      -5.481   6.386   8.180  1.00  0.00     0.198 C 
HETATM   10  C17 UNL     1      -5.829   6.894   9.551  1.00  0.00     0.198 C 
HETATM   11  O6  UNL     1      -4.571   7.045  10.147  1.00  0.00    -0.351 OA
ENDROOT
BRANCH   1  12
HETATM   12  C4  UNL     1      -1.303   4.163   9.065  1.00  0.00     0.241 C 
HETATM   13  N1  UNL     1      -0.666   4.813   7.990  1.00  0.00    -0.355 N 
ATOM     14  H1  UNL     1      -0.525   5.821   8.057  1.00  0.00     0.162 HD
HETATM   15  O1  UNL     1      -1.477   2.923   8.988  1.00  0.00    -0.271 OA
BRANCH  13  16
HETATM   16  C2  UNL     1      -0.200   4.145   6.799  1.00  0.00     0.076 C 
HETATM   17  C1  UNL     1       1.243   3.794   6.914  1.00  0.00     0.032 C 
HETATM   18  C3  UNL     1      -0.534   4.912   5.542  1.00  0.00     0.032 C 
ENDBRANCH  13  16
ENDBRANCH   1  12
BRANCH   6  19
HETATM   19  C10 UNL     1      -3.811   2.788  12.708  1.00  0.00     0.303 C 
HETATM   20  C11 UNL     1      -3.914   1.281  12.459  1.00  0.00     0.213 C 
HETATM   21  O3  UNL     1      -4.551   0.776  13.579  1.00  0.00    -0.355 OA
HETATM   22  C12 UNL     1      -4.764   1.833  14.458  1.00  0.00     0.340 C 
HETATM   23  N4  UNL     1      -3.667   2.774  14.173  1.00  0.00    -0.032 N 
ATOM     24  H42 UNL     1      -2.746   2.538  14.545  1.00  0.00     0.281 HD
ATOM     25  H41 UNL     1      -3.695   3.675  14.649  1.00  0.00     0.281 HD
BRANCH  22  26
HETATM   26  C13 UNL     1      -4.777   1.334  15.856  1.00  0.00     0.186 C 
BRANCH  26  27
HETATM   27  N3  UNL     1      -5.936   1.626  16.625  1.00  0.00    -0.359 N 
HETATM   28  C14 UNL     1      -6.514   2.950  16.585  1.00  0.00     0.152 C 
BRANCH  27  29
HETATM   29  C15 UNL     1      -6.534   0.638  17.430  1.00  0.00     0.350 C 
HETATM   30  O4  UNL     1      -6.013  -0.496  17.519  1.00  0.00    -0.284 OA
ENDBRANCH  27  29
ENDBRANCH  26  27
ENDBRANCH  22  26
ENDBRANCH   6  19
TORSDOF 6
ENDMDL
MODEL 5
REMARK VINA RESULT: -7.069374228      1.266      1.628
REMARK  6 active torsions:
REMARK  status: ('A' for Active; 'I' for Inactive)
REMARK    1  A    between atoms: C2_2  and  N1_4 
REMARK       I    between atoms: N1_4  and  C4_6 
REMARK    2  A    between atoms: C4_6  and  C5_8 
REMARK       I    between atoms: N2_12  and  C9_13 
REMARK    3  A    between atoms: C9_13  and  C10_15 
REMARK    4  A    between atoms: C12_18  and  C13_19 
REMARK    5  A    between atoms: C13_19  and  N3_20 
REMARK    6  A    between atoms: N3_20  and  C15_22 
ROOT
HETATM    1  C5  UNL     1      -6.140   4.382  13.984  1.00  0.00     0.184 C 
HETATM    2  C6  UNL     1      -6.075   5.894  14.070  1.00  0.00     0.105 C 
HETATM    3  C7  UNL     1      -4.603   6.242  14.140  1.00  0.00     0.182 C 
HETATM    4  C8  UNL     1      -3.905   5.000  13.714  1.00  0.00     0.195 C 
HETATM    5  N2  UNL     1      -4.889   4.005  13.356  1.00  0.00    -0.332 N 
HETATM    6  C9  UNL     1      -4.648   2.888  12.541  1.00  0.00     0.254 C 
HETATM    7  O2  UNL     1      -5.583   2.056  12.272  1.00  0.00    -0.271 OA
HETATM    8  O5  UNL     1      -4.216   6.566  15.441  1.00  0.00    -0.351 OA
HETATM    9  C16 UNL     1      -3.304   7.601  15.357  1.00  0.00     0.198 C 
HETATM   10  C17 UNL     1      -3.142   7.841  13.882  1.00  0.00     0.198 C 
HETATM   11  O6  UNL     1      -4.344   7.347  13.360  1.00  0.00    -0.351 OA
ENDROOT
BRANCH   1  12
HETATM   12  C4  UNL     1      -6.273   3.811  15.343  1.00  0.00     0.241 C 
HETATM   13  N1  UNL     1      -6.001   2.445  15.554  1.00  0.00    -0.355 N 
ATOM     14  H1  UNL     1      -5.715   1.886  14.751  1.00  0.00     0.162 HD
HETATM   15  O1  UNL     1      -6.623   4.505  16.328  1.00  0.00    -0.271 OA
BRANCH  13  16
HETATM   16  C2  UNL     1      -6.099   1.787  16.835  1.00  0.00     0.076 C 
HETATM   17  C1  UNL     1      -5.021   0.772  16.997  1.00  0.00     0.032 C 
HETATM   18  C3  UNL     1      -7.482   1.243  17.096  1.00  0.00     0.032 C 
ENDBRANCH  13  16
ENDBRANCH   1  12
BRANCH   6  19
HETATM   19  C10 UNL     1      -3.331   2.625  11.968  1.00  0.00     0.303 C 
HETATM   20  C11 UNL     1      -3.258   1.282  11.238  1.00  0.00     0.213 C 
HETATM   21  O3  UNL     1      -2.302   1.461  10.254  1.00  0.00    -0.355 OA
HETATM   22  C12 UNL     1      -1.872   2.782  10.316  1.00  0.00     0.340 C 
HETATM   23  N4  UNL     1      -3.033   3.522  10.839  1.00  0.00    -0.032 N 
ATOM     24  H42 UNL     1      -3.794   3.711  10.186  1.00  0.00     0.281 HD
ATOM     25  H41 UNL     1      -2.893   4.508  11.057  1.00  0.00     0.281 HD
BRANCH  22  26
HETATM   26  C13 UNL     1      -1.429   3.235   8.973  1.00  0.00     0.186 C 
BRANCH  26  27
HETATM   27  N3  UNL     1      -1.520   4.629   8.710  1.00  0.00    -0.359 N 
HETATM   28  C14 UNL     1      -0.587   5.542   9.329  1.00  0.00     0.152 C 
BRANCH  27  29
HETATM   29  C15 UNL     1      -2.513   5.136   7.850  1.00  0.00     0.350 C 
HETATM   30  O4  UNL     1      -3.680   4.689   7.910  1.00  0.00    -0.284 OA
ENDBRANCH  27  29
ENDBRANCH  26  27
ENDBRANCH  22  26
ENDBRANCH   6  19
TORSDOF 6
ENDMDL
