MODEL 1
REMARK VINA RESULT: -6.976021193      0.000      0.000
REMARK  8 active torsions:
REMARK  status: ('A' for Active; 'I' for Inactive)
REMARK    1  A    between atoms: C4_7  and  C5_8 
REMARK       I    between atoms: C5_8  and  N2_10 
REMARK    2  A    between atoms: N2_10  and  C6_12 
REMARK    3  A    between atoms: C6_12  and  C8_14 
REMARK    4  A    between atoms: C8_14  and  N3_15 
REMARK    5  A    between atoms: N4_18  and  C11_19 
REMARK    6  A    between atoms: C11_19  and  C12_20 
REMARK    7  A    between atoms: C13_21  and  C14_22 
REMARK    8  A    between atoms: C14_22  and  N5_23 
ROOT
HETATM    1  N3  UNL     1      -2.824   4.993  10.672  1.00  0.00     0.093 N 
HETATM    2  C9  UNL     1      -2.319   5.600  11.879  1.00  0.00     0.302 C 
HETATM    3  C10 UNL     1      -3.185   5.089  13.008  1.00  0.00     0.303 C 
HETATM    4  N4  UNL     1      -4.523   5.487  12.777  1.00  0.00     0.102 N 
HETATM    5  C19 UNL     1      -4.874   6.029  11.524  1.00  0.00     0.303 C 
HETATM    6  C20 UNL     1      -4.148   5.443  10.345  1.00  0.00     0.302 C 
ENDROOT
BRANCH   1   7
HETATM    7  C8  UNL     1      -1.907   4.957   9.592  1.00  0.00     0.297 C 
BRANCH   7   8
HETATM    8  C6  UNL     1      -1.082   3.686   9.707  1.00  0.00     0.108 C 
HETATM    9  C7  UNL     1      -0.368   3.481   8.366  1.00  0.00     0.034 C 
BRANCH   8  10
HETATM   10  N2  UNL     1      -1.908   2.538   9.997  1.00  0.00    -0.353 N 
HETATM   11  C5  UNL     1      -1.833   1.864  11.246  1.00  0.00     0.253 C 
HETATM   12  O1  UNL     1      -1.023   2.293  12.105  1.00  0.00    -0.271 OA
ATOM     13  H2  UNL     1      -2.561   2.203   9.289  1.00  0.00     0.163 HD
BRANCH  11  14
HETATM   14  C4  UNL     1      -2.718   0.688  11.464  1.00  0.00     0.307 C 
HETATM   15  C2  UNL     1      -4.109   1.038  11.837  1.00  0.00    -0.025 C 
HETATM   16  C1  UNL     1      -4.715   1.928  12.589  1.00  0.00     0.018 C 
HETATM   17  C3  UNL     1      -4.512  -0.087  10.963  1.00  0.00     0.269 C 
HETATM   18  N1  UNL     1      -3.267   0.145  10.212  1.00  0.00    -0.055 N 
ATOM     19  H12 UNL     1      -2.800  -0.608   9.707  1.00  0.00     0.278 HD
ATOM     20  H11 UNL     1      -3.259   0.687   9.348  1.00  0.00     0.278 HD
ENDBRANCH  11  14
ENDBRANCH   8  10
ENDBRANCH   7   8
ENDBRANCH   1   7
BRANCH   4  21
HETATM   21  C11 UNL     1      -4.953   6.352  13.853  1.00  0.00     0.365 C 
BRANCH  21  22
HETATM   22  C12 UNL     1      -5.600   5.485  14.867  1.00  0.00    -0.074 C 
HETATM   23  C13 UNL     1      -6.119   4.760  15.680  1.00  0.00    -0.074 C 
BRANCH  23  24
HETATM   24  C14 UNL     1      -6.741   3.852  16.662  1.00  0.00     0.366 C 
BRANCH  24  25
HETATM   25  N5  UNL     1      -6.363   2.475  16.426  1.00  0.00     0.103 N 
HETATM   26  C15 UNL     1      -4.948   2.288  16.347  1.00  0.00     0.299 C 
HETATM   27  C16 UNL     1      -4.527   0.865  16.199  1.00  0.00     0.198 C 
HETATM   28  O2  UNL     1      -5.561  -0.050  16.406  1.00  0.00    -0.388 OA
HETATM   29  C17 UNL     1      -6.317   0.277  17.526  1.00  0.00     0.198 C 
HETATM   30  C18 UNL     1      -7.078   1.547  17.237  1.00  0.00     0.299 C 
ENDBRANCH  24  25
ENDBRANCH  23  24
ENDBRANCH  21  22
ENDBRANCH   4  21
TORSDOF 8
ENDMDL
MODEL 2
REMARK VINA RESULT: -6.622974510      1.098      1.720
REMARK  8 active torsions:
REMARK  status: ('A' for Active; 'I' for Inactive)
REMARK    1  A    between atoms: C4_7  and  C5_8 
REMARK       I    between atoms: C5_8  and  N2_10 
REMARK    2  A    between atoms: N2_10  and  C6_12 
REMARK    3  A    between atoms: C6_12  and  C8_14 
REMARK    4  A    between atoms: C8_14  and  N3_15 
REMARK    5  A    between atoms: N4_18  and  C11_19 
REMARK    6  A    between atoms: C11_19  and  C12_20 
REMARK    7  A    between atoms: C13_21  and  C14_22 
REMARK    8  A    between atoms: C14_22  and  N5_23 
ROOT
HETATM    1  N3  UNL     1      -2.627   6.120  11.326  1.00  0.00     0.093 N 
HETATM    2  C9  UNL     1      -3.945   6.318  11.878  1.00  0.00     0.302 C 
HETATM    3  C10 UNL     1      -3.832   7.479  12.841  1.00  0.00     0.303 C 
HETATM    4  N4  UNL     1      -2.913   7.141  13.863  1.00  0.00     0.102 N 
HETATM    5  C19 UNL     1      -2.115   5.988  13.718  1.00  0.00     0.303 C 
HETATM    6  C20 UNL     1      -1.680   5.681  12.311  1.00  0.00     0.302 C 
ENDROOT
BRANCH   1   7
HETATM    7  C8  UNL     1      -2.596   5.418  10.094  1.00  0.00     0.297 C 
BRANCH   7   8
HETATM    8  C6  UNL     1      -1.727   4.183  10.270  1.00  0.00     0.108 C 
HETATM    9  C7  UNL     1      -0.903   4.017   8.988  1.00  0.00     0.034 C 
BRANCH   8  10
HETATM   10  N2  UNL     1      -2.522   2.998  10.492  1.00  0.00    -0.353 N 
HETATM   11  C5  UNL     1      -2.180   2.051  11.495  1.00  0.00     0.253 C 
HETATM   12  O1  UNL     1      -1.160   2.268  12.195  1.00  0.00    -0.271 OA
ATOM     13  H2  UNL     1      -3.347   2.837   9.915  1.00  0.00     0.163 HD
BRANCH  11  14
HETATM   14  C4  UNL     1      -3.051   0.855  11.657  1.00  0.00     0.307 C 
HETATM   15  C2  UNL     1      -4.502   1.149  11.590  1.00  0.00    -0.025 C 
HETATM   16  C1  UNL     1      -5.319   2.091  12.005  1.00  0.00     0.018 C 
HETATM   17  C3  UNL     1      -4.615  -0.117  10.832  1.00  0.00     0.269 C 
HETATM   18  N1  UNL     1      -3.221   0.098  10.408  1.00  0.00    -0.055 N 
ATOM     19  H12 UNL     1      -2.609  -0.683  10.171  1.00  0.00     0.278 HD
ATOM     20  H11 UNL     1      -2.996   0.507   9.501  1.00  0.00     0.278 HD
ENDBRANCH  11  14
ENDBRANCH   8  10
ENDBRANCH   7   8
ENDBRANCH   1   7
BRANCH   4  21
HETATM   21  C11 UNL     1      -3.599   7.139  15.136  1.00  0.00     0.365 C 
BRANCH  21  22
HETATM   22  C12 UNL     1      -4.515   5.973  15.126  1.00  0.00    -0.074 C 
HETATM   23  C13 UNL     1      -5.264   5.027  15.141  1.00  0.00    -0.074 C 
BRANCH  23  24
HETATM   24  C14 UNL     1      -6.184   3.875  15.187  1.00  0.00     0.366 C 
BRANCH  24  25
HETATM   25  N5  UNL     1      -5.710   2.852  16.092  1.00  0.00     0.103 N 
HETATM   26  C15 UNL     1      -6.767   2.127  16.723  1.00  0.00     0.299 C 
HETATM   27  C16 UNL     1      -6.307   1.003  17.589  1.00  0.00     0.198 C 
HETATM   28  O2  UNL     1      -4.953   0.702  17.443  1.00  0.00    -0.388 OA
HETATM   29  C17 UNL     1      -4.577   0.669  16.104  1.00  0.00     0.198 C 
HETATM   30  C18 UNL     1      -4.645   2.072  15.553  1.00  0.00     0.299 C 
ENDBRANCH  24  25
ENDBRANCH  23  24
ENDBRANCH  21  22
ENDBRANCH   4  21
TORSDOF 8
ENDMDL
MODEL 3
REMARK VINA RESULT: -6.323916679      2.012      5.651
REMARK  8 active torsions:
REMARK  status: ('A' for Active; 'I' for Inactive)
REMARK    1  A    between atoms: C4_7  and  C5_8 
REMARK       I    between atoms: C5_8  and  N2_10 
REMARK    2  A    between atoms: N2_10  and  C6_12 
REMARK    3  A    between atoms: C6_12  and  C8_14 
REMARK    4  A    between atoms: C8_14  and  N3_15 
REMARK    5  A    between atoms: N4_18  and  C11_19 
REMARK    6  A    between atoms: C11_19  and  C12_20 
REMARK    7  A    between atoms: C13_21  and  C14_22 
REMARK    8  A    between atoms: C14_22  and  N5_23 
ROOT
HETATM    1  N3  UNL     1      -3.065   7.254  13.759  1.00  0.00     0.093 N 
HETATM    2  C9  UNL     1      -1.774   6.616  13.682  1.00  0.00     0.302 C 
HETATM    3  C10 UNL     1      -1.044   7.267  12.530  1.00  0.00     0.303 C 
HETATM    4  N4  UNL     1      -1.775   7.047  11.339  1.00  0.00     0.102 N 
HETATM    5  C19 UNL     1      -3.083   6.525  11.420  1.00  0.00     0.303 C 
HETATM    6  C20 UNL     1      -3.882   6.978  12.611  1.00  0.00     0.302 C 
ENDROOT
BRANCH   1   7
HETATM    7  C8  UNL     1      -3.715   7.138  15.013  1.00  0.00     0.297 C 
BRANCH   7   8
HETATM    8  C6  UNL     1      -4.759   6.038  14.910  1.00  0.00     0.108 C 
HETATM    9  C7  UNL     1      -5.979   6.486  15.723  1.00  0.00     0.034 C 
BRANCH   8  10
HETATM   10  N2  UNL     1      -4.265   4.784  15.428  1.00  0.00    -0.353 N 
HETATM   11  C5  UNL     1      -4.896   3.550  15.113  1.00  0.00     0.253 C 
HETATM   12  O1  UNL     1      -5.905   3.571  14.364  1.00  0.00    -0.271 OA
ATOM     13  H2  UNL     1      -3.446   4.784  16.034  1.00  0.00     0.163 HD
BRANCH  11  14
HETATM   14  C4  UNL     1      -4.326   2.302  15.690  1.00  0.00     0.307 C 
HETATM   15  C2  UNL     1      -5.229   1.605  16.636  1.00  0.00    -0.025 C 
HETATM   16  C1  UNL     1      -6.079   1.932  17.582  1.00  0.00     0.018 C 
HETATM   17  C3  UNL     1      -4.732   0.353  16.021  1.00  0.00     0.269 C 
HETATM   18  N1  UNL     1      -4.477   1.140  14.802  1.00  0.00    -0.055 N 
ATOM     19  H12 UNL     1      -3.748   0.876  14.139  1.00  0.00     0.278 HD
ATOM     20  H11 UNL     1      -5.137   1.146  14.024  1.00  0.00     0.278 HD
ENDBRANCH  11  14
ENDBRANCH   8  10
ENDBRANCH   7   8
ENDBRANCH   1   7
BRANCH   4  21
HETATM   21  C11 UNL     1      -0.967   6.276  10.421  1.00  0.00     0.365 C 
BRANCH  21  22
HETATM   22  C12 UNL     1      -1.097   4.855  10.826  1.00  0.00    -0.074 C 
HETATM   23  C13 UNL     1      -1.224   3.699  11.145  1.00  0.00    -0.074 C 
BRANCH  23  24
HETATM   24  C14 UNL     1      -1.403   2.283  11.520  1.00  0.00     0.366 C 
BRANCH  24  25
HETATM   25  N5  UNL     1      -2.608   1.729  10.942  1.00  0.00     0.103 N 
HETATM   26  C15 UNL     1      -2.725   0.318  11.135  1.00  0.00     0.299 C 
HETATM   27  C16 UNL     1      -4.003  -0.264  10.632  1.00  0.00     0.198 C 
HETATM   28  O2  UNL     1      -4.957   0.694  10.286  1.00  0.00    -0.388 OA
HETATM   29  C17 UNL     1      -5.048   1.696  11.245  1.00  0.00     0.198 C 
HETATM   30  C18 UNL     1      -3.773   2.502  11.218  1.00  0.00     0.299 C 
ENDBRANCH  24  25
ENDBRANCH  23  24
ENDBRANCH  21  22
ENDBRANCH   4  21
TORSDOF 8
ENDMDL
MODEL 4
REMARK VINA RESULT: -6.197018892      3.466      6.641
REMARK  8 active torsions:
REMARK  status: ('A' for Active; 'I' for Inactive)
REMARK    1  A    between atoms: C4_7  and  C5_8 
REMARK       I    between atoms: C5_8  and  N2_10 
REMARK    2  A    between atoms: N2_10  and  C6_12 
REMARK    3  A    between atoms: C6_12  and  C8_14 
REMARK    4  A    between atoms: C8_14  and  N3_15 
REMARK    5  A    between atoms: N4_18  and  C11_19 
REMARK    6  A    between atoms: C11_19  and  C12_20 
REMARK    7  A    between atoms: C13_21  and  C14_22 
REMARK    8  A    between atoms: C14_22  and  N5_23 
ROOT
HETATM    1  N3  UNL     1      -3.569   4.503  14.353  1.00  0.00     0.093 N 
HETATM    2  C9  UNL     1      -4.404   5.657  14.582  1.00  0.00     0.302 C 
HETATM    3  C10 UNL     1      -4.520   6.369  13.253  1.00  0.00     0.303 C 
HETATM    4  N4  UNL     1      -3.230   6.768  12.831  1.00  0.00     0.102 N 
HETATM    5  C19 UNL     1      -2.099   6.273  13.511  1.00  0.00     0.303 C 
HETATM    6  C20 UNL     1      -2.220   4.861  14.016  1.00  0.00     0.302 C 
ENDROOT
BRANCH   1   7
HETATM    7  C8  UNL     1      -3.704   3.468  15.313  1.00  0.00     0.297 C 
BRANCH   7   8
HETATM    8  C6  UNL     1      -4.827   2.546  14.866  1.00  0.00     0.108 C 
HETATM    9  C7  UNL     1      -5.277   1.745  16.094  1.00  0.00     0.034 C 
BRANCH   8  10
HETATM   10  N2  UNL     1      -4.393   1.641  13.829  1.00  0.00    -0.353 N 
HETATM   11  C5  UNL     1      -4.782   1.821  12.474  1.00  0.00     0.253 C 
HETATM   12  O1  UNL     1      -5.521   2.797  12.191  1.00  0.00    -0.271 OA
ATOM     13  H2  UNL     1      -3.794   0.853  14.074  1.00  0.00     0.163 HD
BRANCH  11  14
HETATM   14  C4  UNL     1      -4.293   0.840  11.466  1.00  0.00     0.307 C 
HETATM   15  C2  UNL     1      -2.817   0.762  11.365  1.00  0.00    -0.025 C 
HETATM   16  C1  UNL     1      -1.799   1.593  11.396  1.00  0.00     0.018 C 
HETATM   17  C3  UNL     1      -3.012  -0.697  11.211  1.00  0.00     0.269 C 
HETATM   18  N1  UNL     1      -4.258  -0.537  11.979  1.00  0.00    -0.055 N 
ATOM     19  H12 UNL     1      -5.047  -1.172  11.854  1.00  0.00     0.278 HD
ATOM     20  H11 UNL     1      -4.298  -0.735  12.979  1.00  0.00     0.278 HD
ENDBRANCH  11  14
ENDBRANCH   8  10
ENDBRANCH   7   8
ENDBRANCH   1   7
BRANCH   4  21
HETATM   21  C11 UNL     1      -3.187   8.211  12.739  1.00  0.00     0.365 C 
BRANCH  21  22
HETATM   22  C12 UNL     1      -3.895   8.581  11.490  1.00  0.00    -0.074 C 
HETATM   23  C13 UNL     1      -4.453   8.876  10.461  1.00  0.00    -0.074 C 
BRANCH  23  24
HETATM   24  C14 UNL     1      -5.112   9.227   9.189  1.00  0.00     0.366 C 
BRANCH  24  25
HETATM   25  N5  UNL     1      -6.488   8.781   9.164  1.00  0.00     0.103 N 
HETATM   26  C15 UNL     1      -7.286   9.481   8.207  1.00  0.00     0.299 C 
HETATM   27  C16 UNL     1      -8.686   8.978   8.093  1.00  0.00     0.198 C 
HETATM   28  O2  UNL     1      -8.902   7.768   8.754  1.00  0.00    -0.388 OA
HETATM   29  C17 UNL     1      -7.877   6.861   8.510  1.00  0.00     0.198 C 
HETATM   30  C18 UNL     1      -6.622   7.363   9.180  1.00  0.00     0.299 C 
ENDBRANCH  24  25
ENDBRANCH  23  24
ENDBRANCH  21  22
ENDBRANCH   4  21
TORSDOF 8
ENDMDL
MODEL 5
REMARK VINA RESULT: -6.136499720      1.836      5.562
REMARK  8 active torsions:
REMARK  status: ('A' for Active; 'I' for Inactive)
REMARK    1  A    between atoms: C4_7  and  C5_8 
REMARK       I    between atoms: C5_8  and  N2_10 
REMARK    2  A    between atoms: N2_10  and  C6_12 
REMARK    3  A    between atoms: C6_12  and  C8_14 
REMARK    4  A    between atoms: C8_14  and  N3_15 
REMARK    5  A    between atoms: N4_18  and  C11_19 
REMARK    6  A    between atoms: C11_19  and  C12_20 
REMARK    7  A    between atoms: C13_21  and  C14_22 
REMARK    8  A    between atoms: C14_22  and  N5_23 
ROOT
HETATM    1  N3  UNL     1      -3.344   7.128  13.074  1.00  0.00     0.093 N 
HETATM    2  C9  UNL     1      -2.130   6.608  12.493  1.00  0.00     0.302 C 
HETATM    3  C10 UNL     1      -1.959   7.309  11.165  1.00  0.00     0.303 C 
HETATM    4  N4  UNL     1      -3.069   7.009  10.340  1.00  0.00     0.102 N 
HETATM    5  C19 UNL     1      -4.194   6.372  10.904  1.00  0.00     0.303 C 
HETATM    6  C20 UNL     1      -4.511   6.764  12.320  1.00  0.00     0.302 C 
ENDROOT
BRANCH   1   7
HETATM    7  C8  UNL     1      -3.450   6.969  14.478  1.00  0.00     0.297 C 
BRANCH   7   8
HETATM    8  C6  UNL     1      -4.600   6.017  14.765  1.00  0.00     0.108 C 
HETATM    9  C7  UNL     1      -5.525   6.708  15.773  1.00  0.00     0.034 C 
BRANCH   8  10
HETATM   10  N2  UNL     1      -4.133   4.766  15.315  1.00  0.00    -0.353 N 
HETATM   11  C5  UNL     1      -4.897   3.573  15.203  1.00  0.00     0.253 C 
HETATM   12  O1  UNL     1      -6.002   3.628  14.609  1.00  0.00    -0.271 OA
ATOM     13  H2  UNL     1      -3.233   4.738  15.795  1.00  0.00     0.163 HD
BRANCH  11  14
HETATM   14  C4  UNL     1      -4.344   2.326  15.800  1.00  0.00     0.307 C 
HETATM   15  C2  UNL     1      -5.270   1.640  16.732  1.00  0.00    -0.025 C 
HETATM   16  C1  UNL     1      -6.136   1.979  17.660  1.00  0.00     0.018 C 
HETATM   17  C3  UNL     1      -4.768   0.382  16.135  1.00  0.00     0.269 C 
HETATM   18  N1  UNL     1      -4.485   1.159  14.916  1.00  0.00    -0.055 N 
ATOM     19  H12 UNL     1      -3.744   0.887  14.270  1.00  0.00     0.278 HD
ATOM     20  H11 UNL     1      -5.130   1.163  14.125  1.00  0.00     0.278 HD
ENDBRANCH  11  14
ENDBRANCH   8  10
ENDBRANCH   7   8
ENDBRANCH   1   7
BRANCH   4  21
HETATM   21  C11 UNL     1      -2.610   6.303   9.165  1.00  0.00     0.365 C 
BRANCH  21  22
HETATM   22  C12 UNL     1      -2.310   4.914   9.589  1.00  0.00    -0.074 C 
HETATM   23  C13 UNL     1      -2.043   3.788   9.931  1.00  0.00    -0.074 C 
BRANCH  23  24
HETATM   24  C14 UNL     1      -1.689   2.418  10.348  1.00  0.00     0.366 C 
BRANCH  24  25
HETATM   25  N5  UNL     1      -2.757   1.800  11.103  1.00  0.00     0.103 N 
HETATM   26  C15 UNL     1      -4.046   2.328  10.786  1.00  0.00     0.299 C 
HETATM   27  C16 UNL     1      -5.175   1.644  11.481  1.00  0.00     0.198 C 
HETATM   28  O2  UNL     1      -4.803   0.462  12.124  1.00  0.00    -0.388 OA
HETATM   29  C17 UNL     1      -3.981  -0.321  11.321  1.00  0.00     0.198 C 
HETATM   30  C18 UNL     1      -2.654   0.380  11.165  1.00  0.00     0.299 C 
ENDBRANCH  24  25
ENDBRANCH  23  24
ENDBRANCH  21  22
ENDBRANCH   4  21
TORSDOF 8
ENDMDL
