MODEL 1
REMARK VINA RESULT: -7.955597301      0.000      0.000
REMARK  6 active torsions:
REMARK  status: ('A' for Active; 'I' for Inactive)
REMARK    1  A    between atoms: C2_2  and  C4_4 
REMARK    2  A    between atoms: C15_16  and  O2_17 
REMARK    3  A    between atoms: C18_22  and  O4_23 
REMARK    4  A    between atoms: C19_25  and  C20_26 
REMARK    5  A    between atoms: C20_26  and  O5_27 
REMARK    6  A    between atoms: O5_27  and  C21_28 
ROOT
HETATM    1  C4  UNL     1      -4.374   3.863  15.350  1.00  0.00    -0.069 C 
HETATM    2  C5  UNL     1      -4.907   5.128  14.701  1.00  0.00     0.048 C 
HETATM    3  C6  UNL     1      -3.687   5.618  13.965  1.00  0.00     0.005 C 
HETATM    4  C7  UNL     1      -2.582   4.827  14.480  1.00  0.00     0.023 C 
HETATM    5  C8  UNL     1      -3.230   3.416  14.517  1.00  0.00     0.025 C 
HETATM    6  C9  UNL     1      -3.316   2.833  13.212  1.00  0.00     0.055 C 
HETATM    7  C10 UNL     1      -2.871   3.709  12.025  1.00  0.00     0.132 C 
HETATM    8  C11 UNL     1      -2.519   2.867  10.813  1.00  0.00     0.067 C 
HETATM    9  C12 UNL     1      -3.128   1.523  10.759  1.00  0.00     0.162 A 
HETATM   10  O1  UNL     1      -4.446   1.511  10.306  1.00  0.00    -0.367 OA
HETATM   11  C13 UNL     1      -4.059   1.063  11.669  1.00  0.00     0.110 A 
HETATM   12  C14 UNL     1      -4.282  -0.417  11.880  1.00  0.00     0.051 C 
HETATM   13  C15 UNL     1      -4.501   2.034  12.776  1.00  0.00     0.162 C 
HETATM   14  O3  UNL     1      -3.737   4.704  11.719  1.00  0.00    -0.371 OA
HETATM   15  C16 UNL     1      -3.912   5.746  12.524  1.00  0.00     0.092 C 
HETATM   16  C17 UNL     1      -5.300   6.370  12.258  1.00  0.00     0.050 C 
HETATM   17  C18 UNL     1      -2.943   6.905  12.537  1.00  0.00     0.160 C 
HETATM   18  C19 UNL     1      -3.397   7.097  14.004  1.00  0.00     0.053 C 
ENDROOT
BRANCH  18  19
HETATM   19  C20 UNL     1      -2.226   7.500  14.833  1.00  0.00     0.186 C 
BRANCH  19  20
HETATM   20  O5  UNL     1      -2.415   8.667  15.581  1.00  0.00    -0.321 OA
BRANCH  20  21
HETATM   21  C21 UNL     1      -1.704   9.812  15.360  1.00  0.00     0.254 C 
HETATM   22  C22 UNL     1      -2.228  10.840  14.428  1.00  0.00     0.126 C 
HETATM   23  O6  UNL     1      -0.615  10.002  15.934  1.00  0.00    -0.266 OA
ENDBRANCH  20  21
ENDBRANCH  19  20
ENDBRANCH  18  19
BRANCH  17  24
HETATM   24  O4  UNL     1      -1.613   6.641  12.396  1.00  0.00    -0.392 OA
ATOM     25  H4  UNL     1      -1.026   7.364  12.206  1.00  0.00     0.210 HD
ENDBRANCH  17  24
BRANCH   1  26
HETATM   26  C2  UNL     1      -5.309   2.946  15.917  1.00  0.00    -0.069 C 
HETATM   27  C1  UNL     1      -6.582   3.240  16.012  1.00  0.00     0.018 C 
HETATM   28  C3  UNL     1      -4.864   1.625  16.417  1.00  0.00     0.047 C 
ENDBRANCH   1  26
BRANCH  13  29
HETATM   29  O2  UNL     1      -5.532   2.747  12.224  1.00  0.00    -0.392 OA
ATOM     30  H2  UNL     1      -6.407   2.455  12.452  1.00  0.00     0.210 HD
ENDBRANCH  13  29
TORSDOF 6
ENDMDL
MODEL 2
REMARK VINA RESULT: -7.805391964      1.021      1.203
REMARK  6 active torsions:
REMARK  status: ('A' for Active; 'I' for Inactive)
REMARK    1  A    between atoms: C2_2  and  C4_4 
REMARK    2  A    between atoms: C15_16  and  O2_17 
REMARK    3  A    between atoms: C18_22  and  O4_23 
REMARK    4  A    between atoms: C19_25  and  C20_26 
REMARK    5  A    between atoms: C20_26  and  O5_27 
REMARK    6  A    between atoms: O5_27  and  C21_28 
ROOT
HETATM    1  C4  UNL     1      -4.294   4.198  14.592  1.00  0.00    -0.069 C 
HETATM    2  C5  UNL     1      -4.759   5.310  13.669  1.00  0.00     0.048 C 
HETATM    3  C6  UNL     1      -3.504   5.583  12.880  1.00  0.00     0.005 C 
HETATM    4  C7  UNL     1      -2.445   4.884  13.588  1.00  0.00     0.023 C 
HETATM    5  C8  UNL     1      -3.151   3.539  13.910  1.00  0.00     0.025 C 
HETATM    6  C9  UNL     1      -3.234   2.689  12.760  1.00  0.00     0.055 C 
HETATM    7  C10 UNL     1      -2.727   3.269  11.425  1.00  0.00     0.132 C 
HETATM    8  C11 UNL     1      -2.385   2.171  10.436  1.00  0.00     0.067 C 
HETATM    9  C12 UNL     1      -3.049   0.870  10.657  1.00  0.00     0.162 A 
HETATM   10  O1  UNL     1      -4.356   0.808  10.178  1.00  0.00    -0.367 OA
HETATM   11  C13 UNL     1      -4.017   0.654  11.617  1.00  0.00     0.110 A 
HETATM   12  C14 UNL     1      -4.306  -0.736  12.137  1.00  0.00     0.051 C 
HETATM   13  C15 UNL     1      -4.441   1.858  12.473  1.00  0.00     0.162 C 
HETATM   14  O3  UNL     1      -3.544   4.204  10.886  1.00  0.00    -0.371 OA
HETATM   15  C16 UNL     1      -3.693   5.402  11.440  1.00  0.00     0.092 C 
HETATM   16  C17 UNL     1      -5.048   6.003  11.004  1.00  0.00     0.050 C 
HETATM   17  C18 UNL     1      -2.677   6.501  11.230  1.00  0.00     0.160 C 
HETATM   18  C19 UNL     1      -3.153   7.024  12.606  1.00  0.00     0.053 C 
ENDROOT
BRANCH  18  19
HETATM   19  C20 UNL     1      -1.985   7.555  13.362  1.00  0.00     0.186 C 
BRANCH  19  20
HETATM   20  O5  UNL     1      -2.260   8.680  14.147  1.00  0.00    -0.321 OA
BRANCH  20  21
HETATM   21  C21 UNL     1      -2.419   8.615  15.502  1.00  0.00     0.254 C 
HETATM   22  C22 UNL     1      -3.569   7.875  16.078  1.00  0.00     0.126 C 
HETATM   23  O6  UNL     1      -1.607   9.173  16.263  1.00  0.00    -0.266 OA
ENDBRANCH  20  21
ENDBRANCH  19  20
ENDBRANCH  18  19
BRANCH  17  24
HETATM   24  O4  UNL     1      -1.356   6.164  11.189  1.00  0.00    -0.392 OA
ATOM     25  H4  UNL     1      -1.104   5.382  10.713  1.00  0.00     0.210 HD
ENDBRANCH  17  24
BRANCH   1  26
HETATM   26  C2  UNL     1      -5.278   3.461  15.316  1.00  0.00    -0.069 C 
HETATM   27  C1  UNL     1      -6.537   3.819  15.312  1.00  0.00     0.018 C 
HETATM   28  C3  UNL     1      -4.900   2.261  16.097  1.00  0.00     0.047 C 
ENDBRANCH   1  26
BRANCH  13  29
HETATM   29  O2  UNL     1      -5.430   2.470  11.749  1.00  0.00    -0.392 OA
ATOM     30  H2  UNL     1      -5.542   2.161  10.858  1.00  0.00     0.210 HD
ENDBRANCH  13  29
TORSDOF 6
ENDMDL
MODEL 3
REMARK VINA RESULT: -7.525896882      2.829      5.260
REMARK  6 active torsions:
REMARK  status: ('A' for Active; 'I' for Inactive)
REMARK    1  A    between atoms: C2_2  and  C4_4 
REMARK    2  A    between atoms: C15_16  and  O2_17 
REMARK    3  A    between atoms: C18_22  and  O4_23 
REMARK    4  A    between atoms: C19_25  and  C20_26 
REMARK    5  A    between atoms: C20_26  and  O5_27 
REMARK    6  A    between atoms: O5_27  and  C21_28 
ROOT
HETATM    1  C4  UNL     1      -4.085   5.127  14.165  1.00  0.00    -0.069 C 
HETATM    2  C5  UNL     1      -4.500   4.608  12.800  1.00  0.00     0.048 C 
HETATM    3  C6  UNL     1      -3.595   3.412  12.652  1.00  0.00     0.005 C 
HETATM    4  C7  UNL     1      -2.610   3.541  13.712  1.00  0.00     0.023 C 
HETATM    5  C8  UNL     1      -3.516   3.967  14.898  1.00  0.00     0.025 C 
HETATM    6  C9  UNL     1      -4.257   2.863  15.430  1.00  0.00     0.055 C 
HETATM    7  C10 UNL     1      -4.119   1.513  14.698  1.00  0.00     0.132 C 
HETATM    8  C11 UNL     1      -4.499   0.352  15.598  1.00  0.00     0.067 C 
HETATM    9  C12 UNL     1      -5.392   0.674  16.730  1.00  0.00     0.162 A 
HETATM   10  O1  UNL     1      -6.739   0.767  16.386  1.00  0.00    -0.367 OA
HETATM   11  C13 UNL     1      -5.965   1.914  16.928  1.00  0.00     0.110 A 
HETATM   12  C14 UNL     1      -6.445   2.345  18.296  1.00  0.00     0.051 C 
HETATM   13  C15 UNL     1      -5.674   3.001  15.880  1.00  0.00     0.162 C 
HETATM   14  O3  UNL     1      -4.759   1.466  13.507  1.00  0.00    -0.371 OA
HETATM   15  C16 UNL     1      -4.336   2.165  12.460  1.00  0.00     0.092 C 
HETATM   16  C17 UNL     1      -5.513   2.392  11.486  1.00  0.00     0.050 C 
HETATM   17  C18 UNL     1      -3.188   1.686  11.602  1.00  0.00     0.160 C 
HETATM   18  C19 UNL     1      -2.957   3.186  11.304  1.00  0.00     0.053 C 
ENDROOT
BRANCH  18  19
HETATM   19  C20 UNL     1      -1.493   3.454  11.233  1.00  0.00     0.186 C 
BRANCH  19  20
HETATM   20  O5  UNL     1      -1.109   4.333  10.214  1.00  0.00    -0.321 OA
BRANCH  20  21
HETATM   21  C21 UNL     1      -1.381   4.101   8.896  1.00  0.00     0.254 C 
HETATM   22  C22 UNL     1      -2.169   5.088   8.118  1.00  0.00     0.126 C 
HETATM   23  O6  UNL     1      -0.974   3.065   8.338  1.00  0.00    -0.266 OA
ENDBRANCH  20  21
ENDBRANCH  19  20
ENDBRANCH  18  19
BRANCH  17  24
HETATM   24  O4  UNL     1      -2.134   1.070  12.212  1.00  0.00    -0.392 OA
ATOM     25  H4  UNL     1      -1.506   0.607  11.671  1.00  0.00     0.210 HD
ENDBRANCH  17  24
BRANCH   1  26
HETATM   26  C2  UNL     1      -4.911   6.100  14.801  1.00  0.00    -0.069 C 
HETATM   27  C1  UNL     1      -4.428   6.931  15.690  1.00  0.00     0.018 C 
HETATM   28  C3  UNL     1      -6.352   6.200  14.471  1.00  0.00     0.047 C 
ENDBRANCH   1  26
BRANCH  13  29
HETATM   29  O2  UNL     1      -6.629   2.819  14.915  1.00  0.00    -0.392 OA
ATOM     30  H2  UNL     1      -7.477   2.522  15.222  1.00  0.00     0.210 HD
ENDBRANCH  13  29
TORSDOF 6
ENDMDL
MODEL 4
REMARK VINA RESULT: -7.515275978      2.116      6.210
REMARK  6 active torsions:
REMARK  status: ('A' for Active; 'I' for Inactive)
REMARK    1  A    between atoms: C2_2  and  C4_4 
REMARK    2  A    between atoms: C15_16  and  O2_17 
REMARK    3  A    between atoms: C18_22  and  O4_23 
REMARK    4  A    between atoms: C19_25  and  C20_26 
REMARK    5  A    between atoms: C20_26  and  O5_27 
REMARK    6  A    between atoms: O5_27  and  C21_28 
ROOT
HETATM    1  C4  UNL     1      -2.714   6.926  14.721  1.00  0.00    -0.069 C 
HETATM    2  C5  UNL     1      -2.090   5.657  14.170  1.00  0.00     0.048 C 
HETATM    3  C6  UNL     1      -3.315   4.832  13.870  1.00  0.00     0.005 C 
HETATM    4  C7  UNL     1      -4.413   5.522  14.523  1.00  0.00     0.023 C 
HETATM    5  C8  UNL     1      -4.086   6.996  14.158  1.00  0.00     0.025 C 
HETATM    6  C9  UNL     1      -4.423   7.299  12.799  1.00  0.00     0.055 C 
HETATM    7  C10 UNL     1      -4.933   6.132  11.930  1.00  0.00     0.132 C 
HETATM    8  C11 UNL     1      -5.720   6.633  10.733  1.00  0.00     0.067 C 
HETATM    9  C12 UNL     1      -5.435   8.017  10.304  1.00  0.00     0.162 A 
HETATM   10  O1  UNL     1      -4.288   8.148   9.524  1.00  0.00    -0.367 OA
HETATM   11  C13 UNL     1      -4.439   8.802  10.850  1.00  0.00     0.110 A 
HETATM   12  C14 UNL     1      -4.490  10.310  10.751  1.00  0.00     0.051 C 
HETATM   13  C15 UNL     1      -3.564   8.170  11.944  1.00  0.00     0.162 C 
HETATM   14  O3  UNL     1      -3.970   5.251  11.573  1.00  0.00    -0.371 OA
HETATM   15  C16 UNL     1      -3.401   4.443  12.461  1.00  0.00     0.092 C 
HETATM   16  C17 UNL     1      -2.011   4.012  11.944  1.00  0.00     0.050 C 
HETATM   17  C18 UNL     1      -4.076   3.170  12.917  1.00  0.00     0.160 C 
HETATM   18  C19 UNL     1      -3.271   3.367  14.224  1.00  0.00     0.053 C 
ENDROOT
BRANCH  18  19
HETATM   19  C20 UNL     1      -4.111   2.961  15.385  1.00  0.00     0.186 C 
BRANCH  19  20
HETATM   20  O5  UNL     1      -3.837   1.683  15.885  1.00  0.00    -0.321 OA
BRANCH  20  21
HETATM   21  C21 UNL     1      -4.817   0.777  16.177  1.00  0.00     0.254 C 
HETATM   22  C22 UNL     1      -5.771   1.049  17.279  1.00  0.00     0.126 C 
HETATM   23  O6  UNL     1      -4.918  -0.279  15.525  1.00  0.00    -0.266 OA
ENDBRANCH  20  21
ENDBRANCH  19  20
ENDBRANCH  18  19
BRANCH  17  24
HETATM   24  O4  UNL     1      -5.428   3.178  13.090  1.00  0.00    -0.392 OA
ATOM     25  H4  UNL     1      -5.848   2.389  13.412  1.00  0.00     0.210 HD
ENDBRANCH  17  24
BRANCH   1  26
HETATM   26  C2  UNL     1      -1.889   8.081  14.865  1.00  0.00    -0.069 C 
HETATM   27  C1  UNL     1      -2.123   8.976  15.792  1.00  0.00     0.018 C 
HETATM   28  C3  UNL     1      -0.734   8.301  13.965  1.00  0.00     0.047 C 
ENDBRANCH   1  26
BRANCH  13  29
HETATM   29  O2  UNL     1      -2.559   7.535  11.262  1.00  0.00    -0.392 OA
ATOM     30  H2  UNL     1      -1.815   8.076  11.022  1.00  0.00     0.210 HD
ENDBRANCH  13  29
TORSDOF 6
ENDMDL
MODEL 5
REMARK VINA RESULT: -7.476000998      2.203      6.014
REMARK  6 active torsions:
REMARK  status: ('A' for Active; 'I' for Inactive)
REMARK    1  A    between atoms: C2_2  and  C4_4 
REMARK    2  A    between atoms: C15_16  and  O2_17 
REMARK    3  A    between atoms: C18_22  and  O4_23 
REMARK    4  A    between atoms: C19_25  and  C20_26 
REMARK    5  A    between atoms: C20_26  and  O5_27 
REMARK    6  A    between atoms: O5_27  and  C21_28 
ROOT
HETATM    1  C4  UNL     1      -3.362   5.996  13.852  1.00  0.00    -0.069 C 
HETATM    2  C5  UNL     1      -2.579   4.948  13.081  1.00  0.00     0.048 C 
HETATM    3  C6  UNL     1      -3.694   4.139  12.469  1.00  0.00     0.005 C 
HETATM    4  C7  UNL     1      -4.902   4.570  13.151  1.00  0.00     0.023 C 
HETATM    5  C8  UNL     1      -4.683   6.107  13.184  1.00  0.00     0.025 C 
HETATM    6  C9  UNL     1      -4.933   6.710  11.910  1.00  0.00     0.055 C 
HETATM    7  C10 UNL     1      -5.258   5.761  10.740  1.00  0.00     0.132 C 
HETATM    8  C11 UNL     1      -5.987   6.485   9.622  1.00  0.00     0.067 C 
HETATM    9  C12 UNL     1      -5.797   7.949   9.567  1.00  0.00     0.162 A 
HETATM   10  O1  UNL     1      -4.605   8.346   8.963  1.00  0.00    -0.367 OA
HETATM   11  C13 UNL     1      -4.926   8.643  10.383  1.00  0.00     0.110 A 
HETATM   12  C14 UNL     1      -5.108  10.121  10.643  1.00  0.00     0.051 C 
HETATM   13  C15 UNL     1      -4.090   7.823  11.379  1.00  0.00     0.162 C 
HETATM   14  O3  UNL     1      -4.192   5.064  10.284  1.00  0.00    -0.371 OA
HETATM   15  C16 UNL     1      -3.627   4.104  11.007  1.00  0.00     0.092 C 
HETATM   16  C17 UNL     1      -2.165   3.910  10.548  1.00  0.00     0.050 C 
HETATM   17  C18 UNL     1      -4.217   2.714  11.075  1.00  0.00     0.160 C 
HETATM   18  C19 UNL     1      -3.544   2.638  12.466  1.00  0.00     0.053 C 
ENDROOT
BRANCH  18  19
HETATM   19  C20 UNL     1      -4.437   1.902  13.405  1.00  0.00     0.186 C 
BRANCH  19  20
HETATM   20  O5  UNL     1      -3.793   1.378  14.531  1.00  0.00    -0.321 OA
BRANCH  20  21
HETATM   21  C21 UNL     1      -4.342   1.418  15.781  1.00  0.00     0.254 C 
HETATM   22  C22 UNL     1      -5.411   2.398  16.089  1.00  0.00     0.126 C 
HETATM   23  O6  UNL     1      -3.953   0.637  16.670  1.00  0.00    -0.266 OA
ENDBRANCH  20  21
ENDBRANCH  19  20
ENDBRANCH  18  19
BRANCH  17  24
HETATM   24  O4  UNL     1      -5.574   2.586  11.104  1.00  0.00    -0.392 OA
ATOM     25  H4  UNL     1      -5.951   1.731  10.932  1.00  0.00     0.210 HD
ENDBRANCH  17  24
BRANCH   1  26
HETATM   26  C2  UNL     1      -2.661   7.134  14.352  1.00  0.00    -0.069 C 
HETATM   27  C1  UNL     1      -1.489   7.475  13.879  1.00  0.00     0.018 C 
HETATM   28  C3  UNL     1      -3.245   7.969  15.427  1.00  0.00     0.047 C 
ENDBRANCH   1  26
BRANCH  13  29
HETATM   29  O2  UNL     1      -2.978   7.447  10.673  1.00  0.00    -0.392 OA
ATOM     30  H2  UNL     1      -2.218   7.210  11.192  1.00  0.00     0.210 HD
ENDBRANCH  13  29
TORSDOF 6
ENDMDL
