MODEL 1
REMARK VINA RESULT: -8.050987957      0.000      0.000
REMARK  4 active torsions:
REMARK  status: ('A' for Active; 'I' for Inactive)
REMARK    1  A    between atoms: C2_2  and  C3_3 
REMARK    2  A    between atoms: C6_6  and  O1_7 
REMARK    3  A    between atoms: C16_22  and  O6_23 
REMARK    4  A    between atoms: C16_22  and  C17_25 
ROOT
HETATM    1  C3  UNL     1      -3.241   2.004  11.220  1.00  0.00     0.040 C 
HETATM    2  C4  UNL     1      -2.380   3.159  10.835  1.00  0.00     0.014 C 
HETATM    3  C5  UNL     1      -2.837   4.311  11.700  1.00  0.00     0.042 C 
HETATM    4  C6  UNL     1      -3.330   3.664  13.007  1.00  0.00     0.094 C 
HETATM    5  C7  UNL     1      -3.997   2.444  12.451  1.00  0.00     0.174 C 
HETATM    6  O2  UNL     1      -4.076   1.350  13.298  1.00  0.00    -0.310 OA
HETATM    7  C8  UNL     1      -4.442   1.154  14.608  1.00  0.00     0.291 C 
HETATM    8  O3  UNL     1      -4.914   0.003  14.814  1.00  0.00    -0.262 OA
HETATM    9  C9  UNL     1      -4.372   2.046  15.773  1.00  0.00     0.255 C 
HETATM   10  O4  UNL     1      -4.957   1.334  16.851  1.00  0.00    -0.338 OA
HETATM   11  C10 UNL     1      -6.161   1.924  17.122  1.00  0.00     0.158 C 
HETATM   12  C11 UNL     1      -6.130   2.697  18.431  1.00  0.00     0.078 C 
HETATM   13  C12 UNL     1      -7.299   0.914  17.202  1.00  0.00     0.078 C 
HETATM   14  O5  UNL     1      -6.448   2.792  16.101  1.00  0.00    -0.345 OA
HETATM   15  C13 UNL     1      -5.167   3.265  15.686  1.00  0.00     0.198 C 
HETATM   16  C14 UNL     1      -5.402   3.965  14.429  1.00  0.00     0.264 C 
HETATM   17  C15 UNL     1      -4.278   4.593  13.679  1.00  0.00     0.095 C 
HETATM   18  C16 UNL     1      -3.748   5.595  14.602  1.00  0.00     0.096 C 
HETATM   19  C20 UNL     1      -5.040   6.091  15.278  1.00  0.00     0.311 C 
HETATM   20  N1  UNL     1      -6.084   5.204  14.877  1.00  0.00     0.095 N 
HETATM   21  C21 UNL     1      -7.036   5.686  13.957  1.00  0.00     0.310 C 
ENDROOT
BRANCH  18  22
HETATM   22  O6  UNL     1      -2.910   4.986  15.533  1.00  0.00    -0.387 OA
ATOM     23  H6  UNL     1      -2.115   5.497  15.635  1.00  0.00     0.210 HD
ENDBRANCH  18  22
BRANCH  18  24
HETATM   24  C17 UNL     1      -3.042   6.781  14.092  1.00  0.00     0.014 C 
HETATM   25  C18 UNL     1      -2.905   7.766  15.268  1.00  0.00     0.012 C 
HETATM   26  C19 UNL     1      -3.665   7.518  12.970  1.00  0.00     0.012 C 
ENDBRANCH  18  24
BRANCH   4  27
HETATM   27  O1  UNL     1      -2.214   3.452  13.763  1.00  0.00    -0.387 OA
ATOM     28  H1  UNL     1      -2.346   3.943  14.566  1.00  0.00     0.210 HD
ENDBRANCH   4  27
BRANCH   1  29
HETATM   29  C2  UNL     1      -2.431   0.774  11.497  1.00  0.00    -0.030 C 
HETATM   30  C1  UNL     1      -2.759  -0.379  10.995  1.00  0.00     0.007 C 
ENDBRANCH   1  29
TORSDOF 4
ENDMDL
MODEL 2
REMARK VINA RESULT: -7.820072287      2.881      6.104
REMARK  4 active torsions:
REMARK  status: ('A' for Active; 'I' for Inactive)
REMARK    1  A    between atoms: C2_2  and  C3_3 
REMARK    2  A    between atoms: C6_6  and  O1_7 
REMARK    3  A    between atoms: C16_22  and  O6_23 
REMARK    4  A    between atoms: C16_22  and  C17_25 
ROOT
HETATM    1  C3  UNL     1      -3.780   4.278  15.043  1.00  0.00     0.040 C 
HETATM    2  C4  UNL     1      -5.159   4.846  15.080  1.00  0.00     0.014 C 
HETATM    3  C5  UNL     1      -5.280   5.697  13.838  1.00  0.00     0.042 C 
HETATM    4  C6  UNL     1      -4.372   5.022  12.795  1.00  0.00     0.094 C 
HETATM    5  C7  UNL     1      -3.232   4.614  13.676  1.00  0.00     0.174 C 
HETATM    6  O2  UNL     1      -2.490   3.524  13.252  1.00  0.00    -0.310 OA
HETATM    7  C8  UNL     1      -1.926   3.130  12.061  1.00  0.00     0.291 C 
HETATM    8  O3  UNL     1      -0.898   2.418  12.223  1.00  0.00    -0.262 OA
HETATM    9  C9  UNL     1      -2.320   3.399  10.671  1.00  0.00     0.255 C 
HETATM   10  O4  UNL     1      -1.326   2.798   9.857  1.00  0.00    -0.338 OA
HETATM   11  C10 UNL     1      -0.592   3.809   9.299  1.00  0.00     0.158 C 
HETATM   12  C11 UNL     1      -0.873   3.957   7.812  1.00  0.00     0.078 C 
HETATM   13  C12 UNL     1       0.908   3.603   9.474  1.00  0.00     0.078 C 
HETATM   14  O5  UNL     1      -0.927   4.977   9.934  1.00  0.00    -0.345 OA
HETATM   15  C13 UNL     1      -2.302   4.799  10.269  1.00  0.00     0.198 C 
HETATM   16  C14 UNL     1      -2.621   5.888  11.185  1.00  0.00     0.264 C 
HETATM   17  C15 UNL     1      -3.985   6.027  11.767  1.00  0.00     0.095 C 
HETATM   18  C16 UNL     1      -4.852   6.216  10.605  1.00  0.00     0.096 C 
HETATM   19  C20 UNL     1      -3.947   7.066   9.694  1.00  0.00     0.311 C 
HETATM   20  N1  UNL     1      -2.647   7.066  10.284  1.00  0.00     0.095 N 
HETATM   21  C21 UNL     1      -2.208   8.255  10.899  1.00  0.00     0.310 C 
ENDROOT
BRANCH  18  22
HETATM   22  O6  UNL     1      -5.128   4.986  10.014  1.00  0.00    -0.387 OA
ATOM     23  H6  UNL     1      -4.717   4.938   9.158  1.00  0.00     0.210 HD
ENDBRANCH  18  22
BRANCH  18  24
HETATM   24  C17 UNL     1      -6.131   6.932  10.737  1.00  0.00     0.014 C 
HETATM   25  C18 UNL     1      -6.801   6.917   9.350  1.00  0.00     0.012 C 
HETATM   26  C19 UNL     1      -6.083   8.340  11.189  1.00  0.00     0.012 C 
ENDBRANCH  18  24
BRANCH   4  27
HETATM   27  O1  UNL     1      -5.112   4.011  12.255  1.00  0.00    -0.387 OA
ATOM     28  H1  UNL     1      -4.485   3.381  11.918  1.00  0.00     0.210 HD
ENDBRANCH   4  27
BRANCH   1  29
HETATM   29  C2  UNL     1      -3.782   2.798  15.274  1.00  0.00    -0.030 C 
HETATM   30  C1  UNL     1      -4.670   2.233  16.037  1.00  0.00     0.007 C 
ENDBRANCH   1  29
TORSDOF 4
ENDMDL
MODEL 3
REMARK VINA RESULT: -7.725439705      2.445      4.186
REMARK  4 active torsions:
REMARK  status: ('A' for Active; 'I' for Inactive)
REMARK    1  A    between atoms: C2_2  and  C3_3 
REMARK    2  A    between atoms: C6_6  and  O1_7 
REMARK    3  A    between atoms: C16_22  and  O6_23 
REMARK    4  A    between atoms: C16_22  and  C17_25 
ROOT
HETATM    1  C3  UNL     1      -4.147   0.377  10.730  1.00  0.00     0.040 C 
HETATM    2  C4  UNL     1      -2.823   0.003  10.153  1.00  0.00     0.014 C 
HETATM    3  C5  UNL     1      -2.031   1.288  10.091  1.00  0.00     0.042 C 
HETATM    4  C6  UNL     1      -2.542   2.136  11.269  1.00  0.00     0.094 C 
HETATM    5  C7  UNL     1      -4.001   1.803  11.207  1.00  0.00     0.174 C 
HETATM    6  O2  UNL     1      -4.705   1.913  12.396  1.00  0.00    -0.310 OA
HETATM    7  C8  UNL     1      -4.794   2.852  13.395  1.00  0.00     0.291 C 
HETATM    8  O3  UNL     1      -5.917   2.848  13.967  1.00  0.00    -0.262 OA
HETATM    9  C9  UNL     1      -3.815   3.832  13.888  1.00  0.00     0.255 C 
HETATM   10  O4  UNL     1      -4.483   4.587  14.886  1.00  0.00    -0.338 OA
HETATM   11  C10 UNL     1      -4.700   5.837  14.372  1.00  0.00     0.158 C 
HETATM   12  C11 UNL     1      -3.806   6.879  15.025  1.00  0.00     0.078 C 
HETATM   13  C12 UNL     1      -6.146   6.290  14.537  1.00  0.00     0.078 C 
HETATM   14  O5  UNL     1      -4.429   5.797  13.029  1.00  0.00    -0.345 OA
HETATM   15  C13 UNL     1      -3.382   4.834  12.922  1.00  0.00     0.198 C 
HETATM   16  C14 UNL     1      -3.258   4.553  11.497  1.00  0.00     0.264 C 
HETATM   17  C15 UNL     1      -2.259   3.570  10.992  1.00  0.00     0.095 C 
HETATM   18  C16 UNL     1      -0.971   4.127  11.404  1.00  0.00     0.096 C 
HETATM   19  C20 UNL     1      -1.226   5.635  11.224  1.00  0.00     0.311 C 
HETATM   20  N1  UNL     1      -2.624   5.792  10.982  1.00  0.00     0.095 N 
HETATM   21  C21 UNL     1      -3.028   6.130   9.676  1.00  0.00     0.310 C 
ENDROOT
BRANCH  18  22
HETATM   22  O6  UNL     1      -0.730   3.825  12.741  1.00  0.00    -0.387 OA
ATOM     23  H6  UNL     1       0.008   4.333  13.060  1.00  0.00     0.210 HD
ENDBRANCH  18  22
BRANCH  18  24
HETATM   24  C17 UNL     1       0.255   3.802  10.657  1.00  0.00     0.014 C 
HETATM   25  C18 UNL     1       1.428   4.459  11.409  1.00  0.00     0.012 C 
HETATM   26  C19 UNL     1       0.334   4.241   9.246  1.00  0.00     0.012 C 
ENDBRANCH  18  24
BRANCH   4  27
HETATM   27  O1  UNL     1      -1.867   1.694  12.369  1.00  0.00    -0.387 OA
ATOM     28  H1  UNL     1      -1.429   2.456  12.729  1.00  0.00     0.210 HD
ENDBRANCH   4  27
BRANCH   1  29
HETATM   29  C2  UNL     1      -4.539  -0.530  11.856  1.00  0.00    -0.030 C 
HETATM   30  C1  UNL     1      -4.084  -1.745  11.935  1.00  0.00     0.007 C 
ENDBRANCH   1  29
TORSDOF 4
ENDMDL
MODEL 4
REMARK VINA RESULT: -7.303706141      2.424      3.788
REMARK  4 active torsions:
REMARK  status: ('A' for Active; 'I' for Inactive)
REMARK    1  A    between atoms: C2_2  and  C3_3 
REMARK    2  A    between atoms: C6_6  and  O1_7 
REMARK    3  A    between atoms: C16_22  and  O6_23 
REMARK    4  A    between atoms: C16_22  and  C17_25 
ROOT
HETATM    1  C3  UNL     1      -2.757   1.266  10.638  1.00  0.00     0.040 C 
HETATM    2  C4  UNL     1      -1.397   1.354  10.033  1.00  0.00     0.014 C 
HETATM    3  C5  UNL     1      -1.004   2.809  10.129  1.00  0.00     0.042 C 
HETATM    4  C6  UNL     1      -1.705   3.335  11.394  1.00  0.00     0.094 C 
HETATM    5  C7  UNL     1      -3.010   2.609  11.282  1.00  0.00     0.174 C 
HETATM    6  O2  UNL     1      -3.685   2.375  12.469  1.00  0.00    -0.310 OA
HETATM    7  C8  UNL     1      -4.012   3.129  13.572  1.00  0.00     0.291 C 
HETATM    8  O3  UNL     1      -5.072   2.739  14.130  1.00  0.00    -0.262 OA
HETATM    9  C9  UNL     1      -3.340   4.283  14.185  1.00  0.00     0.255 C 
HETATM   10  O4  UNL     1      -4.169   4.696  15.259  1.00  0.00    -0.338 OA
HETATM   11  C10 UNL     1      -4.745   5.883  14.894  1.00  0.00     0.158 C 
HETATM   12  C11 UNL     1      -4.168   7.054  15.673  1.00  0.00     0.078 C 
HETATM   13  C12 UNL     1      -6.255   5.883  15.100  1.00  0.00     0.078 C 
HETATM   14  O5  UNL     1      -4.508   6.077  13.558  1.00  0.00    -0.345 OA
HETATM   15  C13 UNL     1      -3.234   5.471  13.347  1.00  0.00     0.198 C 
HETATM   16  C14 UNL     1      -3.072   5.404  11.900  1.00  0.00     0.264 C 
HETATM   17  C15 UNL     1      -1.848   4.812  11.290  1.00  0.00     0.095 C 
HETATM   18  C16 UNL     1      -0.761   5.661  11.776  1.00  0.00     0.096 C 
HETATM   19  C20 UNL     1      -1.439   7.044  11.773  1.00  0.00     0.311 C 
HETATM   20  N1  UNL     1      -2.830   6.823  11.540  1.00  0.00     0.095 N 
HETATM   21  C21 UNL     1      -3.347   7.180  10.279  1.00  0.00     0.310 C 
ENDROOT
BRANCH  18  22
HETATM   22  O6  UNL     1      -0.410   5.289  13.071  1.00  0.00    -0.387 OA
ATOM     23  H6  UNL     1       0.536   5.274  13.158  1.00  0.00     0.210 HD
ENDBRANCH  18  22
BRANCH  18  24
HETATM   24  C17 UNL     1       0.487   5.788  11.006  1.00  0.00     0.014 C 
HETATM   25  C18 UNL     1       1.404   6.746  11.789  1.00  0.00     0.012 C 
HETATM   26  C19 UNL     1       0.388   6.304   9.623  1.00  0.00     0.012 C 
ENDBRANCH  18  24
BRANCH   4  27
HETATM   27  O1  UNL     1      -0.904   2.980  12.440  1.00  0.00    -0.387 OA
ATOM     28  H1  UNL     1      -0.476   3.780  12.724  1.00  0.00     0.210 HD
ENDBRANCH   4  27
BRANCH   1  29
HETATM   29  C2  UNL     1      -2.847   0.161  11.646  1.00  0.00    -0.030 C 
HETATM   30  C1  UNL     1      -3.312  -1.010  11.326  1.00  0.00     0.007 C 
ENDBRANCH   1  29
TORSDOF 4
ENDMDL
MODEL 5
REMARK VINA RESULT: -7.280413769      2.392      5.440
REMARK  4 active torsions:
REMARK  status: ('A' for Active; 'I' for Inactive)
REMARK    1  A    between atoms: C2_2  and  C3_3 
REMARK    2  A    between atoms: C6_6  and  O1_7 
REMARK    3  A    between atoms: C16_22  and  O6_23 
REMARK    4  A    between atoms: C16_22  and  C17_25 
ROOT
HETATM    1  C3  UNL     1      -4.049   5.405  14.875  1.00  0.00     0.040 C 
HETATM    2  C4  UNL     1      -4.071   6.725  14.180  1.00  0.00     0.014 C 
HETATM    3  C5  UNL     1      -3.420   6.486  12.838  1.00  0.00     0.042 C 
HETATM    4  C6  UNL     1      -3.750   5.026  12.482  1.00  0.00     0.094 C 
HETATM    5  C7  UNL     1      -3.616   4.398  13.836  1.00  0.00     0.174 C 
HETATM    6  O2  UNL     1      -4.350   3.243  14.051  1.00  0.00    -0.310 OA
HETATM    7  C8  UNL     1      -4.567   2.080  13.352  1.00  0.00     0.291 C 
HETATM    8  O3  UNL     1      -4.802   1.097  14.106  1.00  0.00    -0.262 OA
HETATM    9  C9  UNL     1      -4.568   1.807  11.908  1.00  0.00     0.255 C 
HETATM   10  O4  UNL     1      -4.780   0.412  11.771  1.00  0.00    -0.338 OA
HETATM   11  C10 UNL     1      -3.600  -0.139  11.349  1.00  0.00     0.158 C 
HETATM   12  C11 UNL     1      -3.674  -0.588   9.898  1.00  0.00     0.078 C 
HETATM   13  C12 UNL     1      -3.185  -1.340  12.190  1.00  0.00     0.078 C 
HETATM   14  O5  UNL     1      -2.620   0.812  11.471  1.00  0.00    -0.345 OA
HETATM   15  C13 UNL     1      -3.304   2.039  11.220  1.00  0.00     0.198 C 
HETATM   16  C14 UNL     1      -2.372   3.088  11.614  1.00  0.00     0.264 C 
HETATM   17  C15 UNL     1      -2.744   4.527  11.506  1.00  0.00     0.095 C 
HETATM   18  C16 UNL     1      -2.990   4.725  10.078  1.00  0.00     0.096 C 
HETATM   19  C20 UNL     1      -1.914   3.812   9.461  1.00  0.00     0.311 C 
HETATM   20  N1  UNL     1      -1.362   3.042  10.528  1.00  0.00     0.095 N 
HETATM   21  C21 UNL     1      -0.058   3.359  10.958  1.00  0.00     0.310 C 
ENDROOT
BRANCH  18  22
HETATM   22  O6  UNL     1      -4.265   4.273   9.749  1.00  0.00    -0.387 OA
ATOM     23  H6  UNL     1      -4.895   4.978   9.853  1.00  0.00     0.210 HD
ENDBRANCH  18  22
BRANCH  18  24
HETATM   24  C17 UNL     1      -2.830   6.056   9.471  1.00  0.00     0.014 C 
HETATM   25  C18 UNL     1      -3.068   5.894   7.958  1.00  0.00     0.012 C 
HETATM   26  C19 UNL     1      -1.526   6.734   9.642  1.00  0.00     0.012 C 
ENDBRANCH  18  24
BRANCH   4  27
HETATM   27  O1  UNL     1      -5.004   5.045  11.946  1.00  0.00    -0.387 OA
ATOM     28  H1  UNL     1      -5.281   4.137  11.898  1.00  0.00     0.210 HD
ENDBRANCH   4  27
BRANCH   1  29
HETATM   29  C2  UNL     1      -5.391   5.052  15.440  1.00  0.00    -0.030 C 
HETATM   30  C1  UNL     1      -6.318   5.951  15.595  1.00  0.00     0.007 C 
ENDBRANCH   1  29
TORSDOF 4
ENDMDL
