MODEL 1
REMARK VINA RESULT: -7.307754800      0.000      0.000
REMARK  4 active torsions:
REMARK  status: ('A' for Active; 'I' for Inactive)
REMARK    1  A    between atoms: N1_1  and  C1_4 
REMARK    2  A    between atoms: N4_12  and  C5_13 
REMARK       I    between atoms: N5_16  and  C8_17 
REMARK    3  A    between atoms: C8_17  and  C9_19 
REMARK    4  A    between atoms: N6_28  and  C17_29 
ROOT
HETATM    1  C1  UNL     1      -2.900   0.778  10.925  1.00  0.00     0.130 A 
HETATM    2  N2  UNL     1      -3.289  -0.508  11.001  1.00  0.00    -0.337 N 
ATOM      3  H2  UNL     1      -3.026  -1.182  10.283  1.00  0.00     0.168 HD
HETATM    4  C2  UNL     1      -4.049  -0.878  12.078  1.00  0.00     0.183 A 
HETATM    5  N3  UNL     1      -4.380   0.031  13.009  1.00  0.00    -0.337 N 
ATOM      6  H3  UNL     1      -4.948  -0.287  13.794  1.00  0.00     0.168 HD
HETATM    7  C3  UNL     1      -4.025   1.321  12.988  1.00  0.00     0.135 A 
HETATM    8  C4  UNL     1      -3.239   1.711  11.879  1.00  0.00     0.119 A 
HETATM    9  N4  UNL     1      -2.818   3.072  11.778  1.00  0.00    -0.368 N 
HETATM   10  C15 UNL     1      -3.777   3.960  12.444  1.00  0.00     0.143 C 
HETATM   11  C16 UNL     1      -3.926   3.593  13.899  1.00  0.00     0.145 C 
HETATM   12  N6  UNL     1      -4.419   2.226  13.997  1.00  0.00    -0.359 N 
ENDROOT
BRANCH   9  13
HETATM   13  C5  UNL     1      -1.639   3.458  11.116  1.00  0.00     0.088 C 
HETATM   14  C6  UNL     1      -0.643   3.912  12.227  1.00  0.00     0.045 C 
HETATM   15  C7  UNL     1       0.280   4.968  11.774  1.00  0.00     0.127 C 
HETATM   16  N5  UNL     1       0.646   4.733  10.387  1.00  0.00    -0.352 N 
HETATM   17  C8  UNL     1       1.957   4.363   9.998  1.00  0.00     0.226 C 
HETATM   18  C13 UNL     1      -0.466   4.925   9.465  1.00  0.00     0.127 C 
HETATM   19  O1  UNL     1       2.783   4.255  10.975  1.00  0.00    -0.273 OA
HETATM   20  C14 UNL     1      -1.746   4.721  10.300  1.00  0.00     0.045 C 
BRANCH  17  21
HETATM   21  C9  UNL     1       2.451   4.102   8.655  1.00  0.00     0.104 A 
HETATM   22  C10 UNL     1       3.799   3.439   8.576  1.00  0.00     0.042 A 
HETATM   23  C11 UNL     1       4.558   4.237   7.574  1.00  0.00     0.168 A 
HETATM   24  O2  UNL     1       3.789   5.272   7.136  1.00  0.00    -0.390 OA
HETATM   25  C12 UNL     1       2.561   5.256   7.735  1.00  0.00     0.181 A 
ENDBRANCH  17  21
ENDBRANCH   9  13
BRANCH   1  26
HETATM   26  N1  UNL     1      -2.214   1.184   9.931  1.00  0.00    -0.383 N 
ATOM     27  H12 UNL     1      -1.224   1.365  10.091  1.00  0.00     0.157 HD
ATOM     28  H11 UNL     1      -2.660   1.337   9.027  1.00  0.00     0.157 HD
ENDBRANCH   1  26
BRANCH  12  29
HETATM   29  C17 UNL     1      -5.281   1.933  15.095  1.00  0.00     0.086 C 
HETATM   30  C18 UNL     1      -4.734   1.639  16.454  1.00  0.00     0.025 C 
HETATM   31  C19 UNL     1      -5.976   2.353  17.074  1.00  0.00     0.004 C 
HETATM   32  C20 UNL     1      -6.029   3.096  15.732  1.00  0.00     0.025 C 
ENDBRANCH  12  29
TORSDOF 4
ENDMDL
MODEL 2
REMARK VINA RESULT: -7.171932885      1.069      1.151
REMARK  4 active torsions:
REMARK  status: ('A' for Active; 'I' for Inactive)
REMARK    1  A    between atoms: N1_1  and  C1_4 
REMARK    2  A    between atoms: N4_12  and  C5_13 
REMARK       I    between atoms: N5_16  and  C8_17 
REMARK    3  A    between atoms: C8_17  and  C9_19 
REMARK    4  A    between atoms: N6_28  and  C17_29 
ROOT
HETATM    1  C1  UNL     1      -2.474   1.532  10.900  1.00  0.00     0.130 A 
HETATM    2  N2  UNL     1      -2.850   0.247  11.024  1.00  0.00    -0.337 N 
ATOM      3  H2  UNL     1      -2.453  -0.480  10.430  1.00  0.00     0.168 HD
HETATM    4  C2  UNL     1      -3.787  -0.050  11.978  1.00  0.00     0.183 A 
HETATM    5  N3  UNL     1      -4.295   0.927  12.746  1.00  0.00    -0.337 N 
ATOM      6  H3  UNL     1      -4.990   0.662  13.443  1.00  0.00     0.168 HD
HETATM    7  C3  UNL     1      -3.961   2.221  12.669  1.00  0.00     0.135 A 
HETATM    8  C4  UNL     1      -2.993   2.535  11.687  1.00  0.00     0.119 A 
HETATM    9  N4  UNL     1      -2.581   3.894  11.536  1.00  0.00    -0.368 N 
HETATM   10  C15 UNL     1      -3.658   4.807  11.935  1.00  0.00     0.143 C 
HETATM   11  C16 UNL     1      -4.062   4.567  13.368  1.00  0.00     0.145 C 
HETATM   12  N6  UNL     1      -4.544   3.199  13.503  1.00  0.00    -0.359 N 
ENDROOT
BRANCH   9  13
HETATM   13  C5  UNL     1      -1.308   4.257  11.063  1.00  0.00     0.088 C 
HETATM   14  C6  UNL     1      -0.442   4.559  12.324  1.00  0.00     0.045 C 
HETATM   15  C7  UNL     1       0.585   5.588  12.082  1.00  0.00     0.127 C 
HETATM   16  N5  UNL     1       1.116   5.440  10.737  1.00  0.00    -0.352 N 
HETATM   17  C8  UNL     1       2.445   5.021  10.485  1.00  0.00     0.226 C 
HETATM   18  C13 UNL     1       0.144   5.773   9.703  1.00  0.00     0.127 C 
HETATM   19  O1  UNL     1       3.130   4.786  11.544  1.00  0.00    -0.273 OA
HETATM   20  C14 UNL     1      -1.243   5.584  10.350  1.00  0.00     0.045 C 
BRANCH  17  21
HETATM   21  C9  UNL     1       3.095   4.835   9.197  1.00  0.00     0.104 A 
HETATM   22  C10 UNL     1       3.056   3.437   8.644  1.00  0.00     0.042 A 
HETATM   23  C11 UNL     1       4.454   3.157   8.216  1.00  0.00     0.168 A 
HETATM   24  O2  UNL     1       5.246   4.226   8.510  1.00  0.00    -0.390 OA
HETATM   25  C12 UNL     1       4.519   5.227   9.092  1.00  0.00     0.181 A 
ENDBRANCH  17  21
ENDBRANCH   9  13
BRANCH   1  26
HETATM   26  N1  UNL     1      -1.625   1.870  10.011  1.00  0.00    -0.383 N 
ATOM     27  H12 UNL     1      -1.585   1.300   9.166  1.00  0.00     0.157 HD
ATOM     28  H11 UNL     1      -1.007   2.665  10.166  1.00  0.00     0.157 HD
ENDBRANCH   1  26
BRANCH  12  29
HETATM   29  C17 UNL     1      -5.586   2.977  14.452  1.00  0.00     0.086 C 
HETATM   30  C18 UNL     1      -5.285   2.524  15.843  1.00  0.00     0.025 C 
HETATM   31  C19 UNL     1      -6.486   3.382  16.349  1.00  0.00     0.004 C 
HETATM   32  C20 UNL     1      -6.241   4.202  15.076  1.00  0.00     0.025 C 
ENDBRANCH  12  29
TORSDOF 4
ENDMDL
MODEL 3
REMARK VINA RESULT: -7.153765245      1.023      1.134
REMARK  4 active torsions:
REMARK  status: ('A' for Active; 'I' for Inactive)
REMARK    1  A    between atoms: N1_1  and  C1_4 
REMARK    2  A    between atoms: N4_12  and  C5_13 
REMARK       I    between atoms: N5_16  and  C8_17 
REMARK    3  A    between atoms: C8_17  and  C9_19 
REMARK    4  A    between atoms: N6_28  and  C17_29 
ROOT
HETATM    1  C1  UNL     1      -3.008   1.420  11.275  1.00  0.00     0.130 A 
HETATM    2  N2  UNL     1      -3.281   0.104  11.238  1.00  0.00    -0.337 N 
ATOM      3  H2  UNL     1      -2.941  -0.486  10.479  1.00  0.00     0.168 HD
HETATM    4  C2  UNL     1      -4.034  -0.417  12.258  1.00  0.00     0.183 A 
HETATM    5  N3  UNL     1      -4.469   0.382  13.245  1.00  0.00    -0.337 N 
ATOM      6  H3  UNL     1      -5.026  -0.046  13.984  1.00  0.00     0.168 HD
HETATM    7  C3  UNL     1      -4.230   1.696  13.336  1.00  0.00     0.135 A 
HETATM    8  C4  UNL     1      -3.453   2.241  12.287  1.00  0.00     0.119 A 
HETATM    9  N4  UNL     1      -3.152   3.636  12.306  1.00  0.00    -0.368 N 
HETATM   10  C15 UNL     1      -4.204   4.381  13.007  1.00  0.00     0.143 C 
HETATM   11  C16 UNL     1      -4.358   3.887  14.424  1.00  0.00     0.145 C 
HETATM   12  N6  UNL     1      -4.729   2.479  14.399  1.00  0.00    -0.359 N 
ENDROOT
BRANCH   9  13
HETATM   13  C5  UNL     1      -1.997   4.176  11.715  1.00  0.00     0.088 C 
HETATM   14  C6  UNL     1      -1.174   4.820  12.873  1.00  0.00     0.045 C 
HETATM   15  C7  UNL     1      -0.388   5.989  12.438  1.00  0.00     0.127 C 
HETATM   16  N5  UNL     1       0.121   5.761  11.096  1.00  0.00    -0.352 N 
HETATM   17  C8  UNL     1       1.499   5.585  10.825  1.00  0.00     0.226 C 
HETATM   18  C13 UNL     1      -0.930   5.744  10.086  1.00  0.00     0.127 C 
HETATM   19  O1  UNL     1       2.250   5.643  11.864  1.00  0.00    -0.273 OA
HETATM   20  C14 UNL     1      -2.227   5.375  10.831  1.00  0.00     0.045 C 
BRANCH  17  21
HETATM   21  C9  UNL     1       2.135   5.353   9.537  1.00  0.00     0.104 A 
HETATM   22  C10 UNL     1       2.102   3.934   9.040  1.00  0.00     0.042 A 
HETATM   23  C11 UNL     1       3.497   3.649   8.606  1.00  0.00     0.168 A 
HETATM   24  O2  UNL     1       4.282   4.734   8.847  1.00  0.00    -0.390 OA
HETATM   25  C12 UNL     1       3.554   5.752   9.398  1.00  0.00     0.181 A 
ENDBRANCH  17  21
ENDBRANCH   9  13
BRANCH   1  26
HETATM   26  N1  UNL     1      -2.335   1.963  10.339  1.00  0.00    -0.383 N 
ATOM     27  H12 UNL     1      -1.405   2.308  10.573  1.00  0.00     0.157 HD
ATOM     28  H11 UNL     1      -2.736   2.058   9.406  1.00  0.00     0.157 HD
ENDBRANCH   1  26
BRANCH  12  29
HETATM   29  C17 UNL     1      -5.590   2.025  15.442  1.00  0.00     0.086 C 
HETATM   30  C18 UNL     1      -5.051   1.651  16.784  1.00  0.00     0.025 C 
HETATM   31  C19 UNL     1      -6.357   2.212  17.430  1.00  0.00     0.004 C 
HETATM   32  C20 UNL     1      -6.438   3.067  16.158  1.00  0.00     0.025 C 
ENDBRANCH  12  29
TORSDOF 4
ENDMDL
MODEL 4
REMARK VINA RESULT: -6.865717670      6.134      8.699
REMARK  4 active torsions:
REMARK  status: ('A' for Active; 'I' for Inactive)
REMARK    1  A    between atoms: N1_1  and  C1_4 
REMARK    2  A    between atoms: N4_12  and  C5_13 
REMARK       I    between atoms: N5_16  and  C8_17 
REMARK    3  A    between atoms: C8_17  and  C9_19 
REMARK    4  A    between atoms: N6_28  and  C17_29 
ROOT
HETATM    1  C1  UNL     1      -6.733   7.174   8.876  1.00  0.00     0.130 A 
HETATM    2  N2  UNL     1      -7.871   7.381   8.190  1.00  0.00    -0.337 N 
ATOM      3  H2  UNL     1      -8.381   6.607   7.766  1.00  0.00     0.168 HD
HETATM    4  C2  UNL     1      -8.320   8.671   8.082  1.00  0.00     0.183 A 
HETATM    5  N3  UNL     1      -7.629   9.671   8.651  1.00  0.00    -0.337 N 
ATOM      6  H3  UNL     1      -7.998  10.616   8.546  1.00  0.00     0.168 HD
HETATM    7  C3  UNL     1      -6.493   9.527   9.343  1.00  0.00     0.135 A 
HETATM    8  C4  UNL     1      -6.023   8.198   9.459  1.00  0.00     0.119 A 
HETATM    9  N4  UNL     1      -4.815   7.955  10.182  1.00  0.00    -0.368 N 
HETATM   10  C15 UNL     1      -3.932   9.125  10.118  1.00  0.00     0.143 C 
HETATM   11  C16 UNL     1      -4.614  10.344  10.687  1.00  0.00     0.145 C 
HETATM   12  N6  UNL     1      -5.810  10.627   9.906  1.00  0.00    -0.359 N 
ENDROOT
BRANCH   9  13
HETATM   13  C5  UNL     1      -4.552   6.743  10.844  1.00  0.00     0.088 C 
HETATM   14  C6  UNL     1      -5.349   6.795  12.183  1.00  0.00     0.045 C 
HETATM   15  C7  UNL     1      -4.690   6.050  13.272  1.00  0.00     0.127 C 
HETATM   16  N5  UNL     1      -4.064   4.855  12.734  1.00  0.00    -0.352 N 
HETATM   17  C8  UNL     1      -4.526   3.551  13.036  1.00  0.00     0.226 C 
HETATM   18  C13 UNL     1      -2.924   5.149  11.873  1.00  0.00     0.127 C 
HETATM   19  O1  UNL     1      -5.542   3.523  13.821  1.00  0.00    -0.273 OA
HETATM   20  C14 UNL     1      -3.144   6.585  11.358  1.00  0.00     0.045 C 
BRANCH  17  21
HETATM   21  C9  UNL     1      -3.992   2.281  12.569  1.00  0.00     0.104 A 
HETATM   22  C10 UNL     1      -4.404   1.872  11.182  1.00  0.00     0.042 A 
HETATM   23  C11 UNL     1      -4.832   0.453  11.314  1.00  0.00     0.168 A 
HETATM   24  O2  UNL     1      -4.734   0.064  12.615  1.00  0.00    -0.390 OA
HETATM   25  C12 UNL     1      -4.264   1.083  13.395  1.00  0.00     0.181 A 
ENDBRANCH  17  21
ENDBRANCH   9  13
BRANCH   1  26
HETATM   26  N1  UNL     1      -6.255   5.997   8.985  1.00  0.00    -0.383 N 
ATOM     27  H12 UNL     1      -6.515   5.464   9.814  1.00  0.00     0.157 HD
ATOM     28  H11 UNL     1      -5.622   5.631   8.274  1.00  0.00     0.157 HD
ENDBRANCH   1  26
BRANCH  12  29
HETATM   29  C17 UNL     1      -6.169  12.000   9.758  1.00  0.00     0.086 C 
HETATM   30  C18 UNL     1      -7.293  12.597  10.541  1.00  0.00     0.025 C 
HETATM   31  C19 UNL     1      -6.494  13.936  10.608  1.00  0.00     0.004 C 
HETATM   32  C20 UNL     1      -5.265  13.037  10.411  1.00  0.00     0.025 C 
ENDBRANCH  12  29
TORSDOF 4
ENDMDL
MODEL 5
REMARK VINA RESULT: -6.774714626      5.512      8.563
REMARK  4 active torsions:
REMARK  status: ('A' for Active; 'I' for Inactive)
REMARK    1  A    between atoms: N1_1  and  C1_4 
REMARK    2  A    between atoms: N4_12  and  C5_13 
REMARK       I    between atoms: N5_16  and  C8_17 
REMARK    3  A    between atoms: C8_17  and  C9_19 
REMARK    4  A    between atoms: N6_28  and  C17_29 
ROOT
HETATM    1  C1  UNL     1      -4.531   5.678   9.125  1.00  0.00     0.130 A 
HETATM    2  N2  UNL     1      -4.653   5.289   7.843  1.00  0.00    -0.337 N 
ATOM      3  H2  UNL     1      -4.203   4.440   7.503  1.00  0.00     0.168 HD
HETATM    4  C2  UNL     1      -5.404   6.076   7.011  1.00  0.00     0.183 A 
HETATM    5  N3  UNL     1      -5.985   7.189   7.485  1.00  0.00    -0.337 N 
ATOM      6  H3  UNL     1      -6.535   7.746   6.831  1.00  0.00     0.168 HD
HETATM    7  C3  UNL     1      -5.900   7.627   8.747  1.00  0.00     0.135 A 
HETATM    8  C4  UNL     1      -5.127   6.819   9.613  1.00  0.00     0.119 A 
HETATM    9  N4  UNL     1      -4.983   7.214  10.977  1.00  0.00    -0.368 N 
HETATM   10  C15 UNL     1      -5.088   8.671  11.106  1.00  0.00     0.143 C 
HETATM   11  C16 UNL     1      -6.415   9.162  10.585  1.00  0.00     0.145 C 
HETATM   12  N6  UNL     1      -6.530   8.815   9.175  1.00  0.00    -0.359 N 
ENDROOT
BRANCH   9  13
HETATM   13  C5  UNL     1      -4.767   6.295  12.019  1.00  0.00     0.088 C 
HETATM   14  C6  UNL     1      -5.953   6.476  13.015  1.00  0.00     0.045 C 
HETATM   15  C7  UNL     1      -5.579   6.194  14.412  1.00  0.00     0.127 C 
HETATM   16  N5  UNL     1      -4.636   5.088  14.449  1.00  0.00    -0.352 N 
HETATM   17  C8  UNL     1      -4.967   3.824  14.994  1.00  0.00     0.226 C 
HETATM   18  C13 UNL     1      -3.338   5.430  13.880  1.00  0.00     0.127 C 
HETATM   19  O1  UNL     1      -6.165   3.745  15.448  1.00  0.00    -0.273 OA
HETATM   20  C14 UNL     1      -3.596   6.604  12.916  1.00  0.00     0.045 C 
BRANCH  17  21
HETATM   21  C9  UNL     1      -4.121   2.644  15.094  1.00  0.00     0.104 A 
HETATM   22  C10 UNL     1      -4.472   1.512  14.168  1.00  0.00     0.042 A 
HETATM   23  C11 UNL     1      -4.478   0.300  15.033  1.00  0.00     0.168 A 
HETATM   24  O2  UNL     1      -4.209   0.654  16.319  1.00  0.00    -0.390 OA
HETATM   25  C12 UNL     1      -4.005   2.002  16.423  1.00  0.00     0.181 A 
ENDBRANCH  17  21
ENDBRANCH   9  13
BRANCH   1  26
HETATM   26  N1  UNL     1      -3.822   4.998   9.937  1.00  0.00    -0.383 N 
ATOM     27  H12 UNL     1      -2.810   5.054   9.831  1.00  0.00     0.157 HD
ATOM     28  H11 UNL     1      -4.268   4.412  10.643  1.00  0.00     0.157 HD
ENDBRANCH   1  26
BRANCH  12  29
HETATM   29  C17 UNL     1      -7.249   9.727   8.347  1.00  0.00     0.086 C 
HETATM   30  C18 UNL     1      -8.728   9.613   8.170  1.00  0.00     0.025 C 
HETATM   31  C19 UNL     1      -8.807  11.170   8.091  1.00  0.00     0.004 C 
HETATM   32  C20 UNL     1      -7.499  11.126   8.894  1.00  0.00     0.025 C 
ENDBRANCH  12  29
TORSDOF 4
ENDMDL
