MODEL 1
REMARK VINA RESULT: -6.742994513      0.000      0.000
REMARK  5 active torsions:
REMARK  status: ('A' for Active; 'I' for Inactive)
REMARK    1  A    between atoms: C2_2  and  N1_3 
REMARK    2  A    between atoms: N1_3  and  C3_4 
REMARK    3  A    between atoms: N1_3  and  C5_6 
REMARK    4  A    between atoms: C5_6  and  N2_8 
REMARK       I    between atoms: N2_8  and  C6_10 
REMARK       I    between atoms: C6_10  and  N4_16 
REMARK       I    between atoms: N3_11  and  C7_13 
REMARK    5  A    between atoms: N4_16  and  N5_18 
ROOT
HETATM    1  N2  UNL     1      -4.506   1.821  12.776  1.00  0.00    -0.165 N 
ATOM      2  H2  UNL     1      -5.320   1.868  12.163  1.00  0.00     0.186 HD
HETATM    3  C6  UNL     1      -3.207   1.543  12.247  1.00  0.00     0.697 C 
HETATM    4  N3  UNL     1      -2.939   0.439  11.723  1.00  0.00    -0.159 N 
ATOM      5  H3  UNL     1      -1.979   0.368  11.385  1.00  0.00     0.187 HD
HETATM    6  C7  UNL     1      -3.688  -0.703  11.513  1.00  0.00     0.232 C 
HETATM    7  C8  UNL     1      -2.997  -2.033  11.374  1.00  0.00     0.118 C 
HETATM    8  O1  UNL     1      -4.939  -0.659  11.435  1.00  0.00    -0.273 OA
HETATM    9  N4  UNL     1      -2.261   2.615  12.376  1.00  0.00    -0.151 N 
ATOM     10  H4  UNL     1      -1.470   2.545  13.016  1.00  0.00     0.199 HD
ENDROOT
BRANCH   1  11
HETATM   11  C5  UNL     1      -4.638   2.028  14.162  1.00  0.00     0.188 C 
HETATM   12  S1  UNL     1      -4.487   0.707  15.167  1.00  0.00    -0.040 SA
BRANCH  11  13
HETATM   13  N1  UNL     1      -4.890   3.281  14.769  1.00  0.00    -0.358 N 
BRANCH  13  14
HETATM   14  C2  UNL     1      -3.747   4.147  15.118  1.00  0.00     0.120 C 
HETATM   15  C1  UNL     1      -4.017   5.576  14.740  1.00  0.00     0.026 C 
ENDBRANCH  13  14
BRANCH  13  16
HETATM   16  C3  UNL     1      -6.225   3.736  15.054  1.00  0.00     0.120 C 
HETATM   17  C4  UNL     1      -6.656   3.377  16.462  1.00  0.00     0.026 C 
ENDBRANCH  13  16
ENDBRANCH  11  13
ENDBRANCH   1  11
BRANCH   9  18
HETATM   18  N5  UNL     1      -2.456   3.749  11.605  1.00  0.00    -0.213 NA
HETATM   19  C9  UNL     1      -1.552   4.767  11.992  1.00  0.00     0.140 C 
HETATM   20  C10 UNL     1      -1.837   6.139  11.473  1.00  0.00     0.183 C 
HETATM   21  O2  UNL     1      -2.177   6.224  10.153  1.00  0.00    -0.388 OA
HETATM   22  C11 UNL     1      -1.397   7.106   9.427  1.00  0.00     0.193 C 
HETATM   23  C12 UNL     1       0.029   6.668   9.265  1.00  0.00     0.193 C 
HETATM   24  O3  UNL     1       0.213   5.988   8.051  1.00  0.00    -0.387 OA
HETATM   25  C13 UNL     1       0.862   4.789   8.193  1.00  0.00     0.193 C 
HETATM   26  C14 UNL     1       0.036   3.633   7.699  1.00  0.00     0.193 C 
HETATM   27  O4  UNL     1      -1.224   3.560   8.240  1.00  0.00    -0.388 OA
HETATM   28  C15 UNL     1      -1.199   3.127   9.576  1.00  0.00     0.183 C 
HETATM   29  C16 UNL     1      -2.504   3.385  10.230  1.00  0.00     0.140 C 
ENDBRANCH   9  18
TORSDOF 5
ENDMDL
MODEL 2
REMARK VINA RESULT: -6.740427122      0.038      1.271
REMARK  5 active torsions:
REMARK  status: ('A' for Active; 'I' for Inactive)
REMARK    1  A    between atoms: C2_2  and  N1_3 
REMARK    2  A    between atoms: N1_3  and  C3_4 
REMARK    3  A    between atoms: N1_3  and  C5_6 
REMARK    4  A    between atoms: C5_6  and  N2_8 
REMARK       I    between atoms: N2_8  and  C6_10 
REMARK       I    between atoms: C6_10  and  N4_16 
REMARK       I    between atoms: N3_11  and  C7_13 
REMARK    5  A    between atoms: N4_16  and  N5_18 
ROOT
HETATM    1  N2  UNL     1      -4.490   1.791  12.777  1.00  0.00    -0.165 N 
ATOM      2  H2  UNL     1      -5.308   1.838  12.169  1.00  0.00     0.186 HD
HETATM    3  C6  UNL     1      -3.195   1.511  12.239  1.00  0.00     0.697 C 
HETATM    4  N3  UNL     1      -2.931   0.405  11.716  1.00  0.00    -0.159 N 
ATOM      5  H3  UNL     1      -1.974   0.332  11.371  1.00  0.00     0.187 HD
HETATM    6  C7  UNL     1      -3.683  -0.736  11.514  1.00  0.00     0.232 C 
HETATM    7  C8  UNL     1      -2.994  -2.068  11.373  1.00  0.00     0.118 C 
HETATM    8  O1  UNL     1      -4.935  -0.692  11.444  1.00  0.00    -0.273 OA
HETATM    9  N4  UNL     1      -2.247   2.582  12.359  1.00  0.00    -0.151 N 
ATOM     10  H4  UNL     1      -1.451   2.512  12.994  1.00  0.00     0.199 HD
ENDROOT
BRANCH   1  11
HETATM   11  C5  UNL     1      -4.612   2.001  14.163  1.00  0.00     0.188 C 
HETATM   12  S1  UNL     1      -4.491   0.677  15.168  1.00  0.00    -0.040 SA
BRANCH  11  13
HETATM   13  N1  UNL     1      -4.829   3.261  14.771  1.00  0.00    -0.358 N 
BRANCH  13  14
HETATM   14  C2  UNL     1      -6.216   3.701  15.021  1.00  0.00     0.120 C 
HETATM   15  C1  UNL     1      -6.632   3.398  16.433  1.00  0.00     0.026 C 
ENDBRANCH  13  14
BRANCH  13  16
HETATM   16  C3  UNL     1      -3.742   4.121  15.153  1.00  0.00     0.120 C 
HETATM   17  C4  UNL     1      -3.980   5.556  14.726  1.00  0.00     0.026 C 
ENDBRANCH  13  16
ENDBRANCH  11  13
ENDBRANCH   1  11
BRANCH   9  18
HETATM   18  N5  UNL     1      -2.446   3.714  11.587  1.00  0.00    -0.213 NA
HETATM   19  C9  UNL     1      -1.550   4.738  11.978  1.00  0.00     0.140 C 
HETATM   20  C10 UNL     1      -1.842   6.108  11.457  1.00  0.00     0.183 C 
HETATM   21  O2  UNL     1      -2.177   6.191  10.136  1.00  0.00    -0.388 OA
HETATM   22  C11 UNL     1      -1.399   7.077   9.413  1.00  0.00     0.193 C 
HETATM   23  C12 UNL     1       0.030   6.649   9.257  1.00  0.00     0.193 C 
HETATM   24  O3  UNL     1       0.224   5.971   8.044  1.00  0.00    -0.387 OA
HETATM   25  C13 UNL     1       0.880   4.776   8.190  1.00  0.00     0.193 C 
HETATM   26  C14 UNL     1       0.064   3.614   7.692  1.00  0.00     0.193 C 
HETATM   27  O4  UNL     1      -1.198   3.532   8.228  1.00  0.00    -0.388 OA
HETATM   28  C15 UNL     1      -1.176   3.101   9.564  1.00  0.00     0.183 C 
HETATM   29  C16 UNL     1      -2.485   3.350  10.212  1.00  0.00     0.140 C 
ENDBRANCH   9  18
TORSDOF 5
ENDMDL
MODEL 3
REMARK VINA RESULT: -6.736504101      2.030      2.523
REMARK  5 active torsions:
REMARK  status: ('A' for Active; 'I' for Inactive)
REMARK    1  A    between atoms: C2_2  and  N1_3 
REMARK    2  A    between atoms: N1_3  and  C3_4 
REMARK    3  A    between atoms: N1_3  and  C5_6 
REMARK    4  A    between atoms: C5_6  and  N2_8 
REMARK       I    between atoms: N2_8  and  C6_10 
REMARK       I    between atoms: C6_10  and  N4_16 
REMARK       I    between atoms: N3_11  and  C7_13 
REMARK    5  A    between atoms: N4_16  and  N5_18 
ROOT
HETATM    1  N2  UNL     1      -4.379   3.925  12.802  1.00  0.00    -0.165 N 
ATOM      2  H2  UNL     1      -5.029   4.332  12.129  1.00  0.00     0.186 HD
HETATM    3  C6  UNL     1      -3.317   3.071  12.368  1.00  0.00     0.697 C 
HETATM    4  N3  UNL     1      -3.548   1.959  11.843  1.00  0.00    -0.159 N 
ATOM      5  H3  UNL     1      -2.706   1.448  11.577  1.00  0.00     0.187 HD
HETATM    6  C7  UNL     1      -4.721   1.288  11.552  1.00  0.00     0.232 C 
HETATM    7  C8  UNL     1      -4.712  -0.213  11.438  1.00  0.00     0.118 C 
HETATM    8  O1  UNL     1      -5.801   1.902  11.380  1.00  0.00    -0.273 OA
HETATM    9  N4  UNL     1      -1.997   3.588  12.591  1.00  0.00    -0.151 N 
ATOM     10  H4  UNL     1      -1.380   3.172  13.288  1.00  0.00     0.199 HD
ENDROOT
BRANCH   1  11
HETATM   11  C5  UNL     1      -4.508   4.193  14.177  1.00  0.00     0.188 C 
HETATM   12  S1  UNL     1      -3.985   5.673  14.738  1.00  0.00    -0.040 SA
BRANCH  11  13
HETATM   13  N1  UNL     1      -5.051   3.294  15.126  1.00  0.00    -0.358 N 
BRANCH  13  14
HETATM   14  C2  UNL     1      -6.492   3.372  15.438  1.00  0.00     0.120 C 
HETATM   15  C1  UNL     1      -6.752   3.020  16.875  1.00  0.00     0.026 C 
ENDBRANCH  13  14
BRANCH  13  16
HETATM   16  C3  UNL     1      -4.244   2.307  15.792  1.00  0.00     0.120 C 
HETATM   17  C4  UNL     1      -4.490   0.914  15.248  1.00  0.00     0.026 C 
ENDBRANCH  13  16
ENDBRANCH  11  13
ENDBRANCH   1  11
BRANCH   9  18
HETATM   18  N5  UNL     1      -1.588   4.671  11.831  1.00  0.00    -0.213 NA
HETATM   19  C9  UNL     1      -0.708   5.490  12.579  1.00  0.00     0.140 C 
HETATM   20  C10 UNL     1      -0.425   6.845  12.016  1.00  0.00     0.183 C 
HETATM   21  O2  UNL     1      -0.166   6.898  10.676  1.00  0.00    -0.388 OA
HETATM   22  C11 UNL     1       1.026   7.522  10.357  1.00  0.00     0.193 C 
HETATM   23  C12 UNL     1       2.246   6.767  10.793  1.00  0.00     0.193 C 
HETATM   24  O3  UNL     1       2.745   5.968   9.751  1.00  0.00    -0.387 OA
HETATM   25  C13 UNL     1       2.976   4.670  10.127  1.00  0.00     0.193 C 
HETATM   26  C14 UNL     1       2.177   3.691   9.311  1.00  0.00     0.193 C 
HETATM   27  O4  UNL     1       0.827   3.943   9.279  1.00  0.00    -0.388 OA
HETATM   28  C15 UNL     1       0.203   3.625  10.495  1.00  0.00     0.183 C 
HETATM   29  C16 UNL     1      -1.154   4.218  10.553  1.00  0.00     0.140 C 
ENDBRANCH   9  18
TORSDOF 5
ENDMDL
MODEL 4
REMARK VINA RESULT: -6.577645142      1.934      2.258
REMARK  5 active torsions:
REMARK  status: ('A' for Active; 'I' for Inactive)
REMARK    1  A    between atoms: C2_2  and  N1_3 
REMARK    2  A    between atoms: N1_3  and  C3_4 
REMARK    3  A    between atoms: N1_3  and  C5_6 
REMARK    4  A    between atoms: C5_6  and  N2_8 
REMARK       I    between atoms: N2_8  and  C6_10 
REMARK       I    between atoms: C6_10  and  N4_16 
REMARK       I    between atoms: N3_11  and  C7_13 
REMARK    5  A    between atoms: N4_16  and  N5_18 
ROOT
HETATM    1  N2  UNL     1      -4.357   3.636  12.868  1.00  0.00    -0.165 N 
ATOM      2  H2  UNL     1      -5.015   3.921  12.142  1.00  0.00     0.186 HD
HETATM    3  C6  UNL     1      -3.199   2.863  12.542  1.00  0.00     0.697 C 
HETATM    4  N3  UNL     1      -3.297   1.695  12.103  1.00  0.00    -0.159 N 
ATOM      5  H3  UNL     1      -2.398   1.253  11.909  1.00  0.00     0.187 HD
HETATM    6  C7  UNL     1      -4.384   0.888  11.828  1.00  0.00     0.232 C 
HETATM    7  C8  UNL     1      -4.223  -0.609  11.838  1.00  0.00     0.118 C 
HETATM    8  O1  UNL     1      -5.511   1.374  11.569  1.00  0.00    -0.273 OA
HETATM    9  N4  UNL     1      -1.947   3.527  12.768  1.00  0.00    -0.151 N 
ATOM     10  H4  UNL     1      -1.322   3.231  13.517  1.00  0.00     0.199 HD
ENDROOT
BRANCH   1  11
HETATM   11  C5  UNL     1      -4.570   3.996  14.211  1.00  0.00     0.188 C 
HETATM   12  S1  UNL     1      -4.136   5.534  14.687  1.00  0.00    -0.040 SA
BRANCH  11  13
HETATM   13  N1  UNL     1      -5.129   3.145  15.195  1.00  0.00    -0.358 N 
BRANCH  13  14
HETATM   14  C2  UNL     1      -4.243   2.208  15.914  1.00  0.00     0.120 C 
HETATM   15  C1  UNL     1      -4.532   0.786  15.523  1.00  0.00     0.026 C 
ENDBRANCH  13  14
BRANCH  13  16
HETATM   16  C3  UNL     1      -6.531   3.167  15.514  1.00  0.00     0.120 C 
HETATM   17  C4  UNL     1      -6.774   3.024  17.004  1.00  0.00     0.026 C 
ENDBRANCH  13  16
ENDBRANCH  11  13
ENDBRANCH   1  11
BRANCH   9  18
HETATM   18  N5  UNL     1      -1.614   4.583  11.936  1.00  0.00    -0.213 NA
HETATM   19  C9  UNL     1      -0.766   5.493  12.613  1.00  0.00     0.140 C 
HETATM   20  C10 UNL     1      -0.571   6.824  11.965  1.00  0.00     0.183 C 
HETATM   21  O2  UNL     1      -0.343   6.811  10.618  1.00  0.00    -0.388 OA
HETATM   22  C11 UNL     1       0.806   7.479  10.236  1.00  0.00     0.193 C 
HETATM   23  C12 UNL     1       2.075   6.819  10.687  1.00  0.00     0.193 C 
HETATM   24  O3  UNL     1       2.596   5.988   9.683  1.00  0.00    -0.387 OA
HETATM   25  C13 UNL     1       2.908   4.729  10.128  1.00  0.00     0.193 C 
HETATM   26  C14 UNL     1       2.148   3.660   9.391  1.00  0.00     0.193 C 
HETATM   27  O4  UNL     1       0.786   3.836   9.375  1.00  0.00    -0.388 OA
HETATM   28  C15 UNL     1       0.205   3.558  10.622  1.00  0.00     0.183 C 
HETATM   29  C16 UNL     1      -1.181   4.078  10.677  1.00  0.00     0.140 C 
ENDBRANCH   9  18
TORSDOF 5
ENDMDL
MODEL 5
REMARK VINA RESULT: -6.422830683      2.624      5.441
REMARK  5 active torsions:
REMARK  status: ('A' for Active; 'I' for Inactive)
REMARK    1  A    between atoms: C2_2  and  N1_3 
REMARK    2  A    between atoms: N1_3  and  C3_4 
REMARK    3  A    between atoms: N1_3  and  C5_6 
REMARK    4  A    between atoms: C5_6  and  N2_8 
REMARK       I    between atoms: N2_8  and  C6_10 
REMARK       I    between atoms: C6_10  and  N4_16 
REMARK       I    between atoms: N3_11  and  C7_13 
REMARK    5  A    between atoms: N4_16  and  N5_18 
ROOT
HETATM    1  N2  UNL     1      -3.431   1.924  13.482  1.00  0.00    -0.165 N 
ATOM      2  H2  UNL     1      -2.707   1.495  14.058  1.00  0.00     0.186 HD
HETATM    3  C6  UNL     1      -4.060   3.143  13.887  1.00  0.00     0.697 C 
HETATM    4  N3  UNL     1      -4.773   3.199  14.913  1.00  0.00    -0.159 N 
ATOM      5  H3  UNL     1      -5.162   4.125  15.092  1.00  0.00     0.187 HD
HETATM    6  C7  UNL     1      -5.135   2.253  15.853  1.00  0.00     0.232 C 
HETATM    7  C8  UNL     1      -6.402   2.437  16.646  1.00  0.00     0.118 C 
HETATM    8  O1  UNL     1      -4.431   1.237  16.064  1.00  0.00    -0.273 OA
HETATM    9  N4  UNL     1      -3.813   4.264  13.025  1.00  0.00    -0.151 N 
ATOM     10  H4  UNL     1      -4.555   4.656  12.445  1.00  0.00     0.199 HD
ENDROOT
BRANCH   1  11
HETATM   11  C5  UNL     1      -3.833   1.329  12.272  1.00  0.00     0.188 C 
HETATM   12  S1  UNL     1      -5.185   1.940  11.512  1.00  0.00    -0.040 SA
BRANCH  11  13
HETATM   13  N1  UNL     1      -3.171   0.245  11.648  1.00  0.00    -0.358 N 
BRANCH  13  14
HETATM   14  C2  UNL     1      -3.887  -1.038  11.499  1.00  0.00     0.120 C 
HETATM   15  C1  UNL     1      -2.925  -2.192  11.476  1.00  0.00     0.026 C 
ENDBRANCH  13  14
BRANCH  13  16
HETATM   16  C3  UNL     1      -1.825   0.356  11.153  1.00  0.00     0.120 C 
HETATM   17  C4  UNL     1      -1.579   1.691  10.477  1.00  0.00     0.026 C 
ENDBRANCH  13  16
ENDBRANCH  11  13
ENDBRANCH   1  11
BRANCH   9  18
HETATM   18  N5  UNL     1      -2.535   4.798  13.007  1.00  0.00    -0.213 NA
HETATM   19  C9  UNL     1      -2.328   5.531  11.813  1.00  0.00     0.140 C 
HETATM   20  C10 UNL     1      -0.915   5.905  11.503  1.00  0.00     0.183 C 
HETATM   21  O2  UNL     1      -0.179   6.394  12.544  1.00  0.00    -0.388 OA
HETATM   22  C11 UNL     1       0.405   7.623  12.292  1.00  0.00     0.193 C 
HETATM   23  C12 UNL     1      -0.576   8.750  12.159  1.00  0.00     0.193 C 
HETATM   24  O3  UNL     1      -0.738   9.425  13.379  1.00  0.00    -0.387 OA
HETATM   25  C13 UNL     1      -2.051   9.590  13.737  1.00  0.00     0.193 C 
HETATM   26  C14 UNL     1      -2.364   8.949  15.061  1.00  0.00     0.193 C 
HETATM   27  O4  UNL     1      -2.009   7.625  15.153  1.00  0.00    -0.388 OA
HETATM   28  C15 UNL     1      -2.868   6.798  14.412  1.00  0.00     0.183 C 
HETATM   29  C16 UNL     1      -2.275   5.450  14.244  1.00  0.00     0.140 C 
ENDBRANCH   9  18
TORSDOF 5
ENDMDL
