MODEL 1
REMARK VINA RESULT: -7.967958319      0.000      0.000
REMARK  5 active torsions:
REMARK  status: ('A' for Active; 'I' for Inactive)
REMARK    1  A    between atoms: C2_2  and  O2_4 
REMARK    2  A    between atoms: O2_4  and  C3_5 
REMARK    3  A    between atoms: C3_5  and  C5_7 
REMARK       I    between atoms: C5_7  and  N1_9 
REMARK    4  A    between atoms: N1_9  and  N2_11 
REMARK       I    between atoms: N2_11  and  C6_13 
REMARK    5  A    between atoms: C6_13  and  C7_15 
ROOT
HETATM    1  C7  UNL     1      -4.604   4.252  13.267  1.00  0.00     0.146 C 
HETATM    2  C8  UNL     1      -4.746   4.846  14.666  1.00  0.00     0.013 C 
HETATM    3  C9  UNL     1      -3.814   5.894  15.063  1.00  0.00     0.008 C 
HETATM    4  C10 UNL     1      -2.550   6.141  14.332  1.00  0.00     0.032 C 
HETATM    5  C11 UNL     1      -1.798   4.916  13.900  1.00  0.00     0.125 C 
HETATM    6  C12 UNL     1      -1.710   4.747  12.403  1.00  0.00     0.037 C 
HETATM    7  C13 UNL     1      -2.421   3.390  12.263  1.00  0.00     0.072 C 
HETATM    8  C14 UNL     1      -3.387   3.466  13.346  1.00  0.00     0.180 C 
HETATM    9  O5  UNL     1      -2.503   3.858  14.402  1.00  0.00    -0.349 OA
HETATM   10  O6  UNL     1      -3.775   2.202  13.883  1.00  0.00    -0.324 OA
HETATM   11  C15 UNL     1      -4.098   2.439  15.202  1.00  0.00     0.267 C 
HETATM   12  O7  UNL     1      -4.725   1.261  15.630  1.00  0.00    -0.361 OA
HETATM   13  C16 UNL     1      -5.335   1.424  16.867  1.00  0.00     0.171 C 
HETATM   14  C17 UNL     1      -6.615   2.180  16.609  1.00  0.00     0.027 C 
HETATM   15  C18 UNL     1      -6.302   3.427  15.881  1.00  0.00     0.012 C 
HETATM   16  C19 UNL     1      -4.822   3.651  15.578  1.00  0.00     0.046 C 
ENDROOT
BRANCH   1  17
HETATM   17  C6  UNL     1      -4.919   5.159  12.205  1.00  0.00     0.245 C 
HETATM   18  N2  UNL     1      -5.192   6.518  12.408  1.00  0.00    -0.267 N 
ATOM     19  H2  UNL     1      -5.157   6.854  13.370  1.00  0.00     0.190 HD
HETATM   20  O4  UNL     1      -4.962   4.754  11.027  1.00  0.00    -0.271 OA
BRANCH  18  21
HETATM   21  N1  UNL     1      -5.505   7.449  11.434  1.00  0.00    -0.265 N 
HETATM   22  C5  UNL     1      -6.707   8.123  11.233  1.00  0.00     0.265 C 
HETATM   23  O3  UNL     1      -7.673   7.899  12.001  1.00  0.00    -0.269 OA
ATOM     24  H1  UNL     1      -4.757   7.672  10.777  1.00  0.00     0.190 HD
BRANCH  22  25
HETATM   25  C3  UNL     1      -6.931   9.107  10.153  1.00  0.00     0.221 C 
HETATM   26  C4  UNL     1      -5.767  10.102  10.250  1.00  0.00     0.050 C 
BRANCH  25  27
HETATM   27  O2  UNL     1      -6.864   8.533   8.871  1.00  0.00    -0.307 OA
BRANCH  27  28
HETATM   28  C2  UNL     1      -7.902   7.749   8.425  1.00  0.00     0.255 C 
HETATM   29  C1  UNL     1      -9.303   8.270   8.394  1.00  0.00     0.126 C 
HETATM   30  O1  UNL     1      -7.741   6.565   8.023  1.00  0.00    -0.266 OA
ENDBRANCH  27  28
ENDBRANCH  25  27
ENDBRANCH  22  25
ENDBRANCH  18  21
ENDBRANCH   1  17
TORSDOF 5
ENDMDL
MODEL 2
REMARK VINA RESULT: -7.824348064      3.952      7.634
REMARK  5 active torsions:
REMARK  status: ('A' for Active; 'I' for Inactive)
REMARK    1  A    between atoms: C2_2  and  O2_4 
REMARK    2  A    between atoms: O2_4  and  C3_5 
REMARK    3  A    between atoms: C3_5  and  C5_7 
REMARK       I    between atoms: C5_7  and  N1_9 
REMARK    4  A    between atoms: N1_9  and  N2_11 
REMARK       I    between atoms: N2_11  and  C6_13 
REMARK    5  A    between atoms: C6_13  and  C7_15 
ROOT
HETATM    1  C7  UNL     1       0.270   3.919  11.493  1.00  0.00     0.146 C 
HETATM    2  C8  UNL     1       0.733   5.332  11.834  1.00  0.00     0.013 C 
HETATM    3  C9  UNL     1      -0.164   6.440  11.531  1.00  0.00     0.008 C 
HETATM    4  C10 UNL     1      -1.310   6.293  10.605  1.00  0.00     0.032 C 
HETATM    5  C11 UNL     1      -1.048   5.486   9.367  1.00  0.00     0.125 C 
HETATM    6  C12 UNL     1      -1.837   4.203   9.292  1.00  0.00     0.037 C 
HETATM    7  C13 UNL     1      -0.675   3.197   9.234  1.00  0.00     0.072 C 
HETATM    8  C14 UNL     1       0.323   3.875  10.044  1.00  0.00     0.180 C 
HETATM    9  O5  UNL     1       0.279   5.162   9.416  1.00  0.00    -0.349 OA
HETATM   10  O6  UNL     1       1.673   3.550   9.716  1.00  0.00    -0.324 OA
HETATM   11  C15 UNL     1       2.416   4.666  10.037  1.00  0.00     0.267 C 
HETATM   12  O7  UNL     1       3.749   4.237   9.964  1.00  0.00    -0.361 OA
HETATM   13  C16 UNL     1       4.620   5.175  10.501  1.00  0.00     0.171 C 
HETATM   14  C17 UNL     1       4.511   5.042  12.001  1.00  0.00     0.027 C 
HETATM   15  C18 UNL     1       3.095   5.184  12.397  1.00  0.00     0.012 C 
HETATM   16  C19 UNL     1       2.118   5.427  11.249  1.00  0.00     0.046 C 
ENDROOT
BRANCH   1  17
HETATM   17  C6  UNL     1      -0.832   3.453  12.281  1.00  0.00     0.245 C 
HETATM   18  N2  UNL     1      -1.311   4.128  13.411  1.00  0.00    -0.267 N 
ATOM     19  H2  UNL     1      -0.835   4.994  13.664  1.00  0.00     0.190 HD
HETATM   20  O4  UNL     1      -1.418   2.397  11.976  1.00  0.00    -0.271 OA
BRANCH  18  21
HETATM   21  N1  UNL     1      -2.365   3.738  14.218  1.00  0.00    -0.265 N 
HETATM   22  C5  UNL     1      -3.608   4.347  14.375  1.00  0.00     0.265 C 
HETATM   23  O3  UNL     1      -3.867   5.390  13.729  1.00  0.00    -0.269 OA
ATOM     24  H1  UNL     1      -2.212   2.894  14.769  1.00  0.00     0.190 HD
BRANCH  22  25
HETATM   25  C3  UNL     1      -4.668   3.838  15.270  1.00  0.00     0.221 C 
HETATM   26  C4  UNL     1      -5.954   4.561  14.843  1.00  0.00     0.050 C 
BRANCH  25  27
HETATM   27  O2  UNL     1      -4.906   2.463  15.104  1.00  0.00    -0.307 OA
BRANCH  27  28
HETATM   28  C2  UNL     1      -4.535   1.586  16.096  1.00  0.00     0.255 C 
HETATM   29  C1  UNL     1      -5.557   0.812  16.864  1.00  0.00     0.126 C 
HETATM   30  O1  UNL     1      -3.332   1.386  16.415  1.00  0.00    -0.266 OA
ENDBRANCH  27  28
ENDBRANCH  25  27
ENDBRANCH  22  25
ENDBRANCH  18  21
ENDBRANCH   1  17
TORSDOF 5
ENDMDL
MODEL 3
REMARK VINA RESULT: -7.748852476      4.496      7.884
REMARK  5 active torsions:
REMARK  status: ('A' for Active; 'I' for Inactive)
REMARK    1  A    between atoms: C2_2  and  O2_4 
REMARK    2  A    between atoms: O2_4  and  C3_5 
REMARK    3  A    between atoms: C3_5  and  C5_7 
REMARK       I    between atoms: C5_7  and  N1_9 
REMARK    4  A    between atoms: N1_9  and  N2_11 
REMARK       I    between atoms: N2_11  and  C6_13 
REMARK    5  A    between atoms: C6_13  and  C7_15 
ROOT
HETATM    1  C7  UNL     1       0.662   3.918  11.196  1.00  0.00     0.146 C 
HETATM    2  C8  UNL     1       1.031   5.317  11.682  1.00  0.00     0.013 C 
HETATM    3  C9  UNL     1       0.161   6.424  11.309  1.00  0.00     0.008 C 
HETATM    4  C10 UNL     1      -0.829   6.313  10.213  1.00  0.00     0.032 C 
HETATM    5  C11 UNL     1      -0.361   5.586   8.986  1.00  0.00     0.125 C 
HETATM    6  C12 UNL     1      -1.096   4.296   8.720  1.00  0.00     0.037 C 
HETATM    7  C13 UNL     1       0.088   3.316   8.783  1.00  0.00     0.072 C 
HETATM    8  C14 UNL     1       0.935   3.962   9.772  1.00  0.00     0.180 C 
HETATM    9  O5  UNL     1       0.952   5.283   9.218  1.00  0.00    -0.349 OA
HETATM   10  O6  UNL     1       2.327   3.681   9.635  1.00  0.00    -0.324 OA
HETATM   11  C15 UNL     1       2.983   4.789  10.128  1.00  0.00     0.267 C 
HETATM   12  O7  UNL     1       4.322   4.389  10.234  1.00  0.00    -0.361 OA
HETATM   13  C16 UNL     1       5.077   5.308  10.950  1.00  0.00     0.171 C 
HETATM   14  C17 UNL     1       4.747   5.084  12.405  1.00  0.00     0.027 C 
HETATM   15  C18 UNL     1       3.284   5.177  12.588  1.00  0.00     0.012 C 
HETATM   16  C19 UNL     1       2.485   5.470  11.321  1.00  0.00     0.046 C 
ENDROOT
BRANCH   1  17
HETATM   17  C6  UNL     1      -0.533   3.386  11.780  1.00  0.00     0.245 C 
HETATM   18  N2  UNL     1      -0.999   2.089  11.533  1.00  0.00    -0.267 N 
ATOM     19  H2  UNL     1      -0.442   1.513  10.902  1.00  0.00     0.190 HD
HETATM   20  O4  UNL     1      -1.218   4.084  12.552  1.00  0.00    -0.271 OA
BRANCH  18  21
HETATM   21  N1  UNL     1      -2.141   1.510  12.058  1.00  0.00    -0.265 N 
HETATM   22  C5  UNL     1      -3.439   1.541  11.553  1.00  0.00     0.265 C 
HETATM   23  O3  UNL     1      -3.669   2.159  10.487  1.00  0.00    -0.269 OA
ATOM     24  H1  UNL     1      -2.016   0.994  12.928  1.00  0.00     0.190 HD
BRANCH  22  25
HETATM   25  C3  UNL     1      -4.592   0.881  12.201  1.00  0.00     0.221 C 
HETATM   26  C4  UNL     1      -4.370  -0.626  12.008  1.00  0.00     0.050 C 
BRANCH  25  27
HETATM   27  O2  UNL     1      -4.639   1.106  13.588  1.00  0.00    -0.307 OA
BRANCH  27  28
HETATM   28  C2  UNL     1      -4.783   2.390  14.061  1.00  0.00     0.255 C 
HETATM   29  C1  UNL     1      -4.019   2.861  15.255  1.00  0.00     0.126 C 
HETATM   30  O1  UNL     1      -5.554   3.232  13.526  1.00  0.00    -0.266 OA
ENDBRANCH  27  28
ENDBRANCH  25  27
ENDBRANCH  22  25
ENDBRANCH  18  21
ENDBRANCH   1  17
TORSDOF 5
ENDMDL
MODEL 4
REMARK VINA RESULT: -7.665753946      3.723      6.464
REMARK  5 active torsions:
REMARK  status: ('A' for Active; 'I' for Inactive)
REMARK    1  A    between atoms: C2_2  and  O2_4 
REMARK    2  A    between atoms: O2_4  and  C3_5 
REMARK    3  A    between atoms: C3_5  and  C5_7 
REMARK       I    between atoms: C5_7  and  N1_9 
REMARK    4  A    between atoms: N1_9  and  N2_11 
REMARK       I    between atoms: N2_11  and  C6_13 
REMARK    5  A    between atoms: C6_13  and  C7_15 
ROOT
HETATM    1  C7  UNL     1      -3.251   3.906  13.637  1.00  0.00     0.146 C 
HETATM    2  C8  UNL     1      -3.481   2.399  13.702  1.00  0.00     0.013 C 
HETATM    3  C9  UNL     1      -3.484   1.651  12.452  1.00  0.00     0.008 C 
HETATM    4  C10 UNL     1      -3.635   2.316  11.138  1.00  0.00     0.032 C 
HETATM    5  C11 UNL     1      -4.646   3.424  11.081  1.00  0.00     0.125 C 
HETATM    6  C12 UNL     1      -4.051   4.785  10.816  1.00  0.00     0.037 C 
HETATM    7  C13 UNL     1      -4.506   5.509  12.095  1.00  0.00     0.072 C 
HETATM    8  C14 UNL     1      -4.478   4.421  13.059  1.00  0.00     0.180 C 
HETATM    9  O5  UNL     1      -5.228   3.451  12.317  1.00  0.00    -0.349 OA
HETATM   10  O6  UNL     1      -5.387   4.571  14.148  1.00  0.00    -0.324 OA
HETATM   11  C15 UNL     1      -5.720   3.290  14.537  1.00  0.00     0.267 C 
HETATM   12  O7  UNL     1      -6.387   3.454  15.759  1.00  0.00    -0.361 OA
HETATM   13  C16 UNL     1      -6.572   2.242  16.410  1.00  0.00     0.171 C 
HETATM   14  C17 UNL     1      -5.239   1.885  17.023  1.00  0.00     0.027 C 
HETATM   15  C18 UNL     1      -4.205   1.894  15.969  1.00  0.00     0.012 C 
HETATM   16  C19 UNL     1      -4.703   2.241  14.568  1.00  0.00     0.046 C 
ENDROOT
BRANCH   1  17
HETATM   17  C6  UNL     1      -1.935   4.285  13.220  1.00  0.00     0.245 C 
HETATM   18  N2  UNL     1      -1.070   3.429  12.525  1.00  0.00    -0.267 N 
ATOM     19  H2  UNL     1      -1.420   2.494  12.316  1.00  0.00     0.190 HD
HETATM   20  O4  UNL     1      -1.502   5.426  13.471  1.00  0.00    -0.271 OA
BRANCH  18  21
HETATM   21  N1  UNL     1       0.210   3.725  12.094  1.00  0.00    -0.265 N 
HETATM   22  C5  UNL     1       0.604   4.359  10.918  1.00  0.00     0.265 C 
HETATM   23  O3  UNL     1      -0.269   4.733  10.100  1.00  0.00    -0.269 OA
ATOM     24  H1  UNL     1       0.965   3.442  12.719  1.00  0.00     0.190 HD
BRANCH  22  25
HETATM   25  C3  UNL     1       2.012   4.628  10.558  1.00  0.00     0.221 C 
HETATM   26  C4  UNL     1       2.727   4.940  11.880  1.00  0.00     0.050 C 
BRANCH  25  27
HETATM   27  O2  UNL     1       2.657   3.507  10.007  1.00  0.00    -0.307 OA
BRANCH  27  28
HETATM   28  C2  UNL     1       3.352   3.637   8.827  1.00  0.00     0.255 C 
HETATM   29  C1  UNL     1       3.139   4.814   7.932  1.00  0.00     0.126 C 
HETATM   30  O1  UNL     1       4.197   2.787   8.435  1.00  0.00    -0.266 OA
ENDBRANCH  27  28
ENDBRANCH  25  27
ENDBRANCH  22  25
ENDBRANCH  18  21
ENDBRANCH   1  17
TORSDOF 5
ENDMDL
MODEL 5
REMARK VINA RESULT: -7.658766849      3.935      7.611
REMARK  5 active torsions:
REMARK  status: ('A' for Active; 'I' for Inactive)
REMARK    1  A    between atoms: C2_2  and  O2_4 
REMARK    2  A    between atoms: O2_4  and  C3_5 
REMARK    3  A    between atoms: C3_5  and  C5_7 
REMARK       I    between atoms: C5_7  and  N1_9 
REMARK    4  A    between atoms: N1_9  and  N2_11 
REMARK       I    between atoms: N2_11  and  C6_13 
REMARK    5  A    between atoms: C6_13  and  C7_15 
ROOT
HETATM    1  C7  UNL     1      -0.653   4.720  12.284  1.00  0.00     0.146 C 
HETATM    2  C8  UNL     1      -0.453   6.040  11.546  1.00  0.00     0.013 C 
HETATM    3  C9  UNL     1      -1.380   6.374  10.474  1.00  0.00     0.008 C 
HETATM    4  C10 UNL     1      -2.255   5.358   9.845  1.00  0.00     0.032 C 
HETATM    5  C11 UNL     1      -1.619   4.024   9.583  1.00  0.00     0.125 C 
HETATM    6  C12 UNL     1      -2.211   2.893  10.386  1.00  0.00     0.037 C 
HETATM    7  C13 UNL     1      -0.956   2.449  11.157  1.00  0.00     0.072 C 
HETATM    8  C14 UNL     1      -0.260   3.716  11.314  1.00  0.00     0.180 C 
HETATM    9  O5  UNL     1      -0.310   4.164   9.954  1.00  0.00    -0.349 OA
HETATM   10  O6  UNL     1       1.158   3.603  11.424  1.00  0.00    -0.324 OA
HETATM   11  C15 UNL     1       1.668   4.775  10.907  1.00  0.00     0.267 C 
HETATM   12  O7  UNL     1       3.022   4.762  11.268  1.00  0.00    -0.361 OA
HETATM   13  C16 UNL     1       3.627   5.990  11.039  1.00  0.00     0.171 C 
HETATM   14  C17 UNL     1       3.190   6.892  12.168  1.00  0.00     0.027 C 
HETATM   15  C18 UNL     1       1.715   6.908  12.229  1.00  0.00     0.012 C 
HETATM   16  C19 UNL     1       1.009   6.051  11.182  1.00  0.00     0.046 C 
ENDROOT
BRANCH   1  17
HETATM   17  C6  UNL     1      -1.844   4.662  13.078  1.00  0.00     0.245 C 
HETATM   18  N2  UNL     1      -2.007   3.784  14.158  1.00  0.00    -0.267 N 
ATOM     19  H2  UNL     1      -1.224   3.166  14.370  1.00  0.00     0.190 HD
HETATM   20  O4  UNL     1      -2.803   5.415  12.825  1.00  0.00    -0.271 OA
BRANCH  18  21
HETATM   21  N1  UNL     1      -3.125   3.672  14.965  1.00  0.00    -0.265 N 
HETATM   22  C5  UNL     1      -4.054   2.635  15.021  1.00  0.00     0.265 C 
HETATM   23  O3  UNL     1      -3.915   1.645  14.264  1.00  0.00    -0.269 OA
ATOM     24  H1  UNL     1      -3.291   4.450  15.603  1.00  0.00     0.190 HD
BRANCH  22  25
HETATM   25  C3  UNL     1      -5.218   2.618  15.931  1.00  0.00     0.221 C 
HETATM   26  C4  UNL     1      -6.247   3.572  15.307  1.00  0.00     0.050 C 
BRANCH  25  27
HETATM   27  O2  UNL     1      -5.833   1.356  16.005  1.00  0.00    -0.307 OA
BRANCH  27  28
HETATM   28  C2  UNL     1      -6.095   0.801  17.235  1.00  0.00     0.255 C 
HETATM   29  C1  UNL     1      -6.359   1.661  18.429  1.00  0.00     0.126 C 
HETATM   30  O1  UNL     1      -6.127  -0.444  17.430  1.00  0.00    -0.266 OA
ENDBRANCH  27  28
ENDBRANCH  25  27
ENDBRANCH  22  25
ENDBRANCH  18  21
ENDBRANCH   1  17
TORSDOF 5
ENDMDL
