MODEL 1
REMARK VINA RESULT: -7.024132605      0.000      0.000
REMARK  3 active torsions:
REMARK  status: ('A' for Active; 'I' for Inactive)
REMARK    1  A    between atoms: O1_2  and  C2_3 
REMARK    2  A    between atoms: C12_18  and  C13_19 
REMARK    3  A    between atoms: C13_19  and  N4_20 
ROOT
HETATM    1  C2  UNL     1      -1.300   8.603  14.126  1.00  0.00     0.158 C 
HETATM    2  C3  UNL     1      -0.752   7.948  12.868  1.00  0.00     0.099 C 
HETATM    3  C4  UNL     1      -1.845   6.897  12.622  1.00  0.00     0.244 C 
HETATM    4  N1  UNL     1      -3.003   7.581  12.096  1.00  0.00    -0.346 N 
ATOM      5  H1  UNL     1      -3.415   8.416  12.514  1.00  0.00     0.163 HD
HETATM    6  C5  UNL     1      -3.451   7.008  11.037  1.00  0.00     0.091 C 
HETATM    7  N2  UNL     1      -4.572   7.454  10.305  1.00  0.00    -0.088 NA
HETATM    8  C6  UNL     1      -2.614   5.809  10.698  1.00  0.00     0.087 C 
HETATM    9  C7  UNL     1      -1.365   6.005  11.546  1.00  0.00     0.025 C 
HETATM   10  C8  UNL     1      -0.361   6.720  10.639  1.00  0.00     0.040 C 
HETATM   11  C9  UNL     1       0.160   5.786   9.578  1.00  0.00     0.168 C 
HETATM   12  O2  UNL     1       0.721   4.634  10.069  1.00  0.00    -0.391 OA
HETATM   13  C10 UNL     1       0.673   4.555  11.440  1.00  0.00     0.168 C 
HETATM   14  C11 UNL     1      -0.742   4.725  11.978  1.00  0.00     0.040 C 
HETATM   15  N3  UNL     1      -2.003   6.338  13.913  1.00  0.00     0.131 N 
HETATM   16  C12 UNL     1      -3.301   5.753  14.197  1.00  0.00     0.244 C 
HETATM   17  C18 UNL     1      -4.117   6.817  14.828  1.00  0.00     0.040 C 
HETATM   18  C19 UNL     1      -3.120   7.747  15.486  1.00  0.00     0.041 C 
HETATM   19  C20 UNL     1      -1.797   7.380  14.884  1.00  0.00     0.255 C 
ENDROOT
BRANCH   1  20
HETATM   20  O1  UNL     1      -0.348   9.312  14.812  1.00  0.00    -0.388 OA
HETATM   21  C1  UNL     1      -0.785  10.627  14.956  1.00  0.00     0.202 C 
ENDBRANCH   1  20
BRANCH  16  22
HETATM   22  C13 UNL     1      -3.139   4.494  15.007  1.00  0.00     0.161 C 
BRANCH  22  23
HETATM   23  N4  UNL     1      -3.955   3.398  14.601  1.00  0.00    -0.348 N 
HETATM   24  C14 UNL     1      -3.966   2.072  15.099  1.00  0.00     0.186 C 
HETATM   25  N5  UNL     1      -3.505   1.639  16.397  1.00  0.00    -0.064 NA
HETATM   26  N6  UNL     1      -4.449   1.266  14.218  1.00  0.00    -0.363 N 
HETATM   27  C15 UNL     1      -4.808   1.992  13.030  1.00  0.00     0.147 C 
ATOM     28  H6  UNL     1      -4.561   0.260  14.344  1.00  0.00     0.162 HD
HETATM   29  C16 UNL     1      -4.959   3.395  13.569  1.00  0.00     0.100 C 
HETATM   30  C17 UNL     1      -6.366   3.474  14.143  1.00  0.00     0.034 C 
ENDBRANCH  22  23
ENDBRANCH  16  22
TORSDOF 3
ENDMDL
MODEL 2
REMARK VINA RESULT: -6.961063550      1.644      1.933
REMARK  3 active torsions:
REMARK  status: ('A' for Active; 'I' for Inactive)
REMARK    1  A    between atoms: O1_2  and  C2_3 
REMARK    2  A    between atoms: C12_18  and  C13_19 
REMARK    3  A    between atoms: C13_19  and  N4_20 
ROOT
HETATM    1  C2  UNL     1      -1.798   8.596  13.016  1.00  0.00     0.158 C 
HETATM    2  C3  UNL     1      -2.127   7.956  11.677  1.00  0.00     0.099 C 
HETATM    3  C4  UNL     1      -3.254   7.005  12.111  1.00  0.00     0.244 C 
HETATM    4  N1  UNL     1      -4.438   7.801  12.335  1.00  0.00    -0.346 N 
ATOM      5  H1  UNL     1      -4.461   8.646  12.905  1.00  0.00     0.163 HD
HETATM    6  C5  UNL     1      -5.459   7.311  11.728  1.00  0.00     0.091 C 
HETATM    7  N2  UNL     1      -6.753   7.876  11.765  1.00  0.00    -0.088 NA
HETATM    8  C6  UNL     1      -5.077   6.066  10.982  1.00  0.00     0.087 C 
HETATM    9  C7  UNL     1      -3.555   6.126  10.962  1.00  0.00     0.025 C 
HETATM   10  C8  UNL     1      -3.189   6.798   9.637  1.00  0.00     0.040 C 
HETATM   11  C9  UNL     1      -3.452   5.874   8.477  1.00  0.00     0.168 C 
HETATM   12  O2  UNL     1      -2.818   4.661   8.570  1.00  0.00    -0.391 OA
HETATM   13  C10 UNL     1      -2.081   4.526   9.722  1.00  0.00     0.168 C 
HETATM   14  C11 UNL     1      -2.914   4.784  10.971  1.00  0.00     0.040 C 
HETATM   15  N3  UNL     1      -2.696   6.406  13.265  1.00  0.00     0.131 N 
HETATM   16  C12 UNL     1      -3.646   5.912  14.245  1.00  0.00     0.244 C 
HETATM   17  C18 UNL     1      -3.857   7.008  15.220  1.00  0.00     0.040 C 
HETATM   18  C19 UNL     1      -2.585   7.828  15.181  1.00  0.00     0.041 C 
HETATM   19  C20 UNL     1      -1.880   7.385  13.933  1.00  0.00     0.255 C 
ENDROOT
BRANCH   1  20
HETATM   20  O1  UNL     1      -0.566   9.198  13.027  1.00  0.00    -0.388 OA
HETATM   21  C1  UNL     1       0.401   8.246  12.716  1.00  0.00     0.202 C 
ENDBRANCH   1  20
BRANCH  16  22
HETATM   22  C13 UNL     1      -3.164   4.611  14.829  1.00  0.00     0.161 C 
BRANCH  22  23
HETATM   23  N4  UNL     1      -3.971   3.474  14.534  1.00  0.00    -0.348 N 
HETATM   24  C14 UNL     1      -3.907   2.174  15.095  1.00  0.00     0.186 C 
HETATM   25  N5  UNL     1      -3.346   1.820  16.377  1.00  0.00    -0.064 NA
HETATM   26  N6  UNL     1      -4.424   1.312  14.289  1.00  0.00    -0.363 N 
HETATM   27  C15 UNL     1      -4.885   1.968  13.095  1.00  0.00     0.147 C 
ATOM     28  H6  UNL     1      -4.495   0.311  14.471  1.00  0.00     0.162 HD
HETATM   29  C16 UNL     1      -5.043   3.391  13.576  1.00  0.00     0.100 C 
HETATM   30  C17 UNL     1      -6.409   3.460  14.241  1.00  0.00     0.034 C 
ENDBRANCH  22  23
ENDBRANCH  16  22
TORSDOF 3
ENDMDL
MODEL 3
REMARK VINA RESULT: -6.836375921      2.741      5.344
REMARK  3 active torsions:
REMARK  status: ('A' for Active; 'I' for Inactive)
REMARK    1  A    between atoms: O1_2  and  C2_3 
REMARK    2  A    between atoms: C12_18  and  C13_19 
REMARK    3  A    between atoms: C13_19  and  N4_20 
ROOT
HETATM    1  C2  UNL     1      -2.555   7.634  14.598  1.00  0.00     0.158 C 
HETATM    2  C3  UNL     1      -3.066   6.270  15.029  1.00  0.00     0.099 C 
HETATM    3  C4  UNL     1      -3.242   5.609  13.653  1.00  0.00     0.244 C 
HETATM    4  N1  UNL     1      -1.929   5.268  13.158  1.00  0.00    -0.346 N 
ATOM      5  H1  UNL     1      -1.141   5.914  13.132  1.00  0.00     0.163 HD
HETATM    6  C5  UNL     1      -1.877   4.049  12.754  1.00  0.00     0.091 C 
HETATM    7  N2  UNL     1      -0.723   3.437  12.219  1.00  0.00    -0.088 NA
HETATM    8  C6  UNL     1      -3.209   3.382  12.933  1.00  0.00     0.087 C 
HETATM    9  C7  UNL     1      -3.951   4.329  13.867  1.00  0.00     0.025 C 
HETATM   10  C8  UNL     1      -3.708   3.789  15.278  1.00  0.00     0.040 C 
HETATM   11  C9  UNL     1      -4.476   2.512  15.501  1.00  0.00     0.168 C 
HETATM   12  O2  UNL     1      -5.825   2.620  15.274  1.00  0.00    -0.391 OA
HETATM   13  C10 UNL     1      -6.202   3.877  14.866  1.00  0.00     0.168 C 
HETATM   14  C11 UNL     1      -5.421   4.343  13.643  1.00  0.00     0.040 C 
HETATM   15  N3  UNL     1      -3.921   6.620  12.933  1.00  0.00     0.131 N 
HETATM   16  C12 UNL     1      -3.744   6.599  11.492  1.00  0.00     0.244 C 
HETATM   17  C18 UNL     1      -2.604   7.496  11.192  1.00  0.00     0.040 C 
HETATM   18  C19 UNL     1      -2.573   8.497  12.328  1.00  0.00     0.041 C 
HETATM   19  C20 UNL     1      -3.444   7.898  13.391  1.00  0.00     0.255 C 
ENDROOT
BRANCH   1  20
HETATM   20  O1  UNL     1      -2.682   8.583  15.579  1.00  0.00    -0.388 OA
HETATM   21  C1  UNL     1      -1.419   9.081  15.889  1.00  0.00     0.202 C 
ENDBRANCH   1  20
BRANCH  16  22
HETATM   22  C13 UNL     1      -5.038   6.945  10.803  1.00  0.00     0.161 C 
BRANCH  22  23
HETATM   23  N4  UNL     1      -5.153   6.489   9.458  1.00  0.00    -0.348 N 
HETATM   24  C14 UNL     1      -4.519   5.382   8.842  1.00  0.00     0.186 C 
HETATM   25  N5  UNL     1      -3.986   4.218   9.508  1.00  0.00    -0.064 NA
HETATM   26  N6  UNL     1      -4.466   5.550   7.565  1.00  0.00    -0.363 N 
HETATM   27  C15 UNL     1      -5.067   6.806   7.207  1.00  0.00     0.147 C 
ATOM     28  H6  UNL     1      -4.057   4.888   6.905  1.00  0.00     0.162 HD
HETATM   29  C16 UNL     1      -5.946   7.070   8.406  1.00  0.00     0.100 C 
HETATM   30  C17 UNL     1      -7.231   6.291   8.165  1.00  0.00     0.034 C 
ENDBRANCH  22  23
ENDBRANCH  16  22
TORSDOF 3
ENDMDL
MODEL 4
REMARK VINA RESULT: -6.740288218      2.130      4.386
REMARK  3 active torsions:
REMARK  status: ('A' for Active; 'I' for Inactive)
REMARK    1  A    between atoms: O1_2  and  C2_3 
REMARK    2  A    between atoms: C12_18  and  C13_19 
REMARK    3  A    between atoms: C13_19  and  N4_20 
ROOT
HETATM    1  C2  UNL     1      -4.247   7.554  10.671  1.00  0.00     0.158 C 
HETATM    2  C3  UNL     1      -3.539   8.021  11.932  1.00  0.00     0.099 C 
HETATM    3  C4  UNL     1      -3.104   6.664  12.506  1.00  0.00     0.244 C 
HETATM    4  N1  UNL     1      -1.987   6.192  11.721  1.00  0.00    -0.346 N 
ATOM      5  H1  UNL     1      -1.978   6.154  10.702  1.00  0.00     0.163 HD
HETATM    6  C5  UNL     1      -1.006   5.825  12.466  1.00  0.00     0.091 C 
HETATM    7  N2  UNL     1       0.218   5.320  11.977  1.00  0.00    -0.088 NA
HETATM    8  C6  UNL     1      -1.351   6.011  13.915  1.00  0.00     0.087 C 
HETATM    9  C7  UNL     1      -2.581   6.909  13.867  1.00  0.00     0.025 C 
HETATM   10  C8  UNL     1      -2.052   8.337  14.010  1.00  0.00     0.040 C 
HETATM   11  C9  UNL     1      -1.569   8.591  15.414  1.00  0.00     0.168 C 
HETATM   12  O2  UNL     1      -2.509   8.348  16.384  1.00  0.00    -0.391 OA
HETATM   13  C10 UNL     1      -3.703   7.899  15.874  1.00  0.00     0.168 C 
HETATM   14  C11 UNL     1      -3.526   6.671  14.991  1.00  0.00     0.040 C 
HETATM   15  N3  UNL     1      -4.293   5.908  12.389  1.00  0.00     0.131 N 
HETATM   16  C12 UNL     1      -4.123   4.469  12.283  1.00  0.00     0.244 C 
HETATM   17  C18 UNL     1      -4.073   4.154  10.836  1.00  0.00     0.040 C 
HETATM   18  C19 UNL     1      -4.855   5.260  10.159  1.00  0.00     0.041 C 
HETATM   19  C20 UNL     1      -4.983   6.332  11.199  1.00  0.00     0.255 C 
ENDROOT
BRANCH   1  20
HETATM   20  O1  UNL     1      -5.085   8.505  10.150  1.00  0.00    -0.388 OA
HETATM   21  C1  UNL     1      -6.159   8.681  11.020  1.00  0.00     0.202 C 
ENDBRANCH   1  20
BRANCH  16  22
HETATM   22  C13 UNL     1      -5.196   3.758  13.064  1.00  0.00     0.161 C 
BRANCH  22  23
HETATM   23  N4  UNL     1      -4.727   2.824  14.033  1.00  0.00    -0.348 N 
HETATM   24  C14 UNL     1      -4.482   1.437  13.878  1.00  0.00     0.186 C 
HETATM   25  N5  UNL     1      -4.212   0.747  12.639  1.00  0.00    -0.064 NA
HETATM   26  N6  UNL     1      -4.539   0.841  15.019  1.00  0.00    -0.363 N 
HETATM   27  C15 UNL     1      -4.835   1.791  16.057  1.00  0.00     0.147 C 
ATOM     28  H6  UNL     1      -4.395  -0.158  15.164  1.00  0.00     0.162 HD
HETATM   29  C16 UNL     1      -4.403   3.086  15.411  1.00  0.00     0.100 C 
HETATM   30  C17 UNL     1      -2.901   3.185  15.634  1.00  0.00     0.034 C 
ENDBRANCH  22  23
ENDBRANCH  16  22
TORSDOF 3
ENDMDL
MODEL 5
REMARK VINA RESULT: -6.630075160      1.277      1.571
REMARK  3 active torsions:
REMARK  status: ('A' for Active; 'I' for Inactive)
REMARK    1  A    between atoms: O1_2  and  C2_3 
REMARK    2  A    between atoms: C12_18  and  C13_19 
REMARK    3  A    between atoms: C13_19  and  N4_20 
ROOT
HETATM    1  C2  UNL     1      -2.444   8.219  13.873  1.00  0.00     0.158 C 
HETATM    2  C3  UNL     1      -1.829   7.505  12.681  1.00  0.00     0.099 C 
HETATM    3  C4  UNL     1      -2.737   6.267  12.620  1.00  0.00     0.244 C 
HETATM    4  N1  UNL     1      -4.007   6.680  12.069  1.00  0.00    -0.346 N 
ATOM      5  H1  UNL     1      -4.541   7.484  12.399  1.00  0.00     0.163 HD
HETATM    6  C5  UNL     1      -4.381   5.909  11.111  1.00  0.00     0.091 C 
HETATM    7  N2  UNL     1      -5.580   6.068  10.384  1.00  0.00    -0.088 NA
HETATM    8  C6  UNL     1      -3.365   4.828  10.883  1.00  0.00     0.087 C 
HETATM    9  C7  UNL     1      -2.143   5.332  11.641  1.00  0.00     0.025 C 
HETATM   10  C8  UNL     1      -1.298   6.076  10.605  1.00  0.00     0.040 C 
HETATM   11  C9  UNL     1      -0.657   5.110   9.644  1.00  0.00     0.168 C 
HETATM   12  O2  UNL     1       0.101   4.138  10.246  1.00  0.00    -0.391 OA
HETATM   13  C10 UNL     1       0.104   4.231  11.617  1.00  0.00     0.168 C 
HETATM   14  C11 UNL     1      -1.304   4.238  12.197  1.00  0.00     0.040 C 
HETATM   15  N3  UNL     1      -2.765   5.863  13.976  1.00  0.00     0.131 N 
HETATM   16  C12 UNL     1      -3.939   5.116  14.391  1.00  0.00     0.244 C 
HETATM   17  C18 UNL     1      -4.904   6.106  14.924  1.00  0.00     0.040 C 
HETATM   18  C19 UNL     1      -4.060   7.264  15.414  1.00  0.00     0.041 C 
HETATM   19  C20 UNL     1      -2.710   7.041  14.800  1.00  0.00     0.255 C 
ENDROOT
BRANCH   1  20
HETATM   20  O1  UNL     1      -1.607   9.156  14.420  1.00  0.00    -0.388 OA
HETATM   21  C1  UNL     1      -0.318   8.945  13.934  1.00  0.00     0.202 C 
ENDBRANCH   1  20
BRANCH  16  22
HETATM   22  C13 UNL     1      -3.548   4.017  15.343  1.00  0.00     0.161 C 
BRANCH  22  23
HETATM   23  N4  UNL     1      -4.309   2.817  15.234  1.00  0.00    -0.348 N 
HETATM   24  C14 UNL     1      -5.540   2.491  15.856  1.00  0.00     0.186 C 
HETATM   25  N5  UNL     1      -6.519   3.423  16.361  1.00  0.00    -0.064 NA
HETATM   26  N6  UNL     1      -5.682   1.212  15.925  1.00  0.00    -0.363 N 
HETATM   27  C15 UNL     1      -4.539   0.557  15.349  1.00  0.00     0.147 C 
ATOM     28  H6  UNL     1      -6.488   0.735  16.329  1.00  0.00     0.162 HD
HETATM   29  C16 UNL     1      -3.984   1.646  14.462  1.00  0.00     0.100 C 
HETATM   30  C17 UNL     1      -4.780   1.578  13.167  1.00  0.00     0.034 C 
ENDBRANCH  22  23
ENDBRANCH  16  22
TORSDOF 3
ENDMDL
