MODEL 1
REMARK VINA RESULT: -6.813710570      0.000      0.000
REMARK  6 active torsions:
REMARK  status: ('A' for Active; 'I' for Inactive)
REMARK    1  A    between atoms: C2_2  and  O2_4 
REMARK    2  A    between atoms: O2_4  and  C3_5 
REMARK    3  A    between atoms: C8_12  and  C9_13 
REMARK    4  A    between atoms: C8_12  and  C11_16 
REMARK    5  A    between atoms: C13_18  and  O4_19 
REMARK    6  A    between atoms: C13_18  and  O5_21 
ROOT
HETATM    1  C9  UNL     1      -2.237   4.133  13.619  1.00  0.00     0.147 C 
HETATM    2  C10 UNL     1      -1.173   4.832  13.032  1.00  0.00     0.060 C 
HETATM    3  N2  UNL     1      -0.267   5.422  12.566  1.00  0.00    -0.197 NA
ENDROOT
BRANCH   1   4
HETATM    4  C8  UNL     1      -3.671   4.407  13.170  1.00  0.00     0.092 C 
HETATM    5  C3  UNL     1      -4.618   3.792  14.048  1.00  0.00     0.101 C 
HETATM    6  C4  UNL     1      -5.990   4.400  14.228  1.00  0.00     0.050 C 
HETATM    7  C5  UNL     1      -4.906   2.390  13.589  1.00  0.00     0.165 C 
HETATM    8  N1  UNL     1      -4.652   2.441  12.165  1.00  0.00    -0.353 N 
HETATM    9  C6  UNL     1      -5.362   1.620  11.203  1.00  0.00     0.152 C 
HETATM   10  C7  UNL     1      -3.645   3.389  11.997  1.00  0.00     0.232 C 
HETATM   11  O3  UNL     1      -2.854   3.401  11.045  1.00  0.00    -0.272 OA
BRANCH   5  12
HETATM   12  O2  UNL     1      -4.064   3.533  15.379  1.00  0.00    -0.308 OA
BRANCH  12  13
HETATM   13  C2  UNL     1      -4.265   2.402  16.083  1.00  0.00     0.255 C 
HETATM   14  C1  UNL     1      -5.587   2.066  16.704  1.00  0.00     0.126 C 
HETATM   15  O1  UNL     1      -3.348   1.594  16.237  1.00  0.00    -0.266 OA
ENDBRANCH  12  13
ENDBRANCH   5  12
BRANCH   4  16
HETATM   16  C11 UNL     1      -3.861   5.681  12.408  1.00  0.00     0.046 C 
HETATM   17  C12 UNL     1      -4.879   5.482  11.266  1.00  0.00     0.080 C 
HETATM   18  C13 UNL     1      -5.380   6.716  10.618  1.00  0.00     0.191 C 
HETATM   19  C14 UNL     1      -5.754   7.791  11.548  1.00  0.00     0.110 C 
HETATM   20  C15 UNL     1      -7.236   7.565  11.937  1.00  0.00     0.051 C 
HETATM   21  C16 UNL     1      -5.826   9.134  10.804  1.00  0.00     0.051 C 
HETATM   22  O6  UNL     1      -5.076   7.773  12.658  1.00  0.00    -0.365 OA
HETATM   23  C17 UNL     1      -3.938   7.028  12.907  1.00  0.00     0.060 C 
HETATM   24  C18 UNL     1      -3.743   7.382  14.358  1.00  0.00     0.046 C 
HETATM   25  C19 UNL     1      -2.803   7.892  12.259  1.00  0.00     0.046 C 
BRANCH  18  26
HETATM   26  O4  UNL     1      -4.589   7.139   9.522  1.00  0.00    -0.363 OA
ATOM     27  H4  UNL     1      -4.752   8.038   9.262  1.00  0.00     0.213 HD
ENDBRANCH  18  26
BRANCH  18  28
HETATM   28  O5  UNL     1      -6.572   6.339   9.933  1.00  0.00    -0.363 OA
ATOM     29  H5  UNL     1      -7.000   7.151   9.691  1.00  0.00     0.213 HD
ENDBRANCH  18  28
ENDBRANCH   4  16
ENDBRANCH   1   4
TORSDOF 6
ENDMDL
MODEL 2
REMARK VINA RESULT: -6.554134848      2.156      3.882
REMARK  6 active torsions:
REMARK  status: ('A' for Active; 'I' for Inactive)
REMARK    1  A    between atoms: C2_2  and  O2_4 
REMARK    2  A    between atoms: O2_4  and  C3_5 
REMARK    3  A    between atoms: C8_12  and  C9_13 
REMARK    4  A    between atoms: C8_12  and  C11_16 
REMARK    5  A    between atoms: C13_18  and  O4_19 
REMARK    6  A    between atoms: C13_18  and  O5_21 
ROOT
HETATM    1  C9  UNL     1      -4.490   4.175  11.955  1.00  0.00     0.147 C 
HETATM    2  C10 UNL     1      -3.664   3.104  12.327  1.00  0.00     0.060 C 
HETATM    3  N2  UNL     1      -2.993   2.187  12.634  1.00  0.00    -0.197 NA
ENDROOT
BRANCH   1   4
HETATM    4  C8  UNL     1      -4.488   5.462  12.777  1.00  0.00     0.092 C 
HETATM    5  C3  UNL     1      -5.455   5.408  13.830  1.00  0.00     0.101 C 
HETATM    6  C4  UNL     1      -5.230   6.188  15.105  1.00  0.00     0.050 C 
HETATM    7  C5  UNL     1      -6.783   5.908  13.334  1.00  0.00     0.165 C 
HETATM    8  N1  UNL     1      -6.424   6.815  12.265  1.00  0.00    -0.353 N 
HETATM    9  C6  UNL     1      -7.208   7.986  11.922  1.00  0.00     0.152 C 
HETATM   10  C7  UNL     1      -5.249   6.303  11.716  1.00  0.00     0.232 C 
HETATM   11  O3  UNL     1      -4.884   6.501  10.550  1.00  0.00    -0.272 OA
BRANCH   5  12
HETATM   12  O2  UNL     1      -5.804   4.034  14.201  1.00  0.00    -0.308 OA
BRANCH  12  13
HETATM   13  C2  UNL     1      -5.744   3.543  15.455  1.00  0.00     0.255 C 
HETATM   14  C1  UNL     1      -4.608   2.689  15.930  1.00  0.00     0.126 C 
HETATM   15  O1  UNL     1      -6.640   3.789  16.263  1.00  0.00    -0.266 OA
ENDBRANCH  12  13
ENDBRANCH   5  12
BRANCH   4  16
HETATM   16  C11 UNL     1      -3.182   6.192  12.804  1.00  0.00     0.046 C 
HETATM   17  C12 UNL     1      -3.400   7.701  12.564  1.00  0.00     0.080 C 
HETATM   18  C13 UNL     1      -2.244   8.580  12.851  1.00  0.00     0.191 C 
HETATM   19  C14 UNL     1      -1.547   8.288  14.110  1.00  0.00     0.110 C 
HETATM   20  C15 UNL     1      -2.255   9.099  15.224  1.00  0.00     0.051 C 
HETATM   21  C16 UNL     1      -0.148   8.923  14.102  1.00  0.00     0.051 C 
HETATM   22  O6  UNL     1      -1.618   7.038  14.464  1.00  0.00    -0.365 OA
HETATM   23  C17 UNL     1      -2.054   5.990  13.673  1.00  0.00     0.060 C 
HETATM   24  C18 UNL     1      -1.987   4.886  14.695  1.00  0.00     0.046 C 
HETATM   25  C19 UNL     1      -0.788   5.648  12.815  1.00  0.00     0.046 C 
BRANCH  18  26
HETATM   26  O4  UNL     1      -1.388   8.766  11.738  1.00  0.00    -0.363 OA
ATOM     27  H4  UNL     1      -0.913   9.589  11.759  1.00  0.00     0.213 HD
ENDBRANCH  18  26
BRANCH  18  28
HETATM   28  O5  UNL     1      -2.777   9.895  12.976  1.00  0.00    -0.363 OA
ATOM     29  H5  UNL     1      -2.504  10.205  13.832  1.00  0.00     0.213 HD
ENDBRANCH  18  28
ENDBRANCH   4  16
ENDBRANCH   1   4
TORSDOF 6
ENDMDL
MODEL 3
REMARK VINA RESULT: -6.498854103      2.279      5.318
REMARK  6 active torsions:
REMARK  status: ('A' for Active; 'I' for Inactive)
REMARK    1  A    between atoms: C2_2  and  O2_4 
REMARK    2  A    between atoms: O2_4  and  C3_5 
REMARK    3  A    between atoms: C8_12  and  C9_13 
REMARK    4  A    between atoms: C8_12  and  C11_16 
REMARK    5  A    between atoms: C13_18  and  O4_19 
REMARK    6  A    between atoms: C13_18  and  O5_21 
ROOT
HETATM    1  C9  UNL     1      -4.490   7.674  12.099  1.00  0.00     0.147 C 
HETATM    2  C10 UNL     1      -5.858   7.594  11.803  1.00  0.00     0.060 C 
HETATM    3  N2  UNL     1      -7.011   7.553  11.569  1.00  0.00    -0.197 NA
ENDROOT
BRANCH   1   4
HETATM    4  C8  UNL     1      -3.738   6.434  12.579  1.00  0.00     0.092 C 
HETATM    5  C3  UNL     1      -2.404   6.756  12.980  1.00  0.00     0.101 C 
HETATM    6  C4  UNL     1      -1.711   5.931  14.040  1.00  0.00     0.050 C 
HETATM    7  C5  UNL     1      -1.479   6.672  11.799  1.00  0.00     0.165 C 
HETATM    8  N1  UNL     1      -2.125   5.711  10.931  1.00  0.00    -0.353 N 
HETATM    9  C6  UNL     1      -1.395   4.824  10.046  1.00  0.00     0.152 C 
HETATM   10  C7  UNL     1      -3.493   5.864  11.155  1.00  0.00     0.232 C 
HETATM   11  O3  UNL     1      -4.368   5.580  10.327  1.00  0.00    -0.272 OA
BRANCH   5  12
HETATM   12  O2  UNL     1      -2.253   8.168  13.342  1.00  0.00    -0.308 OA
BRANCH  12  13
HETATM   13  C2  UNL     1      -1.604   8.610  14.438  1.00  0.00     0.255 C 
HETATM   14  C1  UNL     1      -2.261   8.693  15.782  1.00  0.00     0.126 C 
HETATM   15  O1  UNL     1      -0.427   8.964  14.363  1.00  0.00    -0.266 OA
ENDBRANCH  12  13
ENDBRANCH   5  12
BRANCH   4  16
HETATM   16  C11 UNL     1      -4.603   5.354  13.149  1.00  0.00     0.046 C 
HETATM   17  C12 UNL     1      -4.026   3.963  12.811  1.00  0.00     0.080 C 
HETATM   18  C13 UNL     1      -4.608   2.820  13.550  1.00  0.00     0.191 C 
HETATM   19  C14 UNL     1      -4.780   3.042  14.992  1.00  0.00     0.110 C 
HETATM   20  C15 UNL     1      -3.456   2.625  15.679  1.00  0.00     0.051 C 
HETATM   21  C16 UNL     1      -5.769   2.018  15.571  1.00  0.00     0.051 C 
HETATM   22  O6  UNL     1      -4.980   4.289  15.303  1.00  0.00    -0.365 OA
HETATM   23  C17 UNL     1      -5.274   5.313  14.421  1.00  0.00     0.060 C 
HETATM   24  C18 UNL     1      -5.269   6.463  15.393  1.00  0.00     0.046 C 
HETATM   25  C19 UNL     1      -6.815   5.150  14.195  1.00  0.00     0.046 C 
BRANCH  18  26
HETATM   26  O4  UNL     1      -5.734   2.248  12.907  1.00  0.00    -0.363 OA
ATOM     27  H4  UNL     1      -5.555   1.403  12.511  1.00  0.00     0.213 HD
ENDBRANCH  18  26
BRANCH  18  28
HETATM   28  O5  UNL     1      -3.675   1.752  13.411  1.00  0.00    -0.363 OA
ATOM     29  H5  UNL     1      -4.166   1.024  13.049  1.00  0.00     0.213 HD
ENDBRANCH  18  28
ENDBRANCH   4  16
ENDBRANCH   1   4
TORSDOF 6
ENDMDL
MODEL 4
REMARK VINA RESULT: -6.155972620      2.195      3.532
REMARK  6 active torsions:
REMARK  status: ('A' for Active; 'I' for Inactive)
REMARK    1  A    between atoms: C2_2  and  O2_4 
REMARK    2  A    between atoms: O2_4  and  C3_5 
REMARK    3  A    between atoms: C8_12  and  C9_13 
REMARK    4  A    between atoms: C8_12  and  C11_16 
REMARK    5  A    between atoms: C13_18  and  O4_19 
REMARK    6  A    between atoms: C13_18  and  O5_21 
ROOT
HETATM    1  C9  UNL     1      -1.162   4.694  12.897  1.00  0.00     0.147 C 
HETATM    2  C10 UNL     1      -0.299   4.251  11.885  1.00  0.00     0.060 C 
HETATM    3  N2  UNL     1       0.449   3.890  11.050  1.00  0.00    -0.197 NA
ENDROOT
BRANCH   1   4
HETATM    4  C8  UNL     1      -2.509   5.316  12.533  1.00  0.00     0.092 C 
HETATM    5  C3  UNL     1      -3.026   6.106  13.608  1.00  0.00     0.101 C 
HETATM    6  C4  UNL     1      -3.928   7.283  13.318  1.00  0.00     0.050 C 
HETATM    7  C5  UNL     1      -3.845   5.245  14.529  1.00  0.00     0.165 C 
HETATM    8  N1  UNL     1      -4.317   4.183  13.667  1.00  0.00    -0.353 N 
HETATM    9  C6  UNL     1      -5.589   3.511  13.859  1.00  0.00     0.152 C 
HETATM   10  C7  UNL     1      -3.319   4.003  12.711  1.00  0.00     0.232 C 
HETATM   11  O3  UNL     1      -3.122   2.942  12.103  1.00  0.00    -0.272 OA
BRANCH   5  12
HETATM   12  O2  UNL     1      -1.977   6.560  14.525  1.00  0.00    -0.308 OA
BRANCH  12  13
HETATM   13  C2  UNL     1      -1.673   7.853  14.756  1.00  0.00     0.255 C 
HETATM   14  C1  UNL     1      -2.258   8.623  15.901  1.00  0.00     0.126 C 
HETATM   15  O1  UNL     1      -0.888   8.449  14.018  1.00  0.00    -0.266 OA
ENDBRANCH  12  13
ENDBRANCH   5  12
BRANCH   4  16
HETATM   16  C11 UNL     1      -2.718   5.558  11.071  1.00  0.00     0.046 C 
HETATM   17  C12 UNL     1      -4.165   5.209  10.666  1.00  0.00     0.080 C 
HETATM   18  C13 UNL     1      -4.596   5.670   9.326  1.00  0.00     0.191 C 
HETATM   19  C14 UNL     1      -4.220   7.052   9.001  1.00  0.00     0.110 C 
HETATM   20  C15 UNL     1      -5.355   7.969   9.522  1.00  0.00     0.051 C 
HETATM   21  C16 UNL     1      -4.304   7.282   7.484  1.00  0.00     0.051 C 
HETATM   22  O6  UNL     1      -3.130   7.445   9.592  1.00  0.00    -0.365 OA
HETATM   23  C17 UNL     1      -2.225   6.636  10.256  1.00  0.00     0.060 C 
HETATM   24  C18 UNL     1      -1.297   7.703  10.773  1.00  0.00     0.046 C 
HETATM   25  C19 UNL     1      -1.354   6.055   9.091  1.00  0.00     0.046 C 
BRANCH  18  26
HETATM   26  O4  UNL     1      -4.332   4.734   8.296  1.00  0.00    -0.363 OA
ATOM     27  H4  UNL     1      -4.954   4.774   7.580  1.00  0.00     0.213 HD
ENDBRANCH  18  26
BRANCH  18  28
HETATM   28  O5  UNL     1      -6.021   5.628   9.340  1.00  0.00    -0.363 OA
ATOM     29  H5  UNL     1      -6.256   5.092  10.089  1.00  0.00     0.213 HD
ENDBRANCH  18  28
ENDBRANCH   4  16
ENDBRANCH   1   4
TORSDOF 6
ENDMDL
MODEL 5
REMARK VINA RESULT: -5.932841794      2.294      5.511
REMARK  6 active torsions:
REMARK  status: ('A' for Active; 'I' for Inactive)
REMARK    1  A    between atoms: C2_2  and  O2_4 
REMARK    2  A    between atoms: O2_4  and  C3_5 
REMARK    3  A    between atoms: C8_12  and  C9_13 
REMARK    4  A    between atoms: C8_12  and  C11_16 
REMARK    5  A    between atoms: C13_18  and  O4_19 
REMARK    6  A    between atoms: C13_18  and  O5_21 
ROOT
HETATM    1  C9  UNL     1      -2.046   7.356  11.394  1.00  0.00     0.147 C 
HETATM    2  C10 UNL     1      -1.538   7.735  12.645  1.00  0.00     0.060 C 
HETATM    3  N2  UNL     1      -1.085   8.056  13.683  1.00  0.00    -0.197 NA
ENDROOT
BRANCH   1   4
HETATM    4  C8  UNL     1      -3.065   6.223  11.295  1.00  0.00     0.092 C 
HETATM    5  C3  UNL     1      -3.160   5.723   9.958  1.00  0.00     0.101 C 
HETATM    6  C4  UNL     1      -3.550   4.284   9.714  1.00  0.00     0.050 C 
HETATM    7  C5  UNL     1      -4.186   6.507   9.189  1.00  0.00     0.165 C 
HETATM    8  N1  UNL     1      -5.091   6.977  10.215  1.00  0.00    -0.353 N 
HETATM    9  C6  UNL     1      -6.507   7.191   9.986  1.00  0.00     0.152 C 
HETATM   10  C7  UNL     1      -4.308   7.152  11.355  1.00  0.00     0.232 C 
HETATM   11  O3  UNL     1      -4.582   7.939  12.271  1.00  0.00    -0.272 OA
BRANCH   5  12
HETATM   12  O2  UNL     1      -1.957   6.002   9.168  1.00  0.00    -0.308 OA
BRANCH  12  13
HETATM   13  C2  UNL     1      -1.205   5.060   8.566  1.00  0.00     0.255 C 
HETATM   14  C1  UNL     1       0.082   4.564   9.152  1.00  0.00     0.126 C 
HETATM   15  O1  UNL     1      -1.562   4.571   7.494  1.00  0.00    -0.266 OA
ENDBRANCH  12  13
ENDBRANCH   5  12
BRANCH   4  16
HETATM   16  C11 UNL     1      -3.262   5.440  12.555  1.00  0.00     0.046 C 
HETATM   17  C12 UNL     1      -4.755   5.112  12.762  1.00  0.00     0.080 C 
HETATM   18  C13 UNL     1      -5.063   4.103  13.800  1.00  0.00     0.191 C 
HETATM   19  C14 UNL     1      -4.206   2.910  13.772  1.00  0.00     0.110 C 
HETATM   20  C15 UNL     1      -4.863   1.898  12.799  1.00  0.00     0.051 C 
HETATM   21  C16 UNL     1      -4.296   2.161  15.110  1.00  0.00     0.051 C 
HETATM   22  O6  UNL     1      -3.012   3.141  13.310  1.00  0.00    -0.365 OA
HETATM   23  C17 UNL     1      -2.446   4.385  13.097  1.00  0.00     0.060 C 
HETATM   24  C18 UNL     1      -1.147   3.945  12.476  1.00  0.00     0.046 C 
HETATM   25  C19 UNL     1      -1.946   4.793  14.524  1.00  0.00     0.046 C 
BRANCH  18  26
HETATM   26  O4  UNL     1      -5.249   4.660  15.090  1.00  0.00    -0.363 OA
ATOM     27  H4  UNL     1      -4.650   4.313  15.741  1.00  0.00     0.213 HD
ENDBRANCH  18  26
BRANCH  18  28
HETATM   28  O5  UNL     1      -6.389   3.658  13.529  1.00  0.00    -0.363 OA
ATOM     29  H5  UNL     1      -6.761   3.424  14.371  1.00  0.00     0.213 HD
ENDBRANCH  18  28
ENDBRANCH   4  16
ENDBRANCH   1   4
TORSDOF 6
ENDMDL
