MODEL 1
REMARK VINA RESULT: -7.084953679      0.000      0.000
REMARK  10 active torsions:
REMARK  status: ('A' for Active; 'I' for Inactive)
REMARK    1  A    between atoms: C2_2  and  N1_3 
REMARK    2  A    between atoms: C2_2  and  N3_27 
REMARK    3  A    between atoms: N1_3  and  C3_4 
REMARK    4  A    between atoms: C3_4  and  O1_5 
REMARK    5  A    between atoms: C3_4  and  C4_7 
REMARK    6  A    between atoms: C4_7  and  C5_8 
REMARK    7  A    between atoms: C6_10  and  C7_11 
REMARK    8  A    between atoms: C13_19  and  O4_20 
REMARK    9  A    between atoms: C15_23  and  C16_24 
REMARK   10  A    between atoms: C16_24  and  O5_25 
ROOT
HETATM    1  C4  UNL     1      -3.331   4.369  11.620  1.00  0.00     0.080 A 
HETATM    2  C14 UNL     1      -3.964   5.572  12.261  1.00  0.00     0.031 A 
HETATM    3  C15 UNL     1      -2.446   5.374  12.222  1.00  0.00     0.031 A 
ENDROOT
BRANCH   1   4
HETATM    4  C3  UNL     1      -3.446   4.407  10.130  1.00  0.00     0.204 C 
BRANCH   4   5
HETATM    5  N1  UNL     1      -4.369   4.856   9.310  1.00  0.00    -0.371 NA
BRANCH   5   6
HETATM    6  C2  UNL     1      -5.207   5.269   8.562  1.00  0.00     0.152 C 
HETATM    7  C1  UNL     1      -5.141   4.847   7.091  1.00  0.00     0.106 C 
BRANCH   6   8
HETATM    8  N3  UNL     1      -6.300   6.147   8.937  1.00  0.00    -0.356 N 
HETATM    9  C17 UNL     1      -7.621   6.045   8.372  1.00  0.00     0.151 C 
HETATM   10  C18 UNL     1      -8.196   7.463   8.413  1.00  0.00     0.187 C 
HETATM   11  O6  UNL     1      -8.335   7.916   9.699  1.00  0.00    -0.388 OA
HETATM   12  C19 UNL     1      -7.281   7.704  10.543  1.00  0.00     0.187 C 
HETATM   13  C20 UNL     1      -6.039   7.164   9.922  1.00  0.00     0.151 C 
ENDBRANCH   6   8
ENDBRANCH   5   6
ENDBRANCH   4   5
BRANCH   4  14
HETATM   14  O1  UNL     1      -2.375   3.873   9.565  1.00  0.00    -0.338 OA
ATOM     15  H1  UNL     1      -2.538   3.229   8.886  1.00  0.00     0.220 HD
ENDBRANCH   4  14
ENDBRANCH   1   4
BRANCH   1  16
HETATM   16  C5  UNL     1      -3.699   3.072  12.289  1.00  0.00     0.126 C 
HETATM   17  O2  UNL     1      -4.313   2.198  11.293  1.00  0.00    -0.351 OA
HETATM   18  C6  UNL     1      -3.688   1.100  11.793  1.00  0.00     0.169 C 
HETATM   19  C10 UNL     1      -4.405   0.673  13.043  1.00  0.00     0.238 C 
HETATM   20  C13 UNL     1      -2.610   2.052  12.351  1.00  0.00     0.199 C 
HETATM   21  O3  UNL     1      -4.920  -0.420  13.253  1.00  0.00    -0.276 OA
HETATM   22  N2  UNL     1      -4.445   1.688  14.027  1.00  0.00    -0.240 NA
HETATM   23  C11 UNL     1      -4.514   2.951  14.837  1.00  0.00     0.122 A 
HETATM   24  C12 UNL     1      -4.645   3.089  13.429  1.00  0.00     0.118 A 
BRANCH  18  25
HETATM   25  C7  UNL     1      -3.235   0.037  10.892  1.00  0.00     0.024 C 
HETATM   26  C8  UNL     1      -4.333  -0.317   9.940  1.00  0.00     0.013 C 
HETATM   27  C9  UNL     1      -2.686  -1.157  11.630  1.00  0.00     0.013 C 
ENDBRANCH  18  25
BRANCH  20  28
HETATM   28  O4  UNL     1      -1.575   2.131  11.466  1.00  0.00    -0.389 OA
ATOM     29  H4  UNL     1      -1.528   2.875  10.877  1.00  0.00     0.210 HD
ENDBRANCH  20  28
ENDBRANCH   1  16
BRANCH   3  30
HETATM   30  C16 UNL     1      -1.831   5.369  13.562  1.00  0.00     0.170 C 
BRANCH  30  31
HETATM   31  O5  UNL     1      -1.080   4.244  13.887  1.00  0.00    -0.400 OA
ATOM     32  H5  UNL     1      -0.247   4.153  13.441  1.00  0.00     0.209 HD
ENDBRANCH  30  31
ENDBRANCH   3  30
TORSDOF 10
ENDMDL
MODEL 2
REMARK VINA RESULT: -7.036615459      1.321      1.748
REMARK  10 active torsions:
REMARK  status: ('A' for Active; 'I' for Inactive)
REMARK    1  A    between atoms: C2_2  and  N1_3 
REMARK    2  A    between atoms: C2_2  and  N3_27 
REMARK    3  A    between atoms: N1_3  and  C3_4 
REMARK    4  A    between atoms: C3_4  and  O1_5 
REMARK    5  A    between atoms: C3_4  and  C4_7 
REMARK    6  A    between atoms: C4_7  and  C5_8 
REMARK    7  A    between atoms: C6_10  and  C7_11 
REMARK    8  A    between atoms: C13_19  and  O4_20 
REMARK    9  A    between atoms: C15_23  and  C16_24 
REMARK   10  A    between atoms: C16_24  and  O5_25 
ROOT
HETATM    1  C4  UNL     1      -4.156   4.836  11.518  1.00  0.00     0.080 A 
HETATM    2  C14 UNL     1      -4.513   6.039  12.345  1.00  0.00     0.031 A 
HETATM    3  C15 UNL     1      -3.130   5.869  11.708  1.00  0.00     0.031 A 
ENDROOT
BRANCH   1   4
HETATM    4  C3  UNL     1      -4.855   4.842  10.197  1.00  0.00     0.204 C 
BRANCH   4   5
HETATM    5  N1  UNL     1      -5.752   5.635   9.656  1.00  0.00    -0.371 NA
BRANCH   5   6
HETATM    6  C2  UNL     1      -6.566   6.360   9.162  1.00  0.00     0.152 C 
HETATM    7  C1  UNL     1      -7.661   5.737   8.291  1.00  0.00     0.106 C 
BRANCH   6   8
HETATM    8  N3  UNL     1      -6.606   7.802   9.323  1.00  0.00    -0.356 N 
HETATM    9  C17 UNL     1      -5.525   8.558   9.901  1.00  0.00     0.151 C 
HETATM   10  C18 UNL     1      -6.180   9.777  10.554  1.00  0.00     0.187 C 
HETATM   11  O6  UNL     1      -6.792  10.580   9.628  1.00  0.00    -0.388 OA
HETATM   12  C19 UNL     1      -7.562   9.956   8.686  1.00  0.00     0.187 C 
HETATM   13  C20 UNL     1      -7.786   8.497   8.881  1.00  0.00     0.151 C 
ENDBRANCH   6   8
ENDBRANCH   5   6
ENDBRANCH   4   5
BRANCH   4  14
HETATM   14  O1  UNL     1      -4.451   3.826   9.451  1.00  0.00    -0.338 OA
ATOM     15  H1  UNL     1      -3.966   4.051   8.666  1.00  0.00     0.220 HD
ENDBRANCH   4  14
ENDBRANCH   1   4
BRANCH   1  16
HETATM   16  C5  UNL     1      -4.197   3.546  12.294  1.00  0.00     0.126 C 
HETATM   17  O2  UNL     1      -4.967   2.572  11.526  1.00  0.00    -0.351 OA
HETATM   18  C6  UNL     1      -4.123   1.561  11.859  1.00  0.00     0.169 C 
HETATM   19  C10 UNL     1      -4.426   1.134  13.268  1.00  0.00     0.238 C 
HETATM   20  C13 UNL     1      -3.035   2.632  12.076  1.00  0.00     0.199 C 
HETATM   21  O3  UNL     1      -4.752   0.011  13.637  1.00  0.00    -0.276 OA
HETATM   22  N2  UNL     1      -4.298   2.189  14.202  1.00  0.00    -0.240 NA
HETATM   23  C11 UNL     1      -4.270   3.479  14.969  1.00  0.00     0.122 A 
HETATM   24  C12 UNL     1      -4.793   3.534  13.649  1.00  0.00     0.118 A 
BRANCH  18  25
HETATM   25  C7  UNL     1      -3.828   0.500  10.893  1.00  0.00     0.024 C 
HETATM   26  C8  UNL     1      -5.105  -0.016  10.308  1.00  0.00     0.013 C 
HETATM   27  C9  UNL     1      -2.962  -0.590  11.471  1.00  0.00     0.013 C 
ENDBRANCH  18  25
BRANCH  20  28
HETATM   28  O4  UNL     1      -2.294   2.761  10.938  1.00  0.00    -0.389 OA
ATOM     29  H4  UNL     1      -1.346   2.757  11.001  1.00  0.00     0.210 HD
ENDBRANCH  20  28
ENDBRANCH   1  16
BRANCH   3  30
HETATM   30  C16 UNL     1      -2.034   5.902  12.694  1.00  0.00     0.170 C 
BRANCH  30  31
HETATM   31  O5  UNL     1      -0.876   5.215  12.346  1.00  0.00    -0.400 OA
ATOM     32  H5  UNL     1      -0.610   4.518  12.934  1.00  0.00     0.209 HD
ENDBRANCH  30  31
ENDBRANCH   3  30
TORSDOF 10
ENDMDL
MODEL 3
REMARK VINA RESULT: -6.897040813      1.907      2.788
REMARK  10 active torsions:
REMARK  status: ('A' for Active; 'I' for Inactive)
REMARK    1  A    between atoms: C2_2  and  N1_3 
REMARK    2  A    between atoms: C2_2  and  N3_27 
REMARK    3  A    between atoms: N1_3  and  C3_4 
REMARK    4  A    between atoms: C3_4  and  O1_5 
REMARK    5  A    between atoms: C3_4  and  C4_7 
REMARK    6  A    between atoms: C4_7  and  C5_8 
REMARK    7  A    between atoms: C6_10  and  C7_11 
REMARK    8  A    between atoms: C13_19  and  O4_20 
REMARK    9  A    between atoms: C15_23  and  C16_24 
REMARK   10  A    between atoms: C16_24  and  O5_25 
ROOT
HETATM    1  C4  UNL     1      -4.875   4.967  14.065  1.00  0.00     0.080 A 
HETATM    2  C14 UNL     1      -4.861   5.571  15.441  1.00  0.00     0.031 A 
HETATM    3  C15 UNL     1      -3.814   5.931  14.383  1.00  0.00     0.031 A 
ENDROOT
BRANCH   1   4
HETATM    4  C3  UNL     1      -6.007   5.489  13.240  1.00  0.00     0.204 C 
BRANCH   4   5
HETATM    5  N1  UNL     1      -6.066   6.240  12.163  1.00  0.00    -0.371 NA
BRANCH   5   6
HETATM    6  C2  UNL     1      -6.116   6.924  11.182  1.00  0.00     0.152 C 
HETATM    7  C1  UNL     1      -5.994   8.441  11.347  1.00  0.00     0.106 C 
BRANCH   6   8
HETATM    8  N3  UNL     1      -6.282   6.428   9.828  1.00  0.00    -0.356 N 
HETATM    9  C17 UNL     1      -7.350   6.854   8.961  1.00  0.00     0.151 C 
HETATM   10  C18 UNL     1      -7.624   5.669   8.033  1.00  0.00     0.187 C 
HETATM   11  O6  UNL     1      -6.542   5.384   7.241  1.00  0.00    -0.388 OA
HETATM   12  C19 UNL     1      -5.320   5.358   7.855  1.00  0.00     0.187 C 
HETATM   13  C20 UNL     1      -5.329   5.466   9.341  1.00  0.00     0.151 C 
ENDBRANCH   6   8
ENDBRANCH   5   6
ENDBRANCH   4   5
BRANCH   4  14
HETATM   14  O1  UNL     1      -7.167   5.083  13.731  1.00  0.00    -0.338 OA
ATOM     15  H1  UNL     1      -7.334   5.296  14.641  1.00  0.00     0.220 HD
ENDBRANCH   4  14
ENDBRANCH   1   4
BRANCH   1  16
HETATM   16  C5  UNL     1      -4.677   3.475  14.066  1.00  0.00     0.126 C 
HETATM   17  O2  UNL     1      -5.427   2.911  12.947  1.00  0.00    -0.351 OA
HETATM   18  C6  UNL     1      -4.442   2.018  12.667  1.00  0.00     0.169 C 
HETATM   19  C10 UNL     1      -4.517   0.899  13.668  1.00  0.00     0.238 C 
HETATM   20  C13 UNL     1      -3.459   2.992  13.348  1.00  0.00     0.199 C 
HETATM   21  O3  UNL     1      -4.670  -0.293  13.423  1.00  0.00    -0.276 OA
HETATM   22  N2  UNL     1      -4.389   1.347  15.004  1.00  0.00    -0.240 NA
HETATM   23  C11 UNL     1      -4.405   2.063  16.324  1.00  0.00     0.122 A 
HETATM   24  C12 UNL     1      -5.093   2.690  15.250  1.00  0.00     0.118 A 
BRANCH  18  25
HETATM   25  C7  UNL     1      -4.158   1.647  11.279  1.00  0.00     0.024 C 
HETATM   26  C8  UNL     1      -5.310   0.875  10.717  1.00  0.00     0.013 C 
HETATM   27  C9  UNL     1      -2.839   0.934  11.124  1.00  0.00     0.013 C 
ENDBRANCH  18  25
BRANCH  20  28
HETATM   28  O4  UNL     1      -2.886   3.789  12.402  1.00  0.00    -0.389 OA
ATOM     29  H4  UNL     1      -3.391   4.032  11.635  1.00  0.00     0.210 HD
ENDBRANCH  20  28
ENDBRANCH   1  16
BRANCH   3  30
HETATM   30  C16 UNL     1      -2.433   5.661  14.824  1.00  0.00     0.170 C 
BRANCH  30  31
HETATM   31  O5  UNL     1      -1.444   5.791  13.855  1.00  0.00    -0.400 OA
ATOM     32  H5  UNL     1      -0.684   5.230  13.955  1.00  0.00     0.209 HD
ENDBRANCH  30  31
ENDBRANCH   3  30
TORSDOF 10
ENDMDL
MODEL 4
REMARK VINA RESULT: -6.758060987      2.068      3.839
REMARK  10 active torsions:
REMARK  status: ('A' for Active; 'I' for Inactive)
REMARK    1  A    between atoms: C2_2  and  N1_3 
REMARK    2  A    between atoms: C2_2  and  N3_27 
REMARK    3  A    between atoms: N1_3  and  C3_4 
REMARK    4  A    between atoms: C3_4  and  O1_5 
REMARK    5  A    between atoms: C3_4  and  C4_7 
REMARK    6  A    between atoms: C4_7  and  C5_8 
REMARK    7  A    between atoms: C6_10  and  C7_11 
REMARK    8  A    between atoms: C13_19  and  O4_20 
REMARK    9  A    between atoms: C15_23  and  C16_24 
REMARK   10  A    between atoms: C16_24  and  O5_25 
ROOT
HETATM    1  C4  UNL     1      -3.782   4.547  11.691  1.00  0.00     0.080 A 
HETATM    2  C14 UNL     1      -4.349   5.704  12.465  1.00  0.00     0.031 A 
HETATM    3  C15 UNL     1      -2.853   5.582  12.163  1.00  0.00     0.031 A 
ENDROOT
BRANCH   1   4
HETATM    4  C3  UNL     1      -4.153   4.612  10.244  1.00  0.00     0.204 C 
BRANCH   4   5
HETATM    5  N1  UNL     1      -3.474   4.881   9.152  1.00  0.00    -0.371 NA
BRANCH   5   6
HETATM    6  C2  UNL     1      -2.860   5.128   8.154  1.00  0.00     0.152 C 
HETATM    7  C1  UNL     1      -3.604   5.776   6.983  1.00  0.00     0.106 C 
BRANCH   6   8
HETATM    8  N3  UNL     1      -1.446   4.862   7.959  1.00  0.00    -0.356 N 
HETATM    9  C17 UNL     1      -0.559   4.501   9.034  1.00  0.00     0.151 C 
HETATM   10  C18 UNL     1       0.819   5.024   8.622  1.00  0.00     0.187 C 
HETATM   11  O6  UNL     1       1.278   4.408   7.488  1.00  0.00    -0.388 OA
HETATM   12  C19 UNL     1       0.388   4.274   6.458  1.00  0.00     0.187 C 
HETATM   13  C20 UNL     1      -0.919   4.970   6.624  1.00  0.00     0.151 C 
ENDBRANCH   6   8
ENDBRANCH   5   6
ENDBRANCH   4   5
BRANCH   4  14
HETATM   14  O1  UNL     1      -5.434   4.328  10.078  1.00  0.00    -0.338 OA
ATOM     15  H1  UNL     1      -5.731   4.244   9.180  1.00  0.00     0.220 HD
ENDBRANCH   4  14
ENDBRANCH   1   4
BRANCH   1  16
HETATM   16  C5  UNL     1      -3.973   3.220  12.375  1.00  0.00     0.126 C 
HETATM   17  O2  UNL     1      -4.641   2.315  11.444  1.00  0.00    -0.351 OA
HETATM   18  C6  UNL     1      -3.883   1.260  11.842  1.00  0.00     0.169 C 
HETATM   19  C10 UNL     1      -4.409   0.769  13.162  1.00  0.00     0.238 C 
HETATM   20  C13 UNL     1      -2.815   2.281  12.282  1.00  0.00     0.199 C 
HETATM   21  O3  UNL     1      -4.816  -0.361  13.412  1.00  0.00    -0.276 OA
HETATM   22  N2  UNL     1      -4.399   1.768  14.163  1.00  0.00    -0.240 NA
HETATM   23  C11 UNL     1      -4.455   3.013  15.000  1.00  0.00     0.122 A 
HETATM   24  C12 UNL     1      -4.769   3.156  13.622  1.00  0.00     0.118 A 
BRANCH  18  25
HETATM   25  C7  UNL     1      -3.472   0.243  10.872  1.00  0.00     0.024 C 
HETATM   26  C8  UNL     1      -4.654  -0.187  10.061  1.00  0.00     0.013 C 
HETATM   27  C9  UNL     1      -2.744  -0.912  11.511  1.00  0.00     0.013 C 
ENDBRANCH  18  25
BRANCH  20  28
HETATM   28  O4  UNL     1      -1.906   2.445  11.279  1.00  0.00    -0.389 OA
ATOM     29  H4  UNL     1      -1.791   1.750  10.642  1.00  0.00     0.210 HD
ENDBRANCH  20  28
ENDBRANCH   1  16
BRANCH   3  30
HETATM   30  C16 UNL     1      -2.018   5.578  13.379  1.00  0.00     0.170 C 
BRANCH  30  31
HETATM   31  O5  UNL     1      -0.929   4.712  13.372  1.00  0.00    -0.400 OA
ATOM     32  H5  UNL     1      -0.072   5.118  13.318  1.00  0.00     0.209 HD
ENDBRANCH  30  31
ENDBRANCH   3  30
TORSDOF 10
ENDMDL
MODEL 5
REMARK VINA RESULT: -6.747995191      3.122      5.817
REMARK  10 active torsions:
REMARK  status: ('A' for Active; 'I' for Inactive)
REMARK    1  A    between atoms: C2_2  and  N1_3 
REMARK    2  A    between atoms: C2_2  and  N3_27 
REMARK    3  A    between atoms: N1_3  and  C3_4 
REMARK    4  A    between atoms: C3_4  and  O1_5 
REMARK    5  A    between atoms: C3_4  and  C4_7 
REMARK    6  A    between atoms: C4_7  and  C5_8 
REMARK    7  A    between atoms: C6_10  and  C7_11 
REMARK    8  A    between atoms: C13_19  and  O4_20 
REMARK    9  A    between atoms: C15_23  and  C16_24 
REMARK   10  A    between atoms: C16_24  and  O5_25 
ROOT
HETATM    1  C4  UNL     1      -2.683   4.799  13.317  1.00  0.00     0.080 A 
HETATM    2  C14 UNL     1      -1.421   5.609  13.422  1.00  0.00     0.031 A 
HETATM    3  C15 UNL     1      -2.767   6.242  13.059  1.00  0.00     0.031 A 
ENDROOT
BRANCH   1   4
HETATM    4  C3  UNL     1      -3.164   4.346  14.658  1.00  0.00     0.204 C 
BRANCH   4   5
HETATM    5  N1  UNL     1      -4.356   4.088  15.147  1.00  0.00    -0.371 NA
BRANCH   5   6
HETATM    6  C2  UNL     1      -5.442   3.849  15.590  1.00  0.00     0.152 C 
HETATM    7  C1  UNL     1      -6.525   4.926  15.481  1.00  0.00     0.106 C 
BRANCH   6   8
HETATM    8  N3  UNL     1      -5.825   2.604  16.230  1.00  0.00    -0.356 N 
HETATM    9  C17 UNL     1      -7.153   2.353  16.729  1.00  0.00     0.151 C 
HETATM   10  C18 UNL     1      -6.976   1.382  17.898  1.00  0.00     0.187 C 
HETATM   11  O6  UNL     1      -6.459   0.181  17.487  1.00  0.00    -0.388 OA
HETATM   12  C19 UNL     1      -5.401   0.231  16.622  1.00  0.00     0.187 C 
HETATM   13  C20 UNL     1      -4.823   1.580  16.368  1.00  0.00     0.151 C 
ENDBRANCH   6   8
ENDBRANCH   5   6
ENDBRANCH   4   5
BRANCH   4  14
HETATM   14  O1  UNL     1      -2.146   4.179  15.487  1.00  0.00    -0.338 OA
ATOM     15  H1  UNL     1      -1.468   4.844  15.455  1.00  0.00     0.220 HD
ENDBRANCH   4  14
ENDBRANCH   1   4
BRANCH   1  16
HETATM   16  C5  UNL     1      -2.635   3.757  12.232  1.00  0.00     0.126 C 
HETATM   17  O2  UNL     1      -2.851   2.448  12.843  1.00  0.00    -0.351 OA
HETATM   18  C6  UNL     1      -3.619   2.030  11.803  1.00  0.00     0.169 C 
HETATM   19  C10 UNL     1      -2.714   1.677  10.656  1.00  0.00     0.238 C 
HETATM   20  C13 UNL     1      -3.927   3.515  11.522  1.00  0.00     0.199 C 
HETATM   21  O3  UNL     1      -2.639   0.590  10.092  1.00  0.00    -0.276 OA
HETATM   22  N2  UNL     1      -1.901   2.759  10.244  1.00  0.00    -0.240 NA
HETATM   23  C11 UNL     1      -1.034   3.976  10.099  1.00  0.00     0.122 A 
HETATM   24  C12 UNL     1      -1.405   3.612  11.420  1.00  0.00     0.118 A 
BRANCH  18  25
HETATM   25  C7  UNL     1      -4.763   1.146  12.042  1.00  0.00     0.024 C 
HETATM   26  C8  UNL     1      -4.370   0.061  12.994  1.00  0.00     0.013 C 
HETATM   27  C9  UNL     1      -5.369   0.621  10.766  1.00  0.00     0.013 C 
ENDBRANCH  18  25
BRANCH  20  28
HETATM   28  O4  UNL     1      -5.096   3.857  12.135  1.00  0.00    -0.389 OA
ATOM     29  H4  UNL     1      -5.718   4.404  11.671  1.00  0.00     0.210 HD
ENDBRANCH  20  28
ENDBRANCH   1  16
BRANCH   3  30
HETATM   30  C16 UNL     1      -2.742   6.944  11.761  1.00  0.00     0.170 C 
BRANCH  30  31
HETATM   31  O5  UNL     1      -3.958   7.038  11.093  1.00  0.00    -0.400 OA
ATOM     32  H5  UNL     1      -4.496   7.791  11.307  1.00  0.00     0.209 HD
ENDBRANCH  30  31
ENDBRANCH   3  30
TORSDOF 10
ENDMDL
