MODEL 1
REMARK VINA RESULT: -7.650253698      0.000      0.000
REMARK  7 active torsions:
REMARK  status: ('A' for Active; 'I' for Inactive)
REMARK    1  A    between atoms: C5_5  and  C6_6 
REMARK    2  A    between atoms: C6_6  and  N1_7 
REMARK    3  A    between atoms: N1_7  and  N2_9 
REMARK       I    between atoms: N2_9  and  C7_11 
REMARK    4  A    between atoms: C7_11  and  C8_13 
REMARK    5  A    between atoms: C15_21  and  O2_22 
REMARK    6  A    between atoms: C15_21  and  N4_24 
REMARK    7  A    between atoms: C20_31  and  O5_32 
ROOT
HETATM    1  C6  UNL     1      -4.689   3.046  14.047  1.00  0.00     0.105 C 
HETATM    2  C15 UNL     1      -5.501   2.931  15.228  1.00  0.00     0.165 C 
ENDROOT
BRANCH   1   3
HETATM    3  C5  UNL     1      -4.187   1.927  13.270  1.00  0.00     0.181 C 
HETATM    4  C4  UNL     1      -5.143   1.400  12.212  1.00  0.00     0.052 C 
HETATM    5  C2  UNL     1      -4.152   0.469  11.489  1.00  0.00     0.005 C 
HETATM    6  C1  UNL     1      -4.020  -0.814  12.245  1.00  0.00     0.020 C 
HETATM    7  C3  UNL     1      -4.631   0.188  10.085  1.00  0.00     0.020 C 
HETATM    8  C20 UNL     1      -2.917   1.317  11.534  1.00  0.00     0.265 C 
HETATM    9  O4  UNL     1      -3.032   2.238  12.531  1.00  0.00    -0.349 OA
BRANCH   8  10
HETATM   10  O5  UNL     1      -1.751   0.561  11.609  1.00  0.00    -0.370 OA
ATOM     11  H5  UNL     1      -1.743  -0.024  12.357  1.00  0.00     0.212 HD
ENDBRANCH   8  10
ENDBRANCH   1   3
BRANCH   1  12
HETATM   12  N1  UNL     1      -4.465   4.254  13.647  1.00  0.00    -0.295 N 
ATOM     13  H1  UNL     1      -5.233   4.635  13.096  1.00  0.00     0.187 HD
BRANCH  12  14
HETATM   14  N2  UNL     1      -3.453   5.120  13.793  1.00  0.00    -0.269 N 
HETATM   15  C7  UNL     1      -3.439   6.259  14.652  1.00  0.00     0.240 C 
HETATM   16  O1  UNL     1      -4.481   6.458  15.343  1.00  0.00    -0.271 OA
ATOM     17  H2  UNL     1      -2.614   4.949  13.238  1.00  0.00     0.190 HD
BRANCH  15  18
HETATM   18  C8  UNL     1      -2.325   7.202  14.786  1.00  0.00     0.082 C 
HETATM   19  C9  UNL     1      -1.880   7.799  13.493  1.00  0.00     0.042 C 
HETATM   20  C10 UNL     1      -1.965   9.309  13.481  1.00  0.00     0.237 C 
HETATM   21  N3  UNL     1      -1.171   9.914  14.511  1.00  0.00    -0.075 N 
HETATM   22  C11 UNL     1      -1.552  11.332  14.586  1.00  0.00     0.272 C 
HETATM   23  C12 UNL     1       0.252   9.898  14.226  1.00  0.00     0.272 C 
HETATM   24  C13 UNL     1      -1.368   9.273  15.796  1.00  0.00     0.237 C 
HETATM   25  C14 UNL     1      -2.544   8.307  15.786  1.00  0.00     0.042 C 
ENDBRANCH  15  18
ENDBRANCH  12  14
ENDBRANCH   1  12
BRANCH   2  26
HETATM   26  O2  UNL     1      -5.943   4.103  15.644  1.00  0.00    -0.345 OA
ATOM     27  H2  UNL     1      -6.664   4.016  16.257  1.00  0.00     0.219 HD
ENDBRANCH   2  26
BRANCH   2  28
HETATM   28  N4  UNL     1      -5.915   1.886  16.019  1.00  0.00    -0.356 N 
HETATM   29  C16 UNL     1      -5.329   0.597  16.240  1.00  0.00     0.151 C 
HETATM   30  C17 UNL     1      -5.736   0.212  17.680  1.00  0.00     0.187 C 
HETATM   31  O3  UNL     1      -5.727   1.291  18.521  1.00  0.00    -0.388 OA
HETATM   32  C18 UNL     1      -6.760   2.192  18.251  1.00  0.00     0.187 C 
HETATM   33  C19 UNL     1      -7.191   2.061  16.787  1.00  0.00     0.151 C 
ENDBRANCH   2  28
TORSDOF 7
ENDMDL
MODEL 2
REMARK VINA RESULT: -7.641026136      3.210      3.974
REMARK  7 active torsions:
REMARK  status: ('A' for Active; 'I' for Inactive)
REMARK    1  A    between atoms: C5_5  and  C6_6 
REMARK    2  A    between atoms: C6_6  and  N1_7 
REMARK    3  A    between atoms: N1_7  and  N2_9 
REMARK       I    between atoms: N2_9  and  C7_11 
REMARK    4  A    between atoms: C7_11  and  C8_13 
REMARK    5  A    between atoms: C15_21  and  O2_22 
REMARK    6  A    between atoms: C15_21  and  N4_24 
REMARK    7  A    between atoms: C20_31  and  O5_32 
ROOT
HETATM    1  C6  UNL     1      -4.405   3.063  14.129  1.00  0.00     0.105 C 
HETATM    2  C15 UNL     1      -5.255   2.999  15.288  1.00  0.00     0.165 C 
ENDROOT
BRANCH   1   3
HETATM    3  C5  UNL     1      -4.025   1.924  13.313  1.00  0.00     0.181 C 
HETATM    4  C4  UNL     1      -5.082   1.463  12.322  1.00  0.00     0.052 C 
HETATM    5  C2  UNL     1      -4.199   0.484  11.527  1.00  0.00     0.005 C 
HETATM    6  C1  UNL     1      -4.089  -0.811  12.264  1.00  0.00     0.020 C 
HETATM    7  C3  UNL     1      -4.790   0.244  10.158  1.00  0.00     0.020 C 
HETATM    8  C20 UNL     1      -2.916   1.259  11.489  1.00  0.00     0.265 C 
HETATM    9  O4  UNL     1      -2.908   2.175  12.497  1.00  0.00    -0.349 OA
BRANCH   8  10
HETATM   10  O5  UNL     1      -1.794   0.436  11.477  1.00  0.00    -0.370 OA
ATOM     11  H5  UNL     1      -1.107   0.764  10.909  1.00  0.00     0.212 HD
ENDBRANCH   8  10
ENDBRANCH   1   3
BRANCH   1  12
HETATM   12  N1  UNL     1      -4.025   4.250  13.789  1.00  0.00    -0.295 N 
ATOM     13  H1  UNL     1      -3.421   4.684  14.485  1.00  0.00     0.187 HD
BRANCH  12  14
HETATM   14  N2  UNL     1      -4.245   5.039  12.729  1.00  0.00    -0.269 N 
HETATM   15  C7  UNL     1      -5.234   6.064  12.636  1.00  0.00     0.240 C 
HETATM   16  O1  UNL     1      -5.961   6.242  13.656  1.00  0.00    -0.271 OA
ATOM     17  H2  UNL     1      -3.651   4.894  11.913  1.00  0.00     0.190 HD
BRANCH  15  18
HETATM   18  C8  UNL     1      -5.467   6.908  11.460  1.00  0.00     0.082 C 
HETATM   19  C9  UNL     1      -5.491   6.156  10.171  1.00  0.00     0.042 C 
HETATM   20  C10 UNL     1      -6.792   6.320   9.417  1.00  0.00     0.237 C 
HETATM   21  N3  UNL     1      -7.077   7.690   9.102  1.00  0.00    -0.075 N 
HETATM   22  C11 UNL     1      -8.471   7.754   8.640  1.00  0.00     0.272 C 
HETATM   23  C12 UNL     1      -6.271   8.210   8.013  1.00  0.00     0.272 C 
HETATM   24  C13 UNL     1      -6.886   8.561  10.245  1.00  0.00     0.237 C 
HETATM   25  C14 UNL     1      -6.690   7.784  11.538  1.00  0.00     0.042 C 
ENDBRANCH  15  18
ENDBRANCH  12  14
ENDBRANCH   1  12
BRANCH   2  26
HETATM   26  O2  UNL     1      -5.561   4.198  15.747  1.00  0.00    -0.345 OA
ATOM     27  H2  UNL     1      -5.866   4.170  16.646  1.00  0.00     0.219 HD
ENDBRANCH   2  26
BRANCH   2  28
HETATM   28  N4  UNL     1      -5.813   1.981  16.023  1.00  0.00    -0.356 N 
HETATM   29  C16 UNL     1      -5.377   0.630  16.223  1.00  0.00     0.151 C 
HETATM   30  C17 UNL     1      -5.889   0.248  17.630  1.00  0.00     0.187 C 
HETATM   31  O3  UNL     1      -5.805   1.293  18.508  1.00  0.00    -0.388 OA
HETATM   32  C18 UNL     1      -6.724   2.307  18.226  1.00  0.00     0.187 C 
HETATM   33  C19 UNL     1      -7.098   2.268  16.741  1.00  0.00     0.151 C 
ENDBRANCH   2  28
TORSDOF 7
ENDMDL
MODEL 3
REMARK VINA RESULT: -7.584608100      3.454      4.752
REMARK  7 active torsions:
REMARK  status: ('A' for Active; 'I' for Inactive)
REMARK    1  A    between atoms: C5_5  and  C6_6 
REMARK    2  A    between atoms: C6_6  and  N1_7 
REMARK    3  A    between atoms: N1_7  and  N2_9 
REMARK       I    between atoms: N2_9  and  C7_11 
REMARK    4  A    between atoms: C7_11  and  C8_13 
REMARK    5  A    between atoms: C15_21  and  O2_22 
REMARK    6  A    between atoms: C15_21  and  N4_24 
REMARK    7  A    between atoms: C20_31  and  O5_32 
ROOT
HETATM    1  C6  UNL     1      -4.769   3.519  13.853  1.00  0.00     0.105 C 
HETATM    2  C15 UNL     1      -5.417   3.573  15.136  1.00  0.00     0.165 C 
ENDROOT
BRANCH   1   3
HETATM    3  C5  UNL     1      -4.265   2.310  13.226  1.00  0.00     0.181 C 
HETATM    4  C4  UNL     1      -5.209   1.667  12.221  1.00  0.00     0.052 C 
HETATM    5  C2  UNL     1      -4.214   0.649  11.635  1.00  0.00     0.005 C 
HETATM    6  C1  UNL     1      -4.108  -0.535  12.541  1.00  0.00     0.020 C 
HETATM    7  C3  UNL     1      -4.671   0.205  10.266  1.00  0.00     0.020 C 
HETATM    8  C20 UNL     1      -2.971   1.486  11.600  1.00  0.00     0.265 C 
HETATM    9  O4  UNL     1      -3.094   2.521  12.477  1.00  0.00    -0.349 OA
BRANCH   8  10
HETATM   10  O5  UNL     1      -1.815   0.734  11.787  1.00  0.00    -0.370 OA
ATOM     11  H5  UNL     1      -1.350   0.971  12.581  1.00  0.00     0.212 HD
ENDBRANCH   8  10
ENDBRANCH   1   3
BRANCH   1  12
HETATM   12  N1  UNL     1      -4.708   4.643  13.218  1.00  0.00    -0.295 N 
ATOM     13  H1  UNL     1      -4.607   5.442  13.843  1.00  0.00     0.187 HD
BRANCH  12  14
HETATM   14  N2  UNL     1      -4.746   4.996  11.927  1.00  0.00    -0.269 N 
HETATM   15  C7  UNL     1      -5.274   6.214  11.405  1.00  0.00     0.240 C 
HETATM   16  O1  UNL     1      -5.741   7.035  12.248  1.00  0.00    -0.271 OA
ATOM     17  H2  UNL     1      -4.361   4.333  11.254  1.00  0.00     0.190 HD
BRANCH  15  18
HETATM   18  C8  UNL     1      -5.318   6.576   9.985  1.00  0.00     0.082 C 
HETATM   19  C9  UNL     1      -4.100   6.172   9.221  1.00  0.00     0.042 C 
HETATM   20  C10 UNL     1      -4.410   5.252   8.062  1.00  0.00     0.237 C 
HETATM   21  N3  UNL     1      -5.315   5.841   7.117  1.00  0.00    -0.075 N 
HETATM   22  C11 UNL     1      -5.761   4.773   6.210  1.00  0.00     0.272 C 
HETATM   23  C12 UNL     1      -4.694   6.846   6.275  1.00  0.00     0.272 C 
HETATM   24  C13 UNL     1      -6.455   6.455   7.767  1.00  0.00     0.237 C 
HETATM   25  C14 UNL     1      -6.540   6.099   9.244  1.00  0.00     0.042 C 
ENDBRANCH  15  18
ENDBRANCH  12  14
ENDBRANCH   1  12
BRANCH   2  26
HETATM   26  O2  UNL     1      -5.911   4.770  15.394  1.00  0.00    -0.345 OA
ATOM     27  H2  UNL     1      -6.719   4.724  15.891  1.00  0.00     0.219 HD
ENDBRANCH   2  26
BRANCH   2  28
HETATM   28  N4  UNL     1      -5.633   2.670  16.150  1.00  0.00    -0.356 N 
HETATM   29  C16 UNL     1      -6.824   2.366  16.887  1.00  0.00     0.151 C 
HETATM   30  C17 UNL     1      -6.685   0.879  17.278  1.00  0.00     0.187 C 
HETATM   31  O3  UNL     1      -6.104   0.139  16.286  1.00  0.00    -0.388 OA
HETATM   32  C18 UNL     1      -4.748   0.433  16.119  1.00  0.00     0.187 C 
HETATM   33  C19 UNL     1      -4.463   1.855  16.613  1.00  0.00     0.151 C 
ENDBRANCH   2  28
TORSDOF 7
ENDMDL
MODEL 4
REMARK VINA RESULT: -7.581246643      3.328      4.359
REMARK  7 active torsions:
REMARK  status: ('A' for Active; 'I' for Inactive)
REMARK    1  A    between atoms: C5_5  and  C6_6 
REMARK    2  A    between atoms: C6_6  and  N1_7 
REMARK    3  A    between atoms: N1_7  and  N2_9 
REMARK       I    between atoms: N2_9  and  C7_11 
REMARK    4  A    between atoms: C7_11  and  C8_13 
REMARK    5  A    between atoms: C15_21  and  O2_22 
REMARK    6  A    between atoms: C15_21  and  N4_24 
REMARK    7  A    between atoms: C20_31  and  O5_32 
ROOT
HETATM    1  C6  UNL     1      -4.830   3.330  13.596  1.00  0.00     0.105 C 
HETATM    2  C15 UNL     1      -5.430   3.455  14.897  1.00  0.00     0.165 C 
ENDROOT
BRANCH   1   3
HETATM    3  C5  UNL     1      -4.320   2.094  13.031  1.00  0.00     0.181 C 
HETATM    4  C4  UNL     1      -5.187   1.480  11.943  1.00  0.00     0.052 C 
HETATM    5  C2  UNL     1      -4.185   0.413  11.465  1.00  0.00     0.005 C 
HETATM    6  C1  UNL     1      -4.219  -0.763  12.386  1.00  0.00     0.020 C 
HETATM    7  C3  UNL     1      -4.524  -0.027  10.061  1.00  0.00     0.020 C 
HETATM    8  C20 UNL     1      -2.909   1.197  11.546  1.00  0.00     0.265 C 
HETATM    9  O4  UNL     1      -3.073   2.246  12.399  1.00  0.00    -0.349 OA
BRANCH   8  10
HETATM   10  O5  UNL     1      -1.810   0.399  11.852  1.00  0.00    -0.370 OA
ATOM     11  H5  UNL     1      -1.339   0.116  11.077  1.00  0.00     0.212 HD
ENDBRANCH   8  10
ENDBRANCH   1   3
BRANCH   1  12
HETATM   12  N1  UNL     1      -4.820   4.410  12.887  1.00  0.00    -0.295 N 
ATOM     13  H1  UNL     1      -5.683   4.946  12.975  1.00  0.00     0.187 HD
BRANCH  12  14
HETATM   14  N2  UNL     1      -3.935   4.986  12.063  1.00  0.00    -0.269 N 
HETATM   15  C7  UNL     1      -4.037   5.063  10.642  1.00  0.00     0.240 C 
HETATM   16  O1  UNL     1      -5.068   4.544  10.120  1.00  0.00    -0.271 OA
ATOM     17  H2  UNL     1      -3.110   5.407  12.491  1.00  0.00     0.190 HD
BRANCH  15  18
HETATM   18  C8  UNL     1      -3.049   5.686   9.756  1.00  0.00     0.082 C 
HETATM   19  C9  UNL     1      -1.639   5.298  10.057  1.00  0.00     0.042 C 
HETATM   20  C10 UNL     1      -0.942   4.652   8.881  1.00  0.00     0.237 C 
HETATM   21  N3  UNL     1      -0.900   5.505   7.728  1.00  0.00    -0.075 N 
HETATM   22  C11 UNL     1      -0.471   4.683   6.587  1.00  0.00     0.272 C 
HETATM   23  C12 UNL     1       0.075   6.574   7.839  1.00  0.00     0.272 C 
HETATM   24  C13 UNL     1      -2.187   6.111   7.454  1.00  0.00     0.237 C 
HETATM   25  C14 UNL     1      -3.305   5.496   8.284  1.00  0.00     0.042 C 
ENDBRANCH  15  18
ENDBRANCH  12  14
ENDBRANCH   1  12
BRANCH   2  26
HETATM   26  O2  UNL     1      -5.944   4.655  15.095  1.00  0.00    -0.345 OA
ATOM     27  H2  UNL     1      -6.514   4.679  15.854  1.00  0.00     0.219 HD
ENDBRANCH   2  26
BRANCH   2  28
HETATM   28  N4  UNL     1      -5.585   2.617  15.975  1.00  0.00    -0.356 N 
HETATM   29  C16 UNL     1      -6.733   2.357  16.793  1.00  0.00     0.151 C 
HETATM   30  C17 UNL     1      -6.563   0.897  17.270  1.00  0.00     0.187 C 
HETATM   31  O3  UNL     1      -6.031   0.098  16.295  1.00  0.00    -0.388 OA
HETATM   32  C18 UNL     1      -4.688   0.386  16.038  1.00  0.00     0.187 C 
HETATM   33  C19 UNL     1      -4.387   1.837  16.426  1.00  0.00     0.151 C 
ENDBRANCH   2  28
TORSDOF 7
ENDMDL
MODEL 5
REMARK VINA RESULT: -7.572531070      1.173      1.900
REMARK  7 active torsions:
REMARK  status: ('A' for Active; 'I' for Inactive)
REMARK    1  A    between atoms: C5_5  and  C6_6 
REMARK    2  A    between atoms: C6_6  and  N1_7 
REMARK    3  A    between atoms: N1_7  and  N2_9 
REMARK       I    between atoms: N2_9  and  C7_11 
REMARK    4  A    between atoms: C7_11  and  C8_13 
REMARK    5  A    between atoms: C15_21  and  O2_22 
REMARK    6  A    between atoms: C15_21  and  N4_24 
REMARK    7  A    between atoms: C20_31  and  O5_32 
ROOT
HETATM    1  C6  UNL     1      -5.031   3.214  13.703  1.00  0.00     0.105 C 
HETATM    2  C15 UNL     1      -5.597   3.239  15.025  1.00  0.00     0.165 C 
ENDROOT
BRANCH   1   3
HETATM    3  C5  UNL     1      -4.406   2.057  13.088  1.00  0.00     0.181 C 
HETATM    4  C4  UNL     1      -5.221   1.398  11.986  1.00  0.00     0.052 C 
HETATM    5  C2  UNL     1      -4.122   0.456  11.460  1.00  0.00     0.005 C 
HETATM    6  C1  UNL     1      -4.027  -0.750  12.337  1.00  0.00     0.020 C 
HETATM    7  C3  UNL     1      -4.433   0.035  10.044  1.00  0.00     0.020 C 
HETATM    8  C20 UNL     1      -2.931   1.361  11.559  1.00  0.00     0.265 C 
HETATM    9  O4  UNL     1      -3.189   2.357  12.452  1.00  0.00    -0.349 OA
BRANCH   8  10
HETATM   10  O5  UNL     1      -1.754   0.668  11.825  1.00  0.00    -0.370 OA
ATOM     11  H5  UNL     1      -1.899  -0.107  12.354  1.00  0.00     0.212 HD
ENDBRANCH   8  10
ENDBRANCH   1   3
BRANCH   1  12
HETATM   12  N1  UNL     1      -5.167   4.305  13.025  1.00  0.00    -0.295 N 
ATOM     13  H1  UNL     1      -6.123   4.453  12.705  1.00  0.00     0.187 HD
BRANCH  12  14
HETATM   14  N2  UNL     1      -4.336   5.286  12.646  1.00  0.00    -0.269 N 
HETATM   15  C7  UNL     1      -3.911   6.384  13.452  1.00  0.00     0.240 C 
HETATM   16  O1  UNL     1      -4.359   6.423  14.636  1.00  0.00    -0.271 OA
ATOM     17  H2  UNL     1      -3.974   5.244  11.693  1.00  0.00     0.190 HD
BRANCH  15  18
HETATM   18  C8  UNL     1      -3.011   7.455  13.014  1.00  0.00     0.082 C 
HETATM   19  C9  UNL     1      -2.481   8.292  14.130  1.00  0.00     0.042 C 
HETATM   20  C10 UNL     1      -0.970   8.291  14.200  1.00  0.00     0.237 C 
HETATM   21  N3  UNL     1      -0.361   8.774  12.994  1.00  0.00    -0.075 N 
HETATM   22  C11 UNL     1       1.073   8.459  13.069  1.00  0.00     0.272 C 
HETATM   23  C12 UNL     1      -0.446  10.214  12.844  1.00  0.00     0.272 C 
HETATM   24  C13 UNL     1      -0.946   8.173  11.813  1.00  0.00     0.237 C 
HETATM   25  C14 UNL     1      -1.862   7.005  12.150  1.00  0.00     0.042 C 
ENDBRANCH  15  18
ENDBRANCH  12  14
ENDBRANCH   1  12
BRANCH   2  26
HETATM   26  O2  UNL     1      -6.234   4.369  15.273  1.00  0.00    -0.345 OA
ATOM     27  H2  UNL     1      -7.173   4.242  15.346  1.00  0.00     0.219 HD
ENDBRANCH   2  26
BRANCH   2  28
HETATM   28  N4  UNL     1      -5.620   2.364  16.085  1.00  0.00    -0.356 N 
HETATM   29  C16 UNL     1      -6.692   1.992  16.961  1.00  0.00     0.151 C 
HETATM   30  C17 UNL     1      -6.381   0.539  17.380  1.00  0.00     0.187 C 
HETATM   31  O3  UNL     1      -5.851  -0.190  16.352  1.00  0.00    -0.388 OA
HETATM   32  C18 UNL     1      -4.553   0.208  16.024  1.00  0.00     0.187 C 
HETATM   33  C19 UNL     1      -4.340   1.668  16.438  1.00  0.00     0.151 C 
ENDBRANCH   2  28
TORSDOF 7
ENDMDL
