MODEL 1
REMARK VINA RESULT: -6.552827098      0.000      0.000
REMARK  6 active torsions:
REMARK  status: ('A' for Active; 'I' for Inactive)
REMARK    1  A    between atoms: C2_2  and  C3_3 
REMARK    2  A    between atoms: C3_3  and  C4_4 
REMARK    3  A    between atoms: C16_20  and  O1_21 
REMARK    4  A    between atoms: C18_23  and  O2_24 
REMARK    5  A    between atoms: C20_27  and  C21_28 
REMARK    6  A    between atoms: C21_28  and  O4_30 
ROOT
HETATM    1  C3  UNL     1      -6.045   7.535   9.460  1.00  0.00     0.199 A 
HETATM    2  N1  UNL     1      -6.080   7.344   7.995  1.00  0.00    -0.028 N 
ATOM      3  H11 UNL     1      -5.724   8.066   7.368  1.00  0.00     0.282 HD
ATOM      4  H12 UNL     1      -6.967   7.362   7.490  1.00  0.00     0.282 HD
HETATM    5  C6  UNL     1      -5.360   6.105   8.175  1.00  0.00     0.287 A 
HETATM    6  C7  UNL     1      -3.929   6.077   7.709  1.00  0.00     0.055 C 
HETATM    7  C8  UNL     1      -3.108   5.086   8.569  1.00  0.00     0.011 C 
HETATM    8  C9  UNL     1      -3.223   5.557   9.969  1.00  0.00     0.024 C 
HETATM    9  C10 UNL     1      -4.711   5.549  10.320  1.00  0.00     0.107 C 
HETATM   10  C11 UNL     1      -4.657   5.587  11.812  1.00  0.00     0.125 C 
HETATM   11  C12 UNL     1      -4.034   6.760  12.364  1.00  0.00     0.067 C 
HETATM   12  N2  UNL     1      -3.537   7.733  12.803  1.00  0.00    -0.197 NA
HETATM   13  C13 UNL     1      -3.702   4.408  12.063  1.00  0.00    -0.007 C 
HETATM   14  C14 UNL     1      -4.431   3.125  11.805  1.00  0.00     0.014 C 
HETATM   15  C15 UNL     1      -4.334   2.131  12.942  1.00  0.00     0.035 C 
HETATM   16  C16 UNL     1      -4.890   2.820  14.160  1.00  0.00     0.149 C 
HETATM   17  C18 UNL     1      -3.990   3.952  14.527  1.00  0.00     0.147 C 
HETATM   18  C19 UNL     1      -3.108   4.461  13.436  1.00  0.00     0.046 C 
HETATM   19  C20 UNL     1      -2.626   4.726  11.046  1.00  0.00     0.101 C 
HETATM   20  N3  UNL     1      -5.471   6.347   9.594  1.00  0.00    -0.348 N 
ENDROOT
BRANCH  19  21
HETATM   21  C21 UNL     1      -1.836   3.574  10.609  1.00  0.00     0.263 C 
HETATM   22  O3  UNL     1      -2.249   2.421  10.346  1.00  0.00    -0.265 OA
BRANCH  21  23
HETATM   23  O4  UNL     1      -0.440   3.695  10.442  1.00  0.00    -0.326 OA
HETATM   24  C22 UNL     1       0.412   4.183  11.438  1.00  0.00     0.213 C 
ENDBRANCH  21  23
ENDBRANCH  19  21
BRANCH   1  25
HETATM   25  C2  UNL     1      -5.409   8.862   9.719  1.00  0.00     0.057 C 
HETATM   26  C1  UNL     1      -6.059   9.549  10.909  1.00  0.00     0.009 C 
ENDBRANCH   1  25
BRANCH   1  27
HETATM   27  C4  UNL     1      -7.508   7.569   9.934  1.00  0.00     0.057 C 
HETATM   28  C5  UNL     1      -8.470   7.824   8.835  1.00  0.00     0.009 C 
ENDBRANCH   1  27
BRANCH  17  29
HETATM   29  O2  UNL     1      -3.194   3.539  15.596  1.00  0.00    -0.393 OA
ATOM     30  H2  UNL     1      -2.287   3.694  15.361  1.00  0.00     0.210 HD
ENDBRANCH  17  29
BRANCH  16  31
HETATM   31  O1  UNL     1      -6.194   3.164  13.921  1.00  0.00    -0.388 OA
HETATM   32  C17 UNL     1      -6.583   4.175  14.792  1.00  0.00     0.202 C 
ENDBRANCH  16  31
TORSDOF 6
ENDMDL
MODEL 2
REMARK VINA RESULT: -6.533494964      2.395      5.592
REMARK  6 active torsions:
REMARK  status: ('A' for Active; 'I' for Inactive)
REMARK    1  A    between atoms: C2_2  and  C3_3 
REMARK    2  A    between atoms: C3_3  and  C4_4 
REMARK    3  A    between atoms: C16_20  and  O1_21 
REMARK    4  A    between atoms: C18_23  and  O2_24 
REMARK    5  A    between atoms: C20_27  and  C21_28 
REMARK    6  A    between atoms: C21_28  and  O4_30 
ROOT
HETATM    1  C3  UNL     1       0.203   6.265  11.562  1.00  0.00     0.199 A 
HETATM    2  N1  UNL     1       0.578   7.349  12.493  1.00  0.00    -0.028 N 
ATOM      3  H11 UNL     1       0.800   8.281  12.144  1.00  0.00     0.282 HD
ATOM      4  H12 UNL     1       1.477   7.331  12.976  1.00  0.00     0.282 HD
HETATM    5  C6  UNL     1      -0.649   7.105  13.215  1.00  0.00     0.287 A 
HETATM    6  C7  UNL     1      -1.721   8.156  13.107  1.00  0.00     0.055 C 
HETATM    7  C8  UNL     1      -3.120   7.507  13.245  1.00  0.00     0.011 C 
HETATM    8  C9  UNL     1      -3.220   6.504  12.160  1.00  0.00     0.024 C 
HETATM    9  C10 UNL     1      -2.083   5.504  12.372  1.00  0.00     0.107 C 
HETATM   10  C11 UNL     1      -2.552   4.352  11.546  1.00  0.00     0.125 C 
HETATM   11  C12 UNL     1      -2.695   4.634  10.142  1.00  0.00     0.067 C 
HETATM   12  N2  UNL     1      -2.792   4.873   8.994  1.00  0.00    -0.197 NA
HETATM   13  C13 UNL     1      -3.969   4.185  12.119  1.00  0.00    -0.007 C 
HETATM   14  C14 UNL     1      -3.875   3.578  13.485  1.00  0.00     0.014 C 
HETATM   15  C15 UNL     1      -4.751   2.357  13.671  1.00  0.00     0.035 C 
HETATM   16  C16 UNL     1      -4.328   1.366  12.620  1.00  0.00     0.149 C 
HETATM   17  C18 UNL     1      -4.667   1.914  11.274  1.00  0.00     0.147 C 
HETATM   18  C19 UNL     1      -4.848   3.394  11.202  1.00  0.00     0.046 C 
HETATM   19  C20 UNL     1      -4.422   5.630  12.113  1.00  0.00     0.101 C 
HETATM   20  N3  UNL     1      -0.864   6.005  12.304  1.00  0.00    -0.348 N 
ENDROOT
BRANCH  19  21
HETATM   21  C21 UNL     1      -5.484   5.944  13.069  1.00  0.00     0.263 C 
HETATM   22  O3  UNL     1      -5.424   5.901  14.319  1.00  0.00    -0.265 OA
BRANCH  21  23
HETATM   23  O4  UNL     1      -6.755   6.351  12.608  1.00  0.00    -0.326 OA
HETATM   24  C22 UNL     1      -6.940   7.388  11.686  1.00  0.00     0.213 C 
ENDBRANCH  21  23
ENDBRANCH  19  21
BRANCH   1  25
HETATM   25  C2  UNL     1       0.207   6.842  10.184  1.00  0.00     0.057 C 
HETATM   26  C1  UNL     1       1.280   7.911  10.050  1.00  0.00     0.009 C 
ENDBRANCH   1  25
BRANCH   1  27
HETATM   27  C4  UNL     1       1.303   5.193  11.669  1.00  0.00     0.057 C 
HETATM   28  C5  UNL     1       1.058   4.019  10.797  1.00  0.00     0.009 C 
ENDBRANCH   1  27
BRANCH  17  29
HETATM   29  O2  UNL     1      -5.840   1.295  10.840  1.00  0.00    -0.393 OA
ATOM     30  H2  UNL     1      -6.207   1.822  10.140  1.00  0.00     0.210 HD
ENDBRANCH  17  29
BRANCH  16  31
HETATM   31  O1  UNL     1      -3.008   1.052  12.806  1.00  0.00    -0.388 OA
HETATM   32  C17 UNL     1      -2.456   0.602  11.614  1.00  0.00     0.202 C 
ENDBRANCH  16  31
TORSDOF 6
ENDMDL
MODEL 3
REMARK VINA RESULT: -6.464033140      2.779      5.483
REMARK  6 active torsions:
REMARK  status: ('A' for Active; 'I' for Inactive)
REMARK    1  A    between atoms: C2_2  and  C3_3 
REMARK    2  A    between atoms: C3_3  and  C4_4 
REMARK    3  A    between atoms: C16_20  and  O1_21 
REMARK    4  A    between atoms: C18_23  and  O2_24 
REMARK    5  A    between atoms: C20_27  and  C21_28 
REMARK    6  A    between atoms: C21_28  and  O4_30 
ROOT
HETATM    1  C3  UNL     1      -5.483   4.935  14.694  1.00  0.00     0.199 A 
HETATM    2  N1  UNL     1      -5.709   3.993  15.811  1.00  0.00    -0.028 N 
ATOM      3  H11 UNL     1      -6.646   3.644  16.014  1.00  0.00     0.282 HD
ATOM      4  H12 UNL     1      -5.630   4.306  16.778  1.00  0.00     0.282 HD
HETATM    5  C6  UNL     1      -4.710   3.125  15.233  1.00  0.00     0.287 A 
HETATM    6  C7  UNL     1      -5.198   1.839  14.621  1.00  0.00     0.055 C 
HETATM    7  C8  UNL     1      -4.262   1.411  13.464  1.00  0.00     0.011 C 
HETATM    8  C9  UNL     1      -4.272   2.526  12.488  1.00  0.00     0.024 C 
HETATM    9  C10 UNL     1      -3.768   3.767  13.225  1.00  0.00     0.107 C 
HETATM   10  C11 UNL     1      -3.397   4.653  12.082  1.00  0.00     0.125 C 
HETATM   11  C12 UNL     1      -4.490   5.012  11.218  1.00  0.00     0.067 C 
HETATM   12  N2  UNL     1      -5.397   5.313  10.529  1.00  0.00    -0.197 NA
HETATM   13  C13 UNL     1      -2.496   3.689  11.292  1.00  0.00    -0.007 C 
HETATM   14  C14 UNL     1      -1.192   3.540  12.013  1.00  0.00     0.014 C 
HETATM   15  C15 UNL     1       0.019   3.781  11.136  1.00  0.00     0.035 C 
HETATM   16  C16 UNL     1      -0.125   5.174  10.585  1.00  0.00     0.149 C 
HETATM   17  C18 UNL     1      -1.306   5.213   9.673  1.00  0.00     0.147 C 
HETATM   18  C19 UNL     1      -2.318   4.134   9.875  1.00  0.00     0.046 C 
HETATM   19  C20 UNL     1      -3.363   2.447  11.315  1.00  0.00     0.101 C 
HETATM   20  N3  UNL     1      -4.504   4.160  14.248  1.00  0.00    -0.348 N 
ENDROOT
BRANCH  19  21
HETATM   21  C21 UNL     1      -2.636   1.189  11.146  1.00  0.00     0.263 C 
HETATM   22  O3  UNL     1      -1.597   0.822  11.742  1.00  0.00    -0.265 OA
BRANCH  21  23
HETATM   23  O4  UNL     1      -3.094   0.224  10.224  1.00  0.00    -0.326 OA
HETATM   24  C22 UNL     1      -4.435  -0.163  10.123  1.00  0.00     0.213 C 
ENDBRANCH  21  23
ENDBRANCH  19  21
BRANCH   1  25
HETATM   25  C2  UNL     1      -6.803   5.166  14.035  1.00  0.00     0.057 C 
HETATM   26  C1  UNL     1      -6.867   6.558  13.427  1.00  0.00     0.009 C 
ENDBRANCH   1  25
BRANCH   1  27
HETATM   27  C4  UNL     1      -4.989   6.250  15.323  1.00  0.00     0.057 C 
HETATM   28  C5  UNL     1      -3.611   6.610  14.911  1.00  0.00     0.009 C 
ENDBRANCH   1  27
BRANCH  17  29
HETATM   29  O2  UNL     1      -0.839   5.153   8.360  1.00  0.00    -0.393 OA
ATOM     30  H2  UNL     1      -1.325   4.475   7.907  1.00  0.00     0.210 HD
ENDBRANCH  17  29
BRANCH  16  31
HETATM   31  O1  UNL     1      -0.160   6.065  11.624  1.00  0.00    -0.388 OA
HETATM   32  C17 UNL     1      -0.771   7.245  11.216  1.00  0.00     0.202 C 
ENDBRANCH  16  31
TORSDOF 6
ENDMDL
MODEL 4
REMARK VINA RESULT: -6.332374614      3.037      6.235
REMARK  6 active torsions:
REMARK  status: ('A' for Active; 'I' for Inactive)
REMARK    1  A    between atoms: C2_2  and  C3_3 
REMARK    2  A    between atoms: C3_3  and  C4_4 
REMARK    3  A    between atoms: C16_20  and  O1_21 
REMARK    4  A    between atoms: C18_23  and  O2_24 
REMARK    5  A    between atoms: C20_27  and  C21_28 
REMARK    6  A    between atoms: C21_28  and  O4_30 
ROOT
HETATM    1  C3  UNL     1      -3.930   1.407  12.284  1.00  0.00     0.199 A 
HETATM    2  N1  UNL     1      -4.325   0.489  13.373  1.00  0.00    -0.028 N 
ATOM      3  H11 UNL     1      -3.631  -0.096  13.837  1.00  0.00     0.282 HD
ATOM      4  H12 UNL     1      -4.876  -0.346  13.174  1.00  0.00     0.282 HD
HETATM    5  C6  UNL     1      -4.916   1.615  14.059  1.00  0.00     0.287 A 
HETATM    6  C7  UNL     1      -4.218   2.095  15.303  1.00  0.00     0.055 C 
HETATM    7  C8  UNL     1      -4.448   3.615  15.490  1.00  0.00     0.011 C 
HETATM    8  C9  UNL     1      -3.916   4.268  14.271  1.00  0.00     0.024 C 
HETATM    9  C10 UNL     1      -4.693   3.696  13.085  1.00  0.00     0.107 C 
HETATM   10  C11 UNL     1      -4.408   4.718  12.033  1.00  0.00     0.125 C 
HETATM   11  C12 UNL     1      -3.019   4.855  11.684  1.00  0.00     0.067 C 
HETATM   12  N2  UNL     1      -1.882   4.945  11.395  1.00  0.00    -0.197 NA
HETATM   13  C13 UNL     1      -4.809   5.990  12.797  1.00  0.00    -0.007 C 
HETATM   14  C14 UNL     1      -6.303   6.048  12.900  1.00  0.00     0.014 C 
HETATM   15  C15 UNL     1      -6.895   7.361  12.433  1.00  0.00     0.035 C 
HETATM   16  C16 UNL     1      -6.455   7.542  11.004  1.00  0.00     0.149 C 
HETATM   17  C18 UNL     1      -4.974   7.726  10.975  1.00  0.00     0.147 C 
HETATM   18  C19 UNL     1      -4.233   7.219  12.167  1.00  0.00     0.046 C 
HETATM   19  C20 UNL     1      -4.107   5.734  14.114  1.00  0.00     0.101 C 
HETATM   20  N3  UNL     1      -4.567   2.396  12.896  1.00  0.00    -0.348 N 
ENDROOT
BRANCH  19  21
HETATM   21  C21 UNL     1      -4.680   6.436  15.262  1.00  0.00     0.263 C 
HETATM   22  O3  UNL     1      -5.821   6.287  15.756  1.00  0.00    -0.265 OA
BRANCH  21  23
HETATM   23  O4  UNL     1      -3.922   7.410  15.947  1.00  0.00    -0.326 OA
HETATM   24  C22 UNL     1      -2.739   7.958  15.439  1.00  0.00     0.213 C 
ENDBRANCH  21  23
ENDBRANCH  19  21
BRANCH   1  25
HETATM   25  C2  UNL     1      -2.452   1.277  12.109  1.00  0.00     0.057 C 
HETATM   26  C1  UNL     1      -2.044   1.623  10.686  1.00  0.00     0.009 C 
ENDBRANCH   1  25
BRANCH   1  27
HETATM   27  C4  UNL     1      -4.640   0.911  11.012  1.00  0.00     0.057 C 
HETATM   28  C5  UNL     1      -4.748  -0.566  10.944  1.00  0.00     0.009 C 
ENDBRANCH   1  27
BRANCH  17  29
HETATM   29  O2  UNL     1      -4.712   9.088  10.827  1.00  0.00    -0.393 OA
ATOM     30  H2  UNL     1      -3.824   9.250  11.123  1.00  0.00     0.210 HD
ENDBRANCH  17  29
BRANCH  16  31
HETATM   31  O1  UNL     1      -6.928   6.498  10.255  1.00  0.00    -0.388 OA
HETATM   32  C17 UNL     1      -6.157   6.350   9.109  1.00  0.00     0.202 C 
ENDBRANCH  16  31
TORSDOF 6
ENDMDL
MODEL 5
REMARK VINA RESULT: -6.209975374      1.884      4.576
REMARK  6 active torsions:
REMARK  status: ('A' for Active; 'I' for Inactive)
REMARK    1  A    between atoms: C2_2  and  C3_3 
REMARK    2  A    between atoms: C3_3  and  C4_4 
REMARK    3  A    between atoms: C16_20  and  O1_21 
REMARK    4  A    between atoms: C18_23  and  O2_24 
REMARK    5  A    between atoms: C20_27  and  C21_28 
REMARK    6  A    between atoms: C21_28  and  O4_30 
ROOT
HETATM    1  C3  UNL     1      -6.318   7.278   9.427  1.00  0.00     0.199 A 
HETATM    2  N1  UNL     1      -7.339   8.233   9.905  1.00  0.00    -0.028 N 
ATOM      3  H11 UNL     1      -8.329   8.069   9.722  1.00  0.00     0.282 HD
ATOM      4  H12 UNL     1      -7.427   9.156   9.479  1.00  0.00     0.282 HD
HETATM    5  C6  UNL     1      -6.803   8.084  11.238  1.00  0.00     0.287 A 
HETATM    6  C7  UNL     1      -7.653   7.343  12.234  1.00  0.00     0.055 C 
HETATM    7  C8  UNL     1      -6.755   6.631  13.275  1.00  0.00     0.011 C 
HETATM    8  C9  UNL     1      -5.879   5.715  12.509  1.00  0.00     0.024 C 
HETATM    9  C10 UNL     1      -5.078   6.578  11.534  1.00  0.00     0.107 C 
HETATM   10  C11 UNL     1      -3.961   5.653  11.177  1.00  0.00     0.125 C 
HETATM   11  C12 UNL     1      -4.370   4.436  10.526  1.00  0.00     0.067 C 
HETATM   12  N2  UNL     1      -4.716   3.453   9.979  1.00  0.00    -0.197 NA
HETATM   13  C13 UNL     1      -3.484   5.271  12.588  1.00  0.00    -0.007 C 
HETATM   14  C14 UNL     1      -2.753   6.435  13.186  1.00  0.00     0.014 C 
HETATM   15  C15 UNL     1      -1.384   6.080  13.726  1.00  0.00     0.035 C 
HETATM   16  C16 UNL     1      -0.607   5.503  12.572  1.00  0.00     0.149 C 
HETATM   17  C18 UNL     1      -1.235   4.212  12.165  1.00  0.00     0.147 C 
HETATM   18  C19 UNL     1      -2.658   4.024  12.574  1.00  0.00     0.046 C 
HETATM   19  C20 UNL     1      -4.818   4.975  13.241  1.00  0.00     0.101 C 
HETATM   20  N3  UNL     1      -5.792   7.242  10.644  1.00  0.00    -0.348 N 
ENDROOT
BRANCH  19  21
HETATM   21  C21 UNL     1      -4.829   5.104  14.698  1.00  0.00     0.263 C 
HETATM   22  O3  UNL     1      -4.658   6.146  15.373  1.00  0.00    -0.265 OA
BRANCH  21  23
HETATM   23  O4  UNL     1      -5.052   3.970  15.508  1.00  0.00    -0.326 OA
HETATM   24  C22 UNL     1      -6.288   3.319  15.592  1.00  0.00     0.213 C 
ENDBRANCH  21  23
ENDBRANCH  19  21
BRANCH   1  25
HETATM   25  C2  UNL     1      -7.038   6.165   8.738  1.00  0.00     0.057 C 
HETATM   26  C1  UNL     1      -6.248   5.671   7.538  1.00  0.00     0.009 C 
ENDBRANCH   1  25
BRANCH   1  27
HETATM   27  C4  UNL     1      -5.452   8.035   8.404  1.00  0.00     0.057 C 
HETATM   28  C5  UNL     1      -6.071   9.302   7.943  1.00  0.00     0.009 C 
ENDBRANCH   1  27
BRANCH  17  29
HETATM   29  O2  UNL     1      -0.471   3.174  12.700  1.00  0.00    -0.393 OA
ATOM     30  H2  UNL     1      -0.327   2.533  12.015  1.00  0.00     0.210 HD
ENDBRANCH  17  29
BRANCH  16  31
HETATM   31  O1  UNL     1      -0.513   6.444  11.582  1.00  0.00    -0.388 OA
HETATM   32  C17 UNL     1      -0.262   5.826  10.364  1.00  0.00     0.202 C 
ENDBRANCH  16  31
TORSDOF 6
ENDMDL
