MODEL 1
REMARK VINA RESULT: -7.229753113      0.000      0.000
REMARK  4 active torsions:
REMARK  status: ('A' for Active; 'I' for Inactive)
REMARK       I    between atoms: N2_7  and  C5_8 
REMARK    1  A    between atoms: C5_8  and  C6_10 
REMARK    2  A    between atoms: C6_10  and  N3_11 
REMARK       I    between atoms: C7_13  and  N4_14 
REMARK       I    between atoms: C7_13  and  N6_18 
REMARK    3  A    between atoms: N6_18  and  C9_20 
REMARK    4  A    between atoms: C12_23  and  O3_24 
ROOT
HETATM    1  N3  UNL     1      -2.113   6.025  11.689  1.00  0.00    -0.217 N 
ATOM      2  H3  UNL     1      -2.089   6.016  10.670  1.00  0.00     0.178 HD
HETATM    3  C7  UNL     1      -2.866   6.865  12.299  1.00  0.00     0.683 C 
HETATM    4  N4  UNL     1      -2.983   6.973  13.710  1.00  0.00    -0.126 N 
ATOM      5  H4  UNL     1      -3.471   6.231  14.213  1.00  0.00     0.197 HD
HETATM    6  C8  UNL     1      -2.468   8.036  14.445  1.00  0.00     0.196 C 
HETATM    7  N5  UNL     1      -2.043   8.915  15.051  1.00  0.00    -0.171 NA
HETATM    8  N6  UNL     1      -3.643   7.755  11.508  1.00  0.00    -0.218 N 
ATOM      9  H6  UNL     1      -3.297   8.684  11.266  1.00  0.00     0.178 HD
ENDROOT
BRANCH   1  10
HETATM   10  C6  UNL     1      -1.313   5.109  12.415  1.00  0.00     0.240 C 
BRANCH  10  11
HETATM   11  C5  UNL     1      -1.366   3.703  12.042  1.00  0.00     0.238 C 
HETATM   12  N2  UNL     1      -2.339   2.738  12.257  1.00  0.00    -0.349 N 
HETATM   13  C4  UNL     1      -3.529   3.126  12.965  1.00  0.00     0.128 C 
HETATM   14  C18 UNL     1      -2.065   1.406  11.741  1.00  0.00     0.162 C 
HETATM   15  C3  UNL     1      -4.470   1.913  13.142  1.00  0.00     0.056 C 
HETATM   16  C2  UNL     1      -5.067   1.538  11.804  1.00  0.00     0.313 C 
HETATM   17  N1  UNL     1      -4.275   0.434  11.285  1.00  0.00     0.011 N 
HETATM   18  C1  UNL     1      -5.060  -0.208  10.258  1.00  0.00     0.356 C 
HETATM   19  O1  UNL     1      -3.989  -0.443  12.277  1.00  0.00    -0.065 OA
HETATM   20  C19 UNL     1      -3.076   0.992  10.697  1.00  0.00     0.331 C 
HETATM   21  O2  UNL     1      -0.315   3.291  11.398  1.00  0.00    -0.272 OA
ENDBRANCH  10  11
ENDBRANCH   1  10
BRANCH   8  22
HETATM   22  C9  UNL     1      -4.931   7.304  11.062  1.00  0.00     0.132 C 
HETATM   23  C10 UNL     1      -6.053   8.237  11.414  1.00  0.00     0.014 C 
HETATM   24  C11 UNL     1      -5.851   9.606  10.808  1.00  0.00     0.041 C 
HETATM   25  C17 UNL     1      -7.353   7.610  10.965  1.00  0.00     0.014 C 
HETATM   26  C12 UNL     1      -6.767   9.686   9.595  1.00  0.00     0.148 C 
HETATM   27  C13 UNL     1      -6.538   8.417   8.800  1.00  0.00     0.155 C 
HETATM   28  O4  UNL     1      -5.200   8.130   8.819  1.00  0.00    -0.376 OA
HETATM   29  C16 UNL     1      -7.275   7.295   9.484  1.00  0.00     0.020 C 
HETATM   30  C14 UNL     1      -4.976   7.016   9.585  1.00  0.00     0.146 C 
HETATM   31  C15 UNL     1      -6.237   6.169   9.353  1.00  0.00     0.041 C 
BRANCH  26  32
HETATM   32  O3  UNL     1      -6.452  10.779   8.786  1.00  0.00    -0.393 OA
ATOM     33  H3  UNL     1      -7.215  11.099   8.319  1.00  0.00     0.210 HD
ENDBRANCH  26  32
ENDBRANCH   8  22
TORSDOF 4
ENDMDL
MODEL 2
REMARK VINA RESULT: -7.147443628      2.015      2.756
REMARK  4 active torsions:
REMARK  status: ('A' for Active; 'I' for Inactive)
REMARK       I    between atoms: N2_7  and  C5_8 
REMARK    1  A    between atoms: C5_8  and  C6_10 
REMARK    2  A    between atoms: C6_10  and  N3_11 
REMARK       I    between atoms: C7_13  and  N4_14 
REMARK       I    between atoms: C7_13  and  N6_18 
REMARK    3  A    between atoms: N6_18  and  C9_20 
REMARK    4  A    between atoms: C12_23  and  O3_24 
ROOT
HETATM    1  N3  UNL     1      -3.271   5.535  12.835  1.00  0.00    -0.217 N 
ATOM      2  H3  UNL     1      -3.114   5.309  11.853  1.00  0.00     0.178 HD
HETATM    3  C7  UNL     1      -3.397   6.761  13.191  1.00  0.00     0.683 C 
HETATM    4  N4  UNL     1      -3.617   7.199  14.525  1.00  0.00    -0.126 N 
ATOM      5  H4  UNL     1      -4.530   7.024  14.946  1.00  0.00     0.197 HD
HETATM    6  C8  UNL     1      -2.655   7.853  15.288  1.00  0.00     0.196 C 
HETATM    7  N5  UNL     1      -1.861   8.395  15.916  1.00  0.00    -0.171 NA
HETATM    8  N6  UNL     1      -3.310   7.758  12.181  1.00  0.00    -0.218 N 
ATOM      9  H6  UNL     1      -2.423   8.215  11.966  1.00  0.00     0.178 HD
ENDROOT
BRANCH   1  10
HETATM   10  C6  UNL     1      -3.348   4.492  13.789  1.00  0.00     0.240 C 
BRANCH  10  11
HETATM   11  C5  UNL     1      -4.125   3.308  13.454  1.00  0.00     0.238 C 
HETATM   12  N2  UNL     1      -3.931   2.332  12.487  1.00  0.00    -0.349 N 
HETATM   13  C4  UNL     1      -2.781   2.448  11.634  1.00  0.00     0.128 C 
HETATM   14  C18 UNL     1      -4.920   1.267  12.425  1.00  0.00     0.162 C 
HETATM   15  C3  UNL     1      -2.758   1.298  10.601  1.00  0.00     0.056 C 
HETATM   16  C2  UNL     1      -2.439  -0.003  11.301  1.00  0.00     0.313 C 
HETATM   17  N1  UNL     1      -3.707  -0.676  11.537  1.00  0.00     0.011 N 
HETATM   18  C1  UNL     1      -3.412  -2.064  11.796  1.00  0.00     0.356 C 
HETATM   19  O1  UNL     1      -4.506  -0.559  10.450  1.00  0.00    -0.065 OA
HETATM   20  C19 UNL     1      -4.307  -0.083  12.713  1.00  0.00     0.331 C 
HETATM   21  O2  UNL     1      -5.182   3.149  14.194  1.00  0.00    -0.272 OA
ENDBRANCH  10  11
ENDBRANCH   1  10
BRANCH   8  22
HETATM   22  C9  UNL     1      -4.512   8.101  11.474  1.00  0.00     0.132 C 
HETATM   23  C10 UNL     1      -4.357   8.090   9.982  1.00  0.00     0.014 C 
HETATM   24  C11 UNL     1      -3.940   6.730   9.473  1.00  0.00     0.041 C 
HETATM   25  C17 UNL     1      -5.660   8.545   9.364  1.00  0.00     0.014 C 
HETATM   26  C12 UNL     1      -5.188   6.077   8.897  1.00  0.00     0.148 C 
HETATM   27  C13 UNL     1      -6.278   6.244   9.935  1.00  0.00     0.155 C 
HETATM   28  O4  UNL     1      -5.729   6.048  11.174  1.00  0.00    -0.376 OA
HETATM   29  C16 UNL     1      -6.787   7.660   9.858  1.00  0.00     0.020 C 
HETATM   30  C14 UNL     1      -5.685   7.237  11.853  1.00  0.00     0.146 C 
HETATM   31  C15 UNL     1      -6.937   7.976  11.355  1.00  0.00     0.041 C 
BRANCH  26  32
HETATM   32  O3  UNL     1      -4.996   4.713   8.671  1.00  0.00    -0.393 OA
ATOM     33  H3  UNL     1      -5.294   4.192   9.407  1.00  0.00     0.210 HD
ENDBRANCH  26  32
ENDBRANCH   8  22
TORSDOF 4
ENDMDL
MODEL 3
REMARK VINA RESULT: -7.044451140      4.043      5.908
REMARK  4 active torsions:
REMARK  status: ('A' for Active; 'I' for Inactive)
REMARK       I    between atoms: N2_7  and  C5_8 
REMARK    1  A    between atoms: C5_8  and  C6_10 
REMARK    2  A    between atoms: C6_10  and  N3_11 
REMARK       I    between atoms: C7_13  and  N4_14 
REMARK       I    between atoms: C7_13  and  N6_18 
REMARK    3  A    between atoms: N6_18  and  C9_20 
REMARK    4  A    between atoms: C12_23  and  O3_24 
ROOT
HETATM    1  N3  UNL     1      -2.185   4.566  13.637  1.00  0.00    -0.217 N 
ATOM      2  H3  UNL     1      -1.617   3.733  13.483  1.00  0.00     0.178 HD
HETATM    3  C7  UNL     1      -1.645   5.726  13.549  1.00  0.00     0.683 C 
HETATM    4  N4  UNL     1      -2.330   6.956  13.742  1.00  0.00    -0.126 N 
ATOM      5  H4  UNL     1      -2.995   7.255  13.028  1.00  0.00     0.197 HD
HETATM    6  C8  UNL     1      -2.144   7.774  14.851  1.00  0.00     0.196 C 
HETATM    7  N5  UNL     1      -1.988   8.450  15.767  1.00  0.00    -0.171 NA
HETATM    8  N6  UNL     1      -0.259   5.792  13.237  1.00  0.00    -0.218 N 
ATOM      9  H6  UNL     1       0.446   5.839  13.974  1.00  0.00     0.178 HD
ENDROOT
BRANCH   1  10
HETATM   10  C6  UNL     1      -3.560   4.429  13.944  1.00  0.00     0.240 C 
BRANCH  10  11
HETATM   11  C5  UNL     1      -4.322   3.403  13.246  1.00  0.00     0.238 C 
HETATM   12  N2  UNL     1      -3.935   2.461  12.304  1.00  0.00    -0.349 N 
HETATM   13  C4  UNL     1      -2.556   2.437  11.902  1.00  0.00     0.128 C 
HETATM   14  C18 UNL     1      -4.972   1.573  11.804  1.00  0.00     0.162 C 
HETATM   15  C3  UNL     1      -2.328   1.354  10.822  1.00  0.00     0.056 C 
HETATM   16  C2  UNL     1      -2.446  -0.016  11.450  1.00  0.00     0.313 C 
HETATM   17  N1  UNL     1      -3.794  -0.490  11.175  1.00  0.00     0.011 N 
HETATM   18  C1  UNL     1      -3.792  -1.919  11.372  1.00  0.00     0.356 C 
HETATM   19  O1  UNL     1      -4.144  -0.189   9.902  1.00  0.00    -0.065 OA
HETATM   20  C19 UNL     1      -4.680   0.129  12.138  1.00  0.00     0.331 C 
HETATM   21  O2  UNL     1      -5.581   3.375  13.569  1.00  0.00    -0.272 OA
ENDBRANCH  10  11
ENDBRANCH   1  10
BRANCH   8  22
HETATM   22  C9  UNL     1       0.115   5.788  11.851  1.00  0.00     0.132 C 
HETATM   23  C10 UNL     1       1.287   6.673  11.540  1.00  0.00     0.014 C 
HETATM   24  C11 UNL     1       2.519   6.262  12.312  1.00  0.00     0.041 C 
HETATM   25  C17 UNL     1       1.524   6.643  10.047  1.00  0.00     0.014 C 
HETATM   26  C12 UNL     1       3.410   5.503  11.340  1.00  0.00     0.148 C 
HETATM   27  C13 UNL     1       2.524   4.488  10.647  1.00  0.00     0.155 C 
HETATM   28  O4  UNL     1       1.660   3.965  11.571  1.00  0.00    -0.376 OA
HETATM   29  C16 UNL     1       1.718   5.209   9.597  1.00  0.00     0.020 C 
HETATM   30  C14 UNL     1       0.388   4.406  11.318  1.00  0.00     0.146 C 
HETATM   31  C15 UNL     1       0.354   4.526   9.786  1.00  0.00     0.041 C 
BRANCH  26  32
HETATM   32  O3  UNL     1       4.429   4.819  12.005  1.00  0.00    -0.393 OA
ATOM     33  H3  UNL     1       5.279   4.998  11.620  1.00  0.00     0.210 HD
ENDBRANCH  26  32
ENDBRANCH   8  22
TORSDOF 4
ENDMDL
MODEL 4
REMARK VINA RESULT: -6.929322378      4.018      5.354
REMARK  4 active torsions:
REMARK  status: ('A' for Active; 'I' for Inactive)
REMARK       I    between atoms: N2_7  and  C5_8 
REMARK    1  A    between atoms: C5_8  and  C6_10 
REMARK    2  A    between atoms: C6_10  and  N3_11 
REMARK       I    between atoms: C7_13  and  N4_14 
REMARK       I    between atoms: C7_13  and  N6_18 
REMARK    3  A    between atoms: N6_18  and  C9_20 
REMARK    4  A    between atoms: C12_23  and  O3_24 
ROOT
HETATM    1  N3  UNL     1      -2.392   5.992  13.970  1.00  0.00    -0.217 N 
ATOM      2  H3  UNL     1      -3.106   6.665  14.247  1.00  0.00     0.178 HD
HETATM    3  C7  UNL     1      -1.346   6.397  13.347  1.00  0.00     0.683 C 
HETATM    4  N4  UNL     1      -0.287   5.557  12.911  1.00  0.00    -0.126 N 
ATOM      5  H4  UNL     1       0.336   5.159  13.615  1.00  0.00     0.197 HD
HETATM    6  C8  UNL     1      -0.051   5.247  11.576  1.00  0.00     0.196 C 
HETATM    7  N5  UNL     1       0.143   4.993  10.472  1.00  0.00    -0.171 NA
HETATM    8  N6  UNL     1      -1.235   7.787  13.070  1.00  0.00    -0.218 N 
ATOM      9  H6  UNL     1      -1.558   8.176  12.184  1.00  0.00     0.178 HD
ENDROOT
BRANCH   1  10
HETATM   10  C6  UNL     1      -2.566   4.621  14.279  1.00  0.00     0.240 C 
BRANCH  10  11
HETATM   11  C5  UNL     1      -3.578   3.874  13.546  1.00  0.00     0.238 C 
HETATM   12  N2  UNL     1      -3.462   2.917  12.548  1.00  0.00    -0.349 N 
HETATM   13  C4  UNL     1      -2.141   2.553  12.114  1.00  0.00     0.128 C 
HETATM   14  C18 UNL     1      -4.701   2.363  12.026  1.00  0.00     0.162 C 
HETATM   15  C3  UNL     1      -2.217   1.511  10.974  1.00  0.00     0.056 C 
HETATM   16  C2  UNL     1      -2.688   0.187  11.532  1.00  0.00     0.313 C 
HETATM   17  N1  UNL     1      -4.116   0.102  11.264  1.00  0.00     0.011 N 
HETATM   18  C1  UNL     1      -4.491  -1.286  11.387  1.00  0.00     0.356 C 
HETATM   19  O1  UNL     1      -4.384   0.555  10.017  1.00  0.00    -0.065 OA
HETATM   20  C19 UNL     1      -4.799   0.877  12.278  1.00  0.00     0.331 C 
HETATM   21  O2  UNL     1      -4.796   4.161  13.895  1.00  0.00    -0.272 OA
ENDBRANCH  10  11
ENDBRANCH   1  10
BRANCH   8  22
HETATM   22  C9  UNL     1      -0.653   8.626  14.080  1.00  0.00     0.132 C 
HETATM   23  C10 UNL     1       0.406   9.552  13.558  1.00  0.00     0.014 C 
HETATM   24  C11 UNL     1      -0.136  10.481  12.497  1.00  0.00     0.041 C 
HETATM   25  C17 UNL     1       0.992  10.314  14.725  1.00  0.00     0.014 C 
HETATM   26  C12 UNL     1      -0.349  11.830  13.166  1.00  0.00     0.148 C 
HETATM   27  C13 UNL     1      -1.101  11.558  14.453  1.00  0.00     0.155 C 
HETATM   28  O4  UNL     1      -2.037  10.589  14.210  1.00  0.00    -0.376 OA
HETATM   29  C16 UNL     1      -0.120  11.029  15.466  1.00  0.00     0.020 C 
HETATM   30  C14 UNL     1      -1.675   9.428  14.841  1.00  0.00     0.146 C 
HETATM   31  C15 UNL     1      -0.968   9.922  16.113  1.00  0.00     0.041 C 
BRANCH  26  32
HETATM   32  O3  UNL     1      -1.123  12.680  12.373  1.00  0.00    -0.393 OA
ATOM     33  H3  UNL     1      -0.646  13.467  12.136  1.00  0.00     0.210 HD
ENDBRANCH  26  32
ENDBRANCH   8  22
TORSDOF 4
ENDMDL
MODEL 5
REMARK VINA RESULT: -6.922445933      1.609      2.315
REMARK  4 active torsions:
REMARK  status: ('A' for Active; 'I' for Inactive)
REMARK       I    between atoms: N2_7  and  C5_8 
REMARK    1  A    between atoms: C5_8  and  C6_10 
REMARK    2  A    between atoms: C6_10  and  N3_11 
REMARK       I    between atoms: C7_13  and  N4_14 
REMARK       I    between atoms: C7_13  and  N6_18 
REMARK    3  A    between atoms: N6_18  and  C9_20 
REMARK    4  A    between atoms: C12_23  and  O3_24 
ROOT
HETATM    1  N3  UNL     1      -2.917   6.466  11.070  1.00  0.00    -0.217 N 
ATOM      2  H3  UNL     1      -2.976   5.994  10.168  1.00  0.00     0.178 HD
HETATM    3  C7  UNL     1      -3.265   7.697  11.165  1.00  0.00     0.683 C 
HETATM    4  N4  UNL     1      -3.227   8.460  12.362  1.00  0.00    -0.126 N 
ATOM      5  H4  UNL     1      -3.912   8.252  13.089  1.00  0.00     0.197 HD
HETATM    6  C8  UNL     1      -2.306   9.476  12.599  1.00  0.00     0.196 C 
HETATM    7  N5  UNL     1      -1.547  10.315  12.792  1.00  0.00    -0.171 NA
HETATM    8  N6  UNL     1      -3.722   8.351   9.987  1.00  0.00    -0.218 N 
ATOM      9  H6  UNL     1      -3.080   8.879   9.395  1.00  0.00     0.178 HD
ENDROOT
BRANCH   1  10
HETATM   10  C6  UNL     1      -2.454   5.755  12.203  1.00  0.00     0.240 C 
BRANCH  10  11
HETATM   11  C5  UNL     1      -2.113   4.349  12.041  1.00  0.00     0.238 C 
HETATM   12  N2  UNL     1      -2.878   3.201  12.189  1.00  0.00    -0.349 N 
HETATM   13  C4  UNL     1      -4.256   3.354  12.566  1.00  0.00     0.128 C 
HETATM   14  C18 UNL     1      -2.209   1.933  11.945  1.00  0.00     0.162 C 
HETATM   15  C3  UNL     1      -4.929   1.971  12.721  1.00  0.00     0.056 C 
HETATM   16  C2  UNL     1      -5.095   1.335  11.359  1.00  0.00     0.313 C 
HETATM   17  N1  UNL     1      -3.984   0.412  11.187  1.00  0.00     0.011 N 
HETATM   18  C1  UNL     1      -4.344  -0.496  10.126  1.00  0.00     0.356 C 
HETATM   19  O1  UNL     1      -3.760  -0.268  12.336  1.00  0.00    -0.065 OA
HETATM   20  C19 UNL     1      -2.828   1.188  10.787  1.00  0.00     0.331 C 
HETATM   21  O2  UNL     1      -0.875   4.146  11.699  1.00  0.00    -0.272 OA
ENDBRANCH  10  11
ENDBRANCH   1  10
BRANCH   8  22
HETATM   22  C9  UNL     1      -5.115   8.242   9.659  1.00  0.00     0.132 C 
HETATM   23  C10 UNL     1      -5.377   8.030   8.197  1.00  0.00     0.014 C 
HETATM   24  C11 UNL     1      -4.722   6.766   7.690  1.00  0.00     0.041 C 
HETATM   25  C17 UNL     1      -6.872   8.015   7.977  1.00  0.00     0.014 C 
HETATM   26  C12 UNL     1      -5.822   5.721   7.577  1.00  0.00     0.148 C 
HETATM   27  C13 UNL     1      -6.586   5.758   8.884  1.00  0.00     0.155 C 
HETATM   28  O4  UNL     1      -5.689   5.919   9.905  1.00  0.00    -0.376 OA
HETATM   29  C16 UNL     1      -7.500   6.955   8.859  1.00  0.00     0.020 C 
HETATM   30  C14 UNL     1      -5.824   7.171  10.445  1.00  0.00     0.146 C 
HETATM   31  C15 UNL     1      -7.326   7.459  10.301  1.00  0.00     0.041 C 
BRANCH  26  32
HETATM   32  O3  UNL     1      -5.296   4.438   7.408  1.00  0.00    -0.393 OA
ATOM     33  H3  UNL     1      -5.967   3.817   7.151  1.00  0.00     0.210 HD
ENDBRANCH  26  32
ENDBRANCH   8  22
TORSDOF 4
ENDMDL
