MODEL 1
REMARK VINA RESULT: -6.533635887      0.000      0.000
REMARK  9 active torsions:
REMARK  status: ('A' for Active; 'I' for Inactive)
REMARK    1  A    between atoms: C2_2  and  C4_4 
REMARK    2  A    between atoms: C4_4  and  N2_9 
REMARK    3  A    between atoms: N1_5  and  O1_7 
REMARK    4  A    between atoms: N3_12  and  C7_13 
REMARK    5  A    between atoms: C7_13  and  C8_14 
REMARK    6  A    between atoms: N5_18  and  C10_19 
REMARK    7  A    between atoms: C10_19  and  C11_20 
REMARK    8  A    between atoms: C16_25  and  C17_26 
REMARK    9  A    between atoms: C17_26  and  O2_27 
ROOT
HETATM    1  N2  UNL     1      -5.084   6.778   9.831  1.00  0.00    -0.359 N 
HETATM    2  C5  UNL     1      -5.447   7.945  10.640  1.00  0.00     0.155 C 
HETATM    3  C6  UNL     1      -5.680   7.518  12.093  1.00  0.00     0.292 C 
HETATM    4  N3  UNL     1      -4.777   6.490  12.494  1.00  0.00     0.096 N 
HETATM    5  C15 UNL     1      -3.593   6.482  11.673  1.00  0.00     0.300 C 
HETATM    6  C16 UNL     1      -3.990   5.968  10.303  1.00  0.00     0.137 C 
ENDROOT
BRANCH   4   7
HETATM    7  C7  UNL     1      -4.498   6.410  13.895  1.00  0.00     0.314 C 
BRANCH   7   8
HETATM    8  C8  UNL     1      -4.323   5.062  14.430  1.00  0.00     0.004 A 
HETATM    9  C9  UNL     1      -3.138   4.380  14.551  1.00  0.00     0.117 A 
HETATM   10  N4  UNL     1      -3.405   3.174  15.084  1.00  0.00    -0.309 N 
HETATM   11  N5  UNL     1      -4.707   3.079  15.299  1.00  0.00    -0.303 N 
ATOM     12  H4  UNL     1      -2.716   2.451  15.290  1.00  0.00     0.186 HD
HETATM   13  C14 UNL     1      -5.311   4.237  14.903  1.00  0.00     0.120 A 
BRANCH  11  14
HETATM   14  C10 UNL     1      -5.330   1.902  15.868  1.00  0.00     0.152 C 
BRANCH  14  15
HETATM   15  C11 UNL     1      -6.467   2.258  16.801  1.00  0.00     0.005 A 
HETATM   16  C12 UNL     1      -6.366   1.625  18.178  1.00  0.00     0.007 A 
HETATM   17  C13 UNL     1      -7.460   1.241  17.209  1.00  0.00     0.007 A 
ENDBRANCH  14  15
ENDBRANCH  11  14
ENDBRANCH   7   8
ENDBRANCH   4   7
BRANCH   6  18
HETATM   18  C17 UNL     1      -4.483   4.545  10.486  1.00  0.00     0.191 C 
BRANCH  18  19
HETATM   19  O2  UNL     1      -3.733   3.726   9.671  1.00  0.00    -0.399 OA
ATOM     20  H2  UNL     1      -4.305   3.047   9.331  1.00  0.00     0.209 HD
ENDBRANCH  18  19
ENDBRANCH   6  18
BRANCH   1  21
HETATM   21  C4  UNL     1      -5.810   6.490   8.633  1.00  0.00     0.103 C 
HETATM   22  N1  UNL     1      -7.012   6.059   8.787  1.00  0.00    -0.257 N 
ATOM     23  H1  UNL     1      -7.394   5.941   9.725  1.00  0.00     0.195 HD
BRANCH  21  24
HETATM   24  C2  UNL     1      -5.259   6.660   7.290  1.00  0.00     0.047 C 
HETATM   25  C1  UNL     1      -4.401   7.898   7.158  1.00  0.00     0.017 C 
HETATM   26  C3  UNL     1      -4.412   5.488   6.842  1.00  0.00     0.017 C 
ENDBRANCH  21  24
BRANCH  22  27
HETATM   27  O1  UNL     1      -7.774   5.760   7.701  1.00  0.00    -0.288 OA
ATOM     28  H1  UNL     1      -7.724   4.897   7.306  1.00  0.00     0.244 HD
ENDBRANCH  22  27
ENDBRANCH   1  21
TORSDOF 9
ENDMDL
MODEL 2
REMARK VINA RESULT: -6.399933159      3.683      5.236
REMARK  9 active torsions:
REMARK  status: ('A' for Active; 'I' for Inactive)
REMARK    1  A    between atoms: C2_2  and  C4_4 
REMARK    2  A    between atoms: C4_4  and  N2_9 
REMARK    3  A    between atoms: N1_5  and  O1_7 
REMARK    4  A    between atoms: N3_12  and  C7_13 
REMARK    5  A    between atoms: C7_13  and  C8_14 
REMARK    6  A    between atoms: N5_18  and  C10_19 
REMARK    7  A    between atoms: C10_19  and  C11_20 
REMARK    8  A    between atoms: C16_25  and  C17_26 
REMARK    9  A    between atoms: C17_26  and  O2_27 
ROOT
HETATM    1  N2  UNL     1      -0.703   4.919  11.192  1.00  0.00    -0.359 N 
HETATM    2  C5  UNL     1      -1.073   4.019  10.095  1.00  0.00     0.155 C 
HETATM    3  C6  UNL     1      -2.046   2.951  10.606  1.00  0.00     0.292 C 
HETATM    4  N3  UNL     1      -2.948   3.476  11.578  1.00  0.00     0.096 N 
HETATM    5  C15 UNL     1      -3.077   4.905  11.456  1.00  0.00     0.300 C 
HETATM    6  C16 UNL     1      -1.778   5.525  11.935  1.00  0.00     0.137 C 
ENDROOT
BRANCH   4   7
HETATM    7  C7  UNL     1      -4.203   2.800  11.701  1.00  0.00     0.314 C 
BRANCH   7   8
HETATM    8  C8  UNL     1      -4.357   1.959  12.886  1.00  0.00     0.004 A 
HETATM    9  C9  UNL     1      -4.359   0.587  12.918  1.00  0.00     0.117 A 
HETATM   10  N4  UNL     1      -4.528   0.202  14.195  1.00  0.00    -0.309 N 
HETATM   11  N5  UNL     1      -4.632   1.278  14.958  1.00  0.00    -0.303 N 
ATOM     12  H4  UNL     1      -4.570  -0.763  14.523  1.00  0.00     0.186 HD
HETATM   13  C14 UNL     1      -4.530   2.392  14.176  1.00  0.00     0.120 A 
BRANCH  11  14
HETATM   14  C10 UNL     1      -4.823   1.214  16.392  1.00  0.00     0.152 C 
BRANCH  14  15
HETATM   15  C11 UNL     1      -6.100   1.901  16.824  1.00  0.00     0.005 A 
HETATM   16  C12 UNL     1      -6.444   1.716  18.292  1.00  0.00     0.007 A 
HETATM   17  C13 UNL     1      -7.296   1.115  17.198  1.00  0.00     0.007 A 
ENDBRANCH  14  15
ENDBRANCH  11  14
ENDBRANCH   7   8
ENDBRANCH   4   7
BRANCH   6  18
HETATM   18  C17 UNL     1      -1.624   5.159  13.400  1.00  0.00     0.191 C 
BRANCH  18  19
HETATM   19  O2  UNL     1      -2.636   5.774  14.101  1.00  0.00    -0.399 OA
ATOM     20  H2  UNL     1      -2.249   6.457  14.637  1.00  0.00     0.209 HD
ENDBRANCH  18  19
ENDBRANCH   6  18
BRANCH   1  21
HETATM   21  C4  UNL     1       0.677   5.157  11.480  1.00  0.00     0.103 C 
HETATM   22  N1  UNL     1       1.331   4.170  11.983  1.00  0.00    -0.257 N 
ATOM     23  H1  UNL     1       0.860   3.282  12.153  1.00  0.00     0.195 HD
BRANCH  21  24
HETATM   24  C2  UNL     1       1.350   6.431  11.235  1.00  0.00     0.047 C 
HETATM   25  C1  UNL     1       0.905   7.092   9.950  1.00  0.00     0.017 C 
HETATM   26  C3  UNL     1       1.137   7.439  12.345  1.00  0.00     0.017 C 
ENDBRANCH  21  24
BRANCH  22  27
HETATM   27  O1  UNL     1       2.649   4.308  12.289  1.00  0.00    -0.288 OA
ATOM     28  H1  UNL     1       3.116   3.601  12.718  1.00  0.00     0.244 HD
ENDBRANCH  22  27
ENDBRANCH   1  21
TORSDOF 9
ENDMDL
MODEL 3
REMARK VINA RESULT: -6.387304680      0.993      1.004
REMARK  9 active torsions:
REMARK  status: ('A' for Active; 'I' for Inactive)
REMARK    1  A    between atoms: C2_2  and  C4_4 
REMARK    2  A    between atoms: C4_4  and  N2_9 
REMARK    3  A    between atoms: N1_5  and  O1_7 
REMARK    4  A    between atoms: N3_12  and  C7_13 
REMARK    5  A    between atoms: C7_13  and  C8_14 
REMARK    6  A    between atoms: N5_18  and  C10_19 
REMARK    7  A    between atoms: C10_19  and  C11_20 
REMARK    8  A    between atoms: C16_25  and  C17_26 
REMARK    9  A    between atoms: C17_26  and  O2_27 
ROOT
HETATM    1  N2  UNL     1      -5.091   6.743   9.946  1.00  0.00    -0.359 N 
HETATM    2  C5  UNL     1      -5.646   7.497  11.074  1.00  0.00     0.155 C 
HETATM    3  C6  UNL     1      -5.626   6.630  12.338  1.00  0.00     0.292 C 
HETATM    4  N3  UNL     1      -4.466   5.803  12.395  1.00  0.00     0.096 N 
HETATM    5  C15 UNL     1      -3.401   6.336  11.585  1.00  0.00     0.300 C 
HETATM    6  C16 UNL     1      -3.792   6.147  10.132  1.00  0.00     0.137 C 
ENDROOT
BRANCH   4   7
HETATM    7  C7  UNL     1      -4.042   5.404  13.702  1.00  0.00     0.314 C 
BRANCH   7   8
HETATM    8  C8  UNL     1      -4.110   3.972  13.981  1.00  0.00     0.004 A 
HETATM    9  C9  UNL     1      -3.792   2.956  13.115  1.00  0.00     0.117 A 
HETATM   10  N4  UNL     1      -3.992   1.789  13.753  1.00  0.00    -0.309 N 
HETATM   11  N5  UNL     1      -4.421   2.038  14.979  1.00  0.00    -0.303 N 
ATOM     12  H4  UNL     1      -3.838   0.862  13.356  1.00  0.00     0.186 HD
HETATM   13  C14 UNL     1      -4.507   3.389  15.157  1.00  0.00     0.120 A 
BRANCH  11  14
HETATM   14  C10 UNL     1      -4.734   0.995  15.934  1.00  0.00     0.152 C 
BRANCH  14  15
HETATM   15  C11 UNL     1      -5.538   1.519  17.102  1.00  0.00     0.005 A 
HETATM   16  C12 UNL     1      -6.235   0.442  17.916  1.00  0.00     0.007 A 
HETATM   17  C13 UNL     1      -7.016   1.447  17.101  1.00  0.00     0.007 A 
ENDBRANCH  14  15
ENDBRANCH  11  14
ENDBRANCH   7   8
ENDBRANCH   4   7
BRANCH   6  18
HETATM   18  C17 UNL     1      -3.904   4.653   9.892  1.00  0.00     0.191 C 
BRANCH  18  19
HETATM   19  O2  UNL     1      -2.749   4.233   9.272  1.00  0.00    -0.399 OA
ATOM     20  H2  UNL     1      -2.794   4.494   8.359  1.00  0.00     0.209 HD
ENDBRANCH  18  19
ENDBRANCH   6  18
BRANCH   1  21
HETATM   21  C4  UNL     1      -5.836   6.628   8.732  1.00  0.00     0.103 C 
HETATM   22  N1  UNL     1      -6.943   5.975   8.805  1.00  0.00    -0.257 N 
ATOM     23  H1  UNL     1      -7.240   5.577   9.695  1.00  0.00     0.195 HD
BRANCH  21  24
HETATM   24  C2  UNL     1      -5.407   7.200   7.457  1.00  0.00     0.047 C 
HETATM   25  C1  UNL     1      -4.670   8.511   7.621  1.00  0.00     0.017 C 
HETATM   26  C3  UNL     1      -4.501   6.281   6.668  1.00  0.00     0.017 C 
ENDBRANCH  21  24
BRANCH  22  27
HETATM   27  O1  UNL     1      -7.717   5.816   7.698  1.00  0.00    -0.288 OA
ATOM     28  H1  UNL     1      -8.307   5.075   7.631  1.00  0.00     0.244 HD
ENDBRANCH  22  27
ENDBRANCH   1  21
TORSDOF 9
ENDMDL
MODEL 4
REMARK VINA RESULT: -6.344005123      1.493      1.963
REMARK  9 active torsions:
REMARK  status: ('A' for Active; 'I' for Inactive)
REMARK    1  A    between atoms: C2_2  and  C4_4 
REMARK    2  A    between atoms: C4_4  and  N2_9 
REMARK    3  A    between atoms: N1_5  and  O1_7 
REMARK    4  A    between atoms: N3_12  and  C7_13 
REMARK    5  A    between atoms: C7_13  and  C8_14 
REMARK    6  A    between atoms: N5_18  and  C10_19 
REMARK    7  A    between atoms: C10_19  and  C11_20 
REMARK    8  A    between atoms: C16_25  and  C17_26 
REMARK    9  A    between atoms: C17_26  and  O2_27 
ROOT
HETATM    1  N2  UNL     1      -6.285   7.520  10.386  1.00  0.00    -0.359 N 
HETATM    2  C5  UNL     1      -7.090   7.667  11.602  1.00  0.00     0.155 C 
HETATM    3  C6  UNL     1      -6.559   6.731  12.693  1.00  0.00     0.292 C 
HETATM    4  N3  UNL     1      -5.137   6.629  12.658  1.00  0.00     0.096 N 
HETATM    5  C15 UNL     1      -4.545   7.768  12.004  1.00  0.00     0.300 C 
HETATM    6  C16 UNL     1      -4.858   7.661  10.524  1.00  0.00     0.137 C 
ENDROOT
BRANCH   4   7
HETATM    7  C7  UNL     1      -4.500   6.288  13.892  1.00  0.00     0.314 C 
BRANCH   7   8
HETATM    8  C8  UNL     1      -4.416   4.860  14.188  1.00  0.00     0.004 A 
HETATM    9  C9  UNL     1      -3.553   3.958  13.618  1.00  0.00     0.117 A 
HETATM   10  N4  UNL     1      -3.797   2.750  14.159  1.00  0.00    -0.309 N 
HETATM   11  N5  UNL     1      -4.776   2.865  15.041  1.00  0.00    -0.303 N 
ATOM     12  H4  UNL     1      -3.307   1.887  13.926  1.00  0.00     0.186 HD
HETATM   13  C14 UNL     1      -5.187   4.166  15.086  1.00  0.00     0.120 A 
BRANCH  11  14
HETATM   14  C10 UNL     1      -5.286   1.746  15.806  1.00  0.00     0.152 C 
BRANCH  14  15
HETATM   15  C11 UNL     1      -6.366   2.169  16.777  1.00  0.00     0.005 A 
HETATM   16  C12 UNL     1      -6.272   1.510  18.142  1.00  0.00     0.007 A 
HETATM   17  C13 UNL     1      -7.419   1.220  17.202  1.00  0.00     0.007 A 
ENDBRANCH  14  15
ENDBRANCH  11  14
ENDBRANCH   7   8
ENDBRANCH   4   7
BRANCH   6  18
HETATM   18  C17 UNL     1      -4.193   6.392  10.020  1.00  0.00     0.191 C 
BRANCH  18  19
HETATM   19  O2  UNL     1      -3.689   6.646   8.765  1.00  0.00    -0.399 OA
ATOM     20  H2  UNL     1      -4.125   6.067   8.150  1.00  0.00     0.209 HD
ENDBRANCH  18  19
ENDBRANCH   6  18
BRANCH   1  21
HETATM   21  C4  UNL     1      -6.926   7.248   9.137  1.00  0.00     0.103 C 
HETATM   22  N1  UNL     1      -6.888   6.028   8.733  1.00  0.00    -0.257 N 
ATOM     23  H1  UNL     1      -6.419   5.319   9.297  1.00  0.00     0.195 HD
BRANCH  21  24
HETATM   24  C2  UNL     1      -7.598   8.265   8.331  1.00  0.00     0.047 C 
HETATM   25  C1  UNL     1      -9.075   8.376   8.638  1.00  0.00     0.017 C 
HETATM   26  C3  UNL     1      -7.007   9.648   8.505  1.00  0.00     0.017 C 
ENDBRANCH  21  24
BRANCH  22  27
HETATM   27  O1  UNL     1      -7.473   5.679   7.555  1.00  0.00    -0.288 OA
ATOM     28  H1  UNL     1      -7.183   4.903   7.090  1.00  0.00     0.244 HD
ENDBRANCH  22  27
ENDBRANCH   1  21
TORSDOF 9
ENDMDL
MODEL 5
REMARK VINA RESULT: -6.201763666      3.318      7.181
REMARK  9 active torsions:
REMARK  status: ('A' for Active; 'I' for Inactive)
REMARK    1  A    between atoms: C2_2  and  C4_4 
REMARK    2  A    between atoms: C4_4  and  N2_9 
REMARK    3  A    between atoms: N1_5  and  O1_7 
REMARK    4  A    between atoms: N3_12  and  C7_13 
REMARK    5  A    between atoms: C7_13  and  C8_14 
REMARK    6  A    between atoms: N5_18  and  C10_19 
REMARK    7  A    between atoms: C10_19  and  C11_20 
REMARK    8  A    between atoms: C16_25  and  C17_26 
REMARK    9  A    between atoms: C17_26  and  O2_27 
ROOT
HETATM    1  N2  UNL     1      -3.796   3.080  13.668  1.00  0.00    -0.359 N 
HETATM    2  C5  UNL     1      -2.749   3.547  12.754  1.00  0.00     0.155 C 
HETATM    3  C6  UNL     1      -3.226   4.804  12.018  1.00  0.00     0.292 C 
HETATM    4  N3  UNL     1      -4.017   5.642  12.858  1.00  0.00     0.096 N 
HETATM    5  C15 UNL     1      -3.745   5.396  14.251  1.00  0.00     0.300 C 
HETATM    6  C16 UNL     1      -4.331   4.041  14.599  1.00  0.00     0.137 C 
ENDROOT
BRANCH   4   7
HETATM    7  C7  UNL     1      -4.037   7.032  12.520  1.00  0.00     0.314 C 
BRANCH   7   8
HETATM    8  C8  UNL     1      -5.270   7.518  11.907  1.00  0.00     0.004 A 
HETATM    9  C9  UNL     1      -6.548   7.143  12.237  1.00  0.00     0.117 A 
HETATM   10  N4  UNL     1      -7.398   7.814  11.439  1.00  0.00    -0.309 N 
HETATM   11  N5  UNL     1      -6.700   8.591  10.627  1.00  0.00    -0.303 N 
ATOM     12  H4  UNL     1      -8.415   7.738  11.458  1.00  0.00     0.186 HD
HETATM   13  C14 UNL     1      -5.370   8.432  10.889  1.00  0.00     0.120 A 
BRANCH  11  14
HETATM   14  C10 UNL     1      -7.314   9.451   9.636  1.00  0.00     0.152 C 
BRANCH  14  15
HETATM   15  C11 UNL     1      -7.926   8.660   8.501  1.00  0.00     0.005 A 
HETATM   16  C12 UNL     1      -8.909   9.445   7.651  1.00  0.00     0.007 A 
HETATM   17  C13 UNL     1      -9.358   8.291   8.518  1.00  0.00     0.007 A 
ENDBRANCH  14  15
ENDBRANCH  11  14
ENDBRANCH   7   8
ENDBRANCH   4   7
BRANCH   6  18
HETATM   18  C17 UNL     1      -5.831   4.137  14.390  1.00  0.00     0.191 C 
BRANCH  18  19
HETATM   19  O2  UNL     1      -6.450   3.580  15.486  1.00  0.00    -0.399 OA
ATOM     20  H2  UNL     1      -7.027   2.891  15.179  1.00  0.00     0.209 HD
ENDBRANCH  18  19
ENDBRANCH   6  18
BRANCH   1  21
HETATM   21  C4  UNL     1      -4.240   1.722  13.606  1.00  0.00     0.103 C 
HETATM   22  N1  UNL     1      -4.432   1.135  14.734  1.00  0.00    -0.257 N 
ATOM     23  H1  UNL     1      -4.267   1.640  15.605  1.00  0.00     0.195 HD
BRANCH  21  24
HETATM   24  C2  UNL     1      -4.475   1.001  12.356  1.00  0.00     0.047 C 
HETATM   25  C1  UNL     1      -5.172   1.845  11.313  1.00  0.00     0.017 C 
HETATM   26  C3  UNL     1      -3.203   0.479  11.723  1.00  0.00     0.017 C 
ENDBRANCH  21  24
BRANCH  22  27
HETATM   27  O1  UNL     1      -4.854  -0.157  14.769  1.00  0.00    -0.288 OA
ATOM     28  H1  UNL     1      -4.248  -0.862  14.573  1.00  0.00     0.244 HD
ENDBRANCH  22  27
ENDBRANCH   1  21
TORSDOF 9
ENDMDL
