MODEL 1
REMARK VINA RESULT: -7.223057911      0.000      0.000
REMARK  6 active torsions:
REMARK  status: ('A' for Active; 'I' for Inactive)
REMARK    1  A    between atoms: C7_9  and  O3_10 
REMARK    2  A    between atoms: C7_9  and  C8_12 
REMARK    3  A    between atoms: C8_12  and  N1_13 
REMARK    4  A    between atoms: N1_13  and  C9_16 
REMARK    5  A    between atoms: C9_16  and  C10_17 
REMARK    6  A    between atoms: C10_17  and  N2_18 
ROOT
HETATM    1  O1  UNL     1      -6.587   1.697  18.976  1.00  0.00    -0.262 OA
HETATM    2  C1  UNL     1      -6.391   1.906  17.752  1.00  0.00     0.289 C 
HETATM    3  O2  UNL     1      -6.949   3.015  17.073  1.00  0.00    -0.313 OA
HETATM    4  C2  UNL     1      -5.966   3.295  16.099  1.00  0.00     0.141 C 
HETATM    5  C3  UNL     1      -6.434   4.142  14.966  1.00  0.00     0.038 C 
HETATM    6  C4  UNL     1      -5.392   4.506  13.997  1.00  0.00    -0.005 C 
HETATM    7  C5  UNL     1      -4.974   5.957  14.286  1.00  0.00     0.008 C 
HETATM    8  C6  UNL     1      -3.865   6.099  13.249  1.00  0.00     0.040 C 
HETATM    9  C7  UNL     1      -3.102   4.804  13.536  1.00  0.00     0.086 C 
HETATM   10  C14 UNL     1      -4.145   3.754  13.878  1.00  0.00     0.028 C 
HETATM   11  C15 UNL     1      -3.606   2.963  15.000  1.00  0.00     0.040 C 
HETATM   12  C16 UNL     1      -4.300   1.694  15.367  1.00  0.00     0.132 C 
HETATM   13  O4  UNL     1      -4.229   1.368  16.743  1.00  0.00    -0.369 OA
HETATM   14  C17 UNL     1      -5.588   1.105  16.776  1.00  0.00     0.230 C 
HETATM   15  C18 UNL     1      -5.738   1.909  15.534  1.00  0.00     0.083 C 
ENDROOT
BRANCH   9  16
HETATM   16  O3  UNL     1      -2.375   5.056  14.705  1.00  0.00    -0.388 OA
ATOM     17  H3  UNL     1      -2.344   4.226  15.164  1.00  0.00     0.210 HD
ENDBRANCH   9  16
BRANCH   9  18
HETATM   18  C8  UNL     1      -2.240   4.501  12.370  1.00  0.00     0.270 C 
BRANCH  18  19
HETATM   19  N1  UNL     1      -1.230   3.489  12.584  1.00  0.00    -0.071 N 
ATOM     20  H12 UNL     1      -0.325   3.900  12.811  1.00  0.00     0.277 HD
ATOM     21  H11 UNL     1      -1.386   2.976  13.452  1.00  0.00     0.277 HD
BRANCH  19  22
HETATM   22  C9  UNL     1      -1.149   2.594  11.426  1.00  0.00     0.262 C 
BRANCH  22  23
HETATM   23  C10 UNL     1      -2.508   2.176  10.980  1.00  0.00     0.299 C 
BRANCH  23  24
HETATM   24  N2  UNL     1      -3.068   1.119  11.814  1.00  0.00     0.090 N 
HETATM   25  C11 UNL     1      -2.942  -0.202  11.181  1.00  0.00     0.274 C 
HETATM   26  C12 UNL     1      -4.326  -0.582  11.591  1.00  0.00     0.060 C 
HETATM   27  C13 UNL     1      -4.505   0.941  11.729  1.00  0.00     0.274 C 
ENDBRANCH  23  24
ENDBRANCH  22  23
ENDBRANCH  19  22
ENDBRANCH  18  19
ENDBRANCH   9  18
TORSDOF 6
ENDMDL
MODEL 2
REMARK VINA RESULT: -6.989500367      3.210      5.499
REMARK  6 active torsions:
REMARK  status: ('A' for Active; 'I' for Inactive)
REMARK    1  A    between atoms: C7_9  and  O3_10 
REMARK    2  A    between atoms: C7_9  and  C8_12 
REMARK    3  A    between atoms: C8_12  and  N1_13 
REMARK    4  A    between atoms: N1_13  and  C9_16 
REMARK    5  A    between atoms: C9_16  and  C10_17 
REMARK    6  A    between atoms: C10_17  and  N2_18 
ROOT
HETATM    1  O1  UNL     1      -3.365  -2.199  11.150  1.00  0.00    -0.262 OA
HETATM    2  C1  UNL     1      -3.281  -1.010  11.550  1.00  0.00     0.289 C 
HETATM    3  O2  UNL     1      -2.087  -0.256  11.443  1.00  0.00    -0.313 OA
HETATM    4  C2  UNL     1      -2.577   1.055  11.257  1.00  0.00     0.141 C 
HETATM    5  C3  UNL     1      -1.584   2.134  11.518  1.00  0.00     0.038 C 
HETATM    6  C4  UNL     1      -2.065   3.495  11.244  1.00  0.00    -0.005 C 
HETATM    7  C5  UNL     1      -1.474   3.932   9.893  1.00  0.00     0.008 C 
HETATM    8  C6  UNL     1      -2.143   5.297   9.768  1.00  0.00     0.040 C 
HETATM    9  C7  UNL     1      -3.580   4.890  10.102  1.00  0.00     0.086 C 
HETATM   10  C14 UNL     1      -3.489   3.816  11.172  1.00  0.00     0.028 C 
HETATM   11  C15 UNL     1      -4.499   2.793  10.840  1.00  0.00     0.040 C 
HETATM   12  C16 UNL     1      -4.817   1.756  11.866  1.00  0.00     0.132 C 
HETATM   13  O4  UNL     1      -5.192   0.501  11.328  1.00  0.00    -0.369 OA
HETATM   14  C17 UNL     1      -4.328  -0.154  12.190  1.00  0.00     0.230 C 
HETATM   15  C18 UNL     1      -3.596   1.127  12.374  1.00  0.00     0.083 C 
ENDROOT
BRANCH   9  16
HETATM   16  O3  UNL     1      -4.066   4.275   8.943  1.00  0.00    -0.388 OA
ATOM     17  H3  UNL     1      -5.012   4.296   9.026  1.00  0.00     0.210 HD
ENDBRANCH   9  16
BRANCH   9  18
HETATM   18  C8  UNL     1      -4.337   6.108  10.474  1.00  0.00     0.270 C 
BRANCH  18  19
HETATM   19  N1  UNL     1      -4.179   6.550  11.841  1.00  0.00    -0.071 N 
ATOM     20  H12 UNL     1      -3.464   6.013  12.332  1.00  0.00     0.277 HD
ATOM     21  H11 UNL     1      -3.741   7.470  11.894  1.00  0.00     0.277 HD
BRANCH  19  22
HETATM   22  C9  UNL     1      -5.466   6.515  12.542  1.00  0.00     0.262 C 
BRANCH  22  23
HETATM   23  C10 UNL     1      -5.301   6.002  13.931  1.00  0.00     0.299 C 
BRANCH  23  24
HETATM   24  N2  UNL     1      -5.302   4.545  13.991  1.00  0.00     0.090 N 
HETATM   25  C11 UNL     1      -6.316   4.036  14.925  1.00  0.00     0.274 C 
HETATM   26  C12 UNL     1      -5.371   3.016  15.468  1.00  0.00     0.060 C 
HETATM   27  C13 UNL     1      -4.307   3.947  14.861  1.00  0.00     0.274 C 
ENDBRANCH  23  24
ENDBRANCH  22  23
ENDBRANCH  19  22
ENDBRANCH  18  19
ENDBRANCH   9  18
TORSDOF 6
ENDMDL
MODEL 3
REMARK VINA RESULT: -6.893240975      3.685      5.563
REMARK  6 active torsions:
REMARK  status: ('A' for Active; 'I' for Inactive)
REMARK    1  A    between atoms: C7_9  and  O3_10 
REMARK    2  A    between atoms: C7_9  and  C8_12 
REMARK    3  A    between atoms: C8_12  and  N1_13 
REMARK    4  A    between atoms: N1_13  and  C9_16 
REMARK    5  A    between atoms: C9_16  and  C10_17 
REMARK    6  A    between atoms: C10_17  and  N2_18 
ROOT
HETATM    1  O1  UNL     1      -3.554  -1.794  11.720  1.00  0.00    -0.262 OA
HETATM    2  C1  UNL     1      -4.095  -0.669  11.866  1.00  0.00     0.289 C 
HETATM    3  O2  UNL     1      -4.451  -0.156  13.136  1.00  0.00    -0.313 OA
HETATM    4  C2  UNL     1      -4.276   1.233  12.958  1.00  0.00     0.141 C 
HETATM    5  C3  UNL     1      -4.954   2.083  13.976  1.00  0.00     0.038 C 
HETATM    6  C4  UNL     1      -4.703   3.524  13.843  1.00  0.00    -0.005 C 
HETATM    7  C5  UNL     1      -3.662   3.914  14.905  1.00  0.00     0.008 C 
HETATM    8  C6  UNL     1      -3.495   5.388  14.549  1.00  0.00     0.040 C 
HETATM    9  C7  UNL     1      -3.318   5.249  13.035  1.00  0.00     0.086 C 
HETATM   10  C14 UNL     1      -4.233   4.119  12.594  1.00  0.00     0.028 C 
HETATM   11  C15 UNL     1      -3.489   3.332  11.592  1.00  0.00     0.040 C 
HETATM   12  C16 UNL     1      -4.239   2.320  10.791  1.00  0.00     0.132 C 
HETATM   13  O4  UNL     1      -3.470   1.194  10.409  1.00  0.00    -0.369 OA
HETATM   14  C17 UNL     1      -4.475   0.337  10.824  1.00  0.00     0.230 C 
HETATM   15  C18 UNL     1      -5.023   1.439  11.658  1.00  0.00     0.083 C 
ENDROOT
BRANCH   9  16
HETATM   16  O3  UNL     1      -2.003   4.807  12.857  1.00  0.00    -0.388 OA
ATOM     17  H3  UNL     1      -1.703   5.228  12.061  1.00  0.00     0.210 HD
ENDBRANCH   9  16
BRANCH   9  18
HETATM   18  C8  UNL     1      -3.577   6.568  12.411  1.00  0.00     0.270 C 
BRANCH  18  19
HETATM   19  N1  UNL     1      -4.887   7.128  12.652  1.00  0.00    -0.071 N 
ATOM     20  H12 UNL     1      -5.550   6.420  12.966  1.00  0.00     0.277 HD
ATOM     21  H11 UNL     1      -4.899   7.724  13.480  1.00  0.00     0.277 HD
BRANCH  19  22
HETATM   22  C9  UNL     1      -5.367   7.837  11.462  1.00  0.00     0.262 C 
BRANCH  22  23
HETATM   23  C10 UNL     1      -5.983   6.891  10.491  1.00  0.00     0.299 C 
BRANCH  23  24
HETATM   24  N2  UNL     1      -6.589   7.574   9.354  1.00  0.00     0.090 N 
HETATM   25  C11 UNL     1      -7.772   8.353   9.750  1.00  0.00     0.274 C 
HETATM   26  C12 UNL     1      -8.529   7.900   8.545  1.00  0.00     0.060 C 
HETATM   27  C13 UNL     1      -7.480   6.774   8.536  1.00  0.00     0.274 C 
ENDBRANCH  23  24
ENDBRANCH  22  23
ENDBRANCH  19  22
ENDBRANCH  18  19
ENDBRANCH   9  18
TORSDOF 6
ENDMDL
MODEL 4
REMARK VINA RESULT: -6.846461042      2.029      4.031
REMARK  6 active torsions:
REMARK  status: ('A' for Active; 'I' for Inactive)
REMARK    1  A    between atoms: C7_9  and  O3_10 
REMARK    2  A    between atoms: C7_9  and  C8_12 
REMARK    3  A    between atoms: C8_12  and  N1_13 
REMARK    4  A    between atoms: N1_13  and  C9_16 
REMARK    5  A    between atoms: C9_16  and  C10_17 
REMARK    6  A    between atoms: C10_17  and  N2_18 
ROOT
HETATM    1  O1  UNL     1      -7.204   0.762  17.783  1.00  0.00    -0.262 OA
HETATM    2  C1  UNL     1      -6.250   1.020  17.007  1.00  0.00     0.289 C 
HETATM    3  O2  UNL     1      -5.565   0.013  16.286  1.00  0.00    -0.313 OA
HETATM    4  C2  UNL     1      -5.199   0.690  15.102  1.00  0.00     0.141 C 
HETATM    5  C3  UNL     1      -4.119   0.031  14.316  1.00  0.00     0.038 C 
HETATM    6  C4  UNL     1      -3.795   0.686  13.041  1.00  0.00    -0.005 C 
HETATM    7  C5  UNL     1      -4.457  -0.131  11.919  1.00  0.00     0.008 C 
HETATM    8  C6  UNL     1      -4.072   0.742  10.728  1.00  0.00     0.040 C 
HETATM    9  C7  UNL     1      -4.478   2.106  11.291  1.00  0.00     0.086 C 
HETATM   10  C14 UNL     1      -4.146   2.079  12.773  1.00  0.00     0.028 C 
HETATM   11  C15 UNL     1      -5.259   2.747  13.473  1.00  0.00     0.040 C 
HETATM   12  C16 UNL     1      -5.076   3.103  14.911  1.00  0.00     0.132 C 
HETATM   13  O4  UNL     1      -6.268   3.072  15.675  1.00  0.00    -0.369 OA
HETATM   14  C17 UNL     1      -5.639   2.345  16.671  1.00  0.00     0.230 C 
HETATM   15  C18 UNL     1      -4.601   1.953  15.682  1.00  0.00     0.083 C 
ENDROOT
BRANCH   9  16
HETATM   16  O3  UNL     1      -5.872   2.149  11.182  1.00  0.00    -0.388 OA
ATOM     17  H3  UNL     1      -6.192   2.144  12.076  1.00  0.00     0.210 HD
ENDBRANCH   9  16
BRANCH   9  18
HETATM   18  C8  UNL     1      -3.801   3.159  10.498  1.00  0.00     0.270 C 
BRANCH  18  19
HETATM   19  N1  UNL     1      -4.586   4.341  10.228  1.00  0.00    -0.071 N 
ATOM     20  H12 UNL     1      -4.634   4.544   9.230  1.00  0.00     0.277 HD
ATOM     21  H11 UNL     1      -5.580   4.184  10.399  1.00  0.00     0.277 HD
BRANCH  19  22
HETATM   22  C9  UNL     1      -4.074   5.482  10.994  1.00  0.00     0.262 C 
BRANCH  22  23
HETATM   23  C10 UNL     1      -2.584   5.509  10.975  1.00  0.00     0.299 C 
BRANCH  23  24
HETATM   24  N2  UNL     1      -2.016   5.801  12.286  1.00  0.00     0.090 N 
HETATM   25  C11 UNL     1      -1.405   4.610  12.895  1.00  0.00     0.274 C 
HETATM   26  C12 UNL     1      -1.985   4.940  14.231  1.00  0.00     0.060 C 
HETATM   27  C13 UNL     1      -2.951   5.798  13.395  1.00  0.00     0.274 C 
ENDBRANCH  23  24
ENDBRANCH  22  23
ENDBRANCH  19  22
ENDBRANCH  18  19
ENDBRANCH   9  18
TORSDOF 6
ENDMDL
MODEL 5
REMARK VINA RESULT: -6.830342203      3.100      5.386
REMARK  6 active torsions:
REMARK  status: ('A' for Active; 'I' for Inactive)
REMARK    1  A    between atoms: C7_9  and  O3_10 
REMARK    2  A    between atoms: C7_9  and  C8_12 
REMARK    3  A    between atoms: C8_12  and  N1_13 
REMARK    4  A    between atoms: N1_13  and  C9_16 
REMARK    5  A    between atoms: C9_16  and  C10_17 
REMARK    6  A    between atoms: C10_17  and  N2_18 
ROOT
HETATM    1  O1  UNL     1      -3.532  -2.090  11.593  1.00  0.00    -0.262 OA
HETATM    2  C1  UNL     1      -3.900  -0.888  11.627  1.00  0.00     0.289 C 
HETATM    3  O2  UNL     1      -4.539  -0.323  12.757  1.00  0.00    -0.313 OA
HETATM    4  C2  UNL     1      -4.093   1.016  12.713  1.00  0.00     0.141 C 
HETATM    5  C3  UNL     1      -4.903   1.969  13.523  1.00  0.00     0.038 C 
HETATM    6  C4  UNL     1      -4.392   3.346  13.549  1.00  0.00    -0.005 C 
HETATM    7  C5  UNL     1      -3.677   3.550  14.895  1.00  0.00     0.008 C 
HETATM    8  C6  UNL     1      -3.170   4.974  14.685  1.00  0.00     0.040 C 
HETATM    9  C7  UNL     1      -2.563   4.807  13.290  1.00  0.00     0.086 C 
HETATM   10  C14 UNL     1      -3.469   3.851  12.534  1.00  0.00     0.028 C 
HETATM   11  C15 UNL     1      -2.594   2.949  11.763  1.00  0.00     0.040 C 
HETATM   12  C16 UNL     1      -3.216   2.081  10.721  1.00  0.00     0.132 C 
HETATM   13  O4  UNL     1      -2.562   0.840  10.529  1.00  0.00    -0.369 OA
HETATM   14  C17 UNL     1      -3.772   0.168  10.575  1.00  0.00     0.230 C 
HETATM   15  C18 UNL     1      -4.362   1.347  11.261  1.00  0.00     0.083 C 
ENDROOT
BRANCH   9  16
HETATM   16  O3  UNL     1      -1.347   4.145  13.495  1.00  0.00    -0.388 OA
ATOM     17  H3  UNL     1      -1.307   3.481  12.818  1.00  0.00     0.210 HD
ENDBRANCH   9  16
BRANCH   9  18
HETATM   18  C8  UNL     1      -2.398   6.151  12.689  1.00  0.00     0.270 C 
BRANCH  18  19
HETATM   19  N1  UNL     1      -3.154   7.213  13.312  1.00  0.00    -0.071 N 
ATOM     20  H12 UNL     1      -3.815   6.854  14.001  1.00  0.00     0.277 HD
ATOM     21  H11 UNL     1      -2.575   7.775  13.936  1.00  0.00     0.277 HD
BRANCH  19  22
HETATM   22  C9  UNL     1      -3.819   8.034  12.295  1.00  0.00     0.262 C 
BRANCH  22  23
HETATM   23  C10 UNL     1      -4.237   7.203  11.131  1.00  0.00     0.299 C 
BRANCH  23  24
HETATM   24  N2  UNL     1      -5.685   7.147  10.978  1.00  0.00     0.090 N 
HETATM   25  C11 UNL     1      -6.281   8.489  10.907  1.00  0.00     0.274 C 
HETATM   26  C12 UNL     1      -7.408   8.086  11.801  1.00  0.00     0.060 C 
HETATM   27  C13 UNL     1      -6.444   6.955  12.199  1.00  0.00     0.274 C 
ENDBRANCH  23  24
ENDBRANCH  22  23
ENDBRANCH  19  22
ENDBRANCH  18  19
ENDBRANCH   9  18
TORSDOF 6
ENDMDL
