MODEL 1
REMARK VINA RESULT: -7.157156529      0.000      0.000
REMARK  6 active torsions:
REMARK  status: ('A' for Active; 'I' for Inactive)
REMARK    1  A    between atoms: C2_2  and  C3_3 
REMARK    2  A    between atoms: C3_3  and  N1_4 
REMARK    3  A    between atoms: C6_7  and  N2_8 
REMARK    4  A    between atoms: N3_11  and  C9_12 
REMARK    5  A    between atoms: C9_12  and  C10_13 
REMARK    6  A    between atoms: C10_13  and  O1_14 
ROOT
HETATM    1  N1  UNL     1      -5.077   6.248  10.759  1.00  0.00    -0.183 N 
HETATM    2  C4  UNL     1      -4.862   5.681  11.965  1.00  0.00     0.040 A 
HETATM    3  C5  UNL     1      -4.415   4.368  12.021  1.00  0.00     0.010 A 
HETATM    4  C6  UNL     1      -4.182   3.625  10.886  1.00  0.00     0.127 A 
HETATM    5  N4  UNL     1      -4.415   4.247   9.724  1.00  0.00    -0.176 N 
ATOM      6  H4  UNL     1      -4.253   3.730   8.860  1.00  0.00     0.186 HD
HETATM    7  C13 UNL     1      -4.856   5.539   9.629  1.00  0.00     0.680 A 
HETATM    8  N5  UNL     1      -5.039   6.042   8.466  1.00  0.00    -0.234 N 
ATOM      9  H51 UNL     1      -4.872   5.507   7.614  1.00  0.00     0.174 HD
ATOM     10  H52 UNL     1      -5.368   7.005   8.395  1.00  0.00     0.174 HD
HETATM   11  C14 UNL     1      -4.242   3.795  13.372  1.00  0.00     0.045 C 
HETATM   12  C15 UNL     1      -3.334   4.734  14.125  1.00  0.00     0.014 C 
HETATM   13  C16 UNL     1      -3.986   6.067  14.286  1.00  0.00    -0.042 C 
HETATM   14  C17 UNL     1      -2.908   7.120  14.163  1.00  0.00     0.015 C 
HETATM   15  C18 UNL     1      -4.675   6.165  15.654  1.00  0.00     0.015 C 
HETATM   16  C19 UNL     1      -5.049   6.375  13.252  1.00  0.00     0.067 C 
ENDROOT
BRANCH   4  17
HETATM   17  N2  UNL     1      -3.694   2.282  10.938  1.00  0.00    -0.363 N 
HETATM   18  C7  UNL     1      -4.620   1.200  11.075  1.00  0.00     0.154 C 
HETATM   19  C8  UNL     1      -3.868  -0.038  10.563  1.00  0.00     0.292 C 
HETATM   20  N3  UNL     1      -2.788  -0.219  11.499  1.00  0.00     0.093 N 
HETATM   21  C11 UNL     1      -1.776   0.753  11.295  1.00  0.00     0.292 C 
HETATM   22  C12 UNL     1      -2.278   2.072  10.838  1.00  0.00     0.154 C 
BRANCH  20  23
HETATM   23  C9  UNL     1      -2.324  -1.569  11.579  1.00  0.00     0.298 C 
BRANCH  23  24
HETATM   24  C10 UNL     1      -3.511  -2.499  11.471  1.00  0.00     0.194 C 
BRANCH  24  25
HETATM   25  O1  UNL     1      -3.026  -3.803  11.519  1.00  0.00    -0.399 OA
ATOM     26  H1  UNL     1      -3.743  -4.364  11.793  1.00  0.00     0.209 HD
ENDBRANCH  24  25
ENDBRANCH  23  24
ENDBRANCH  20  23
ENDBRANCH   4  17
BRANCH   1  27
HETATM   27  C3  UNL     1      -5.571   7.613  10.745  1.00  0.00     0.174 C 
BRANCH  27  28
HETATM   28  C2  UNL     1      -7.040   7.717  10.767  1.00  0.00    -0.016 C 
HETATM   29  C1  UNL     1      -7.753   8.176  11.777  1.00  0.00     0.008 C 
ENDBRANCH  27  28
ENDBRANCH   1  27
TORSDOF 6
ENDMDL
MODEL 2
REMARK VINA RESULT: -7.091738042      0.533      1.081
REMARK  6 active torsions:
REMARK  status: ('A' for Active; 'I' for Inactive)
REMARK    1  A    between atoms: C2_2  and  C3_3 
REMARK    2  A    between atoms: C3_3  and  N1_4 
REMARK    3  A    between atoms: C6_7  and  N2_8 
REMARK    4  A    between atoms: N3_11  and  C9_12 
REMARK    5  A    between atoms: C9_12  and  C10_13 
REMARK    6  A    between atoms: C10_13  and  O1_14 
ROOT
HETATM    1  N1  UNL     1      -5.082   6.300  10.779  1.00  0.00    -0.183 N 
HETATM    2  C4  UNL     1      -4.663   5.892  11.995  1.00  0.00     0.040 A 
HETATM    3  C5  UNL     1      -4.217   4.586  12.149  1.00  0.00     0.010 A 
HETATM    4  C6  UNL     1      -4.187   3.693  11.101  1.00  0.00     0.127 A 
HETATM    5  N4  UNL     1      -4.616   4.164   9.924  1.00  0.00    -0.176 N 
ATOM      6  H4  UNL     1      -4.609   3.533   9.122  1.00  0.00     0.186 HD
HETATM    7  C13 UNL     1      -5.063   5.443   9.733  1.00  0.00     0.680 A 
HETATM    8  N5  UNL     1      -5.444   5.794   8.562  1.00  0.00    -0.234 N 
ATOM      9  H51 UNL     1      -5.429   5.147   7.774  1.00  0.00     0.174 HD
ATOM     10  H52 UNL     1      -5.777   6.747   8.420  1.00  0.00     0.174 HD
HETATM   11  C14 UNL     1      -3.814   4.191  13.515  1.00  0.00     0.045 C 
HETATM   12  C15 UNL     1      -2.785   5.197  13.968  1.00  0.00     0.014 C 
HETATM   13  C16 UNL     1      -3.395   6.556  14.058  1.00  0.00    -0.042 C 
HETATM   14  C17 UNL     1      -2.352   7.555  13.611  1.00  0.00     0.015 C 
HETATM   15  C18 UNL     1      -3.836   6.851  15.498  1.00  0.00     0.015 C 
HETATM   16  C19 UNL     1      -4.621   6.753  13.191  1.00  0.00     0.067 C 
ENDROOT
BRANCH   4  17
HETATM   17  N2  UNL     1      -3.703   2.357  11.248  1.00  0.00    -0.363 N 
HETATM   18  C7  UNL     1      -2.396   2.024  10.769  1.00  0.00     0.154 C 
HETATM   19  C8  UNL     1      -2.000   0.753  11.537  1.00  0.00     0.292 C 
HETATM   20  N3  UNL     1      -2.935  -0.247  11.091  1.00  0.00     0.093 N 
HETATM   21  C11 UNL     1      -4.214  -0.033  11.665  1.00  0.00     0.292 C 
HETATM   22  C12 UNL     1      -4.554   1.394  11.887  1.00  0.00     0.154 C 
BRANCH  20  23
HETATM   23  C9  UNL     1      -2.438  -1.582  11.202  1.00  0.00     0.298 C 
BRANCH  23  24
HETATM   24  C10 UNL     1      -3.586  -2.501  11.555  1.00  0.00     0.194 C 
BRANCH  24  25
HETATM   25  O1  UNL     1      -3.098  -3.804  11.545  1.00  0.00    -0.399 OA
ATOM     26  H1  UNL     1      -2.467  -3.878  12.252  1.00  0.00     0.209 HD
ENDBRANCH  24  25
ENDBRANCH  23  24
ENDBRANCH  20  23
ENDBRANCH   4  17
BRANCH   1  27
HETATM   27  C3  UNL     1      -5.566   7.664  10.667  1.00  0.00     0.174 C 
BRANCH  27  28
HETATM   28  C2  UNL     1      -7.031   7.787  10.750  1.00  0.00    -0.016 C 
HETATM   29  C1  UNL     1      -7.708   8.068  11.846  1.00  0.00     0.008 C 
ENDBRANCH  27  28
ENDBRANCH   1  27
TORSDOF 6
ENDMDL
MODEL 3
REMARK VINA RESULT: -6.526986223      2.162      3.269
REMARK  6 active torsions:
REMARK  status: ('A' for Active; 'I' for Inactive)
REMARK    1  A    between atoms: C2_2  and  C3_3 
REMARK    2  A    between atoms: C3_3  and  N1_4 
REMARK    3  A    between atoms: C6_7  and  N2_8 
REMARK    4  A    between atoms: N3_11  and  C9_12 
REMARK    5  A    between atoms: C9_12  and  C10_13 
REMARK    6  A    between atoms: C10_13  and  O1_14 
ROOT
HETATM    1  N1  UNL     1      -2.250   6.044  12.899  1.00  0.00    -0.183 N 
HETATM    2  C4  UNL     1      -3.525   5.598  12.880  1.00  0.00     0.040 A 
HETATM    3  C5  UNL     1      -3.763   4.253  12.633  1.00  0.00     0.010 A 
HETATM    4  C6  UNL     1      -2.742   3.358  12.407  1.00  0.00     0.127 A 
HETATM    5  N4  UNL     1      -1.504   3.866  12.441  1.00  0.00    -0.176 N 
ATOM      6  H4  UNL     1      -0.720   3.234  12.279  1.00  0.00     0.186 HD
HETATM    7  C13 UNL     1      -1.229   5.185  12.680  1.00  0.00     0.680 A 
HETATM    8  N5  UNL     1      -0.008   5.566  12.699  1.00  0.00    -0.234 N 
ATOM      9  H51 UNL     1       0.762   4.918  12.534  1.00  0.00     0.174 HD
ATOM     10  H52 UNL     1       0.197   6.549  12.877  1.00  0.00     0.174 HD
HETATM   11  C14 UNL     1      -5.180   3.840  12.583  1.00  0.00     0.045 C 
HETATM   12  C15 UNL     1      -5.808   4.297  13.876  1.00  0.00     0.014 C 
HETATM   13  C16 UNL     1      -5.780   5.787  13.967  1.00  0.00    -0.042 C 
HETATM   14  C17 UNL     1      -5.525   6.151  15.412  1.00  0.00     0.015 C 
HETATM   15  C18 UNL     1      -7.115   6.377  13.494  1.00  0.00     0.015 C 
HETATM   16  C19 UNL     1      -4.704   6.447  13.131  1.00  0.00     0.067 C 
ENDROOT
BRANCH   4  17
HETATM   17  N2  UNL     1      -2.980   1.967  12.181  1.00  0.00    -0.363 N 
HETATM   18  C7  UNL     1      -2.338   1.312  11.082  1.00  0.00     0.154 C 
HETATM   19  C8  UNL     1      -2.361  -0.183  11.440  1.00  0.00     0.292 C 
HETATM   20  N3  UNL     1      -3.758  -0.533  11.448  1.00  0.00     0.093 N 
HETATM   21  C11 UNL     1      -4.399  -0.021  12.605  1.00  0.00     0.292 C 
HETATM   22  C12 UNL     1      -3.855   1.274  13.082  1.00  0.00     0.154 C 
BRANCH  20  23
HETATM   23  C9  UNL     1      -4.000  -1.917  11.184  1.00  0.00     0.298 C 
BRANCH  23  24
HETATM   24  C10 UNL     1      -2.748  -2.701  11.511  1.00  0.00     0.194 C 
BRANCH  24  25
HETATM   25  O1  UNL     1      -3.099  -4.047  11.563  1.00  0.00    -0.399 OA
ATOM     26  H1  UNL     1      -3.731  -4.150  12.266  1.00  0.00     0.209 HD
ENDBRANCH  24  25
ENDBRANCH  23  24
ENDBRANCH  20  23
ENDBRANCH   4  17
BRANCH   1  27
HETATM   27  C3  UNL     1      -2.047   7.462  13.134  1.00  0.00     0.174 C 
BRANCH  27  28
HETATM   28  C2  UNL     1      -1.742   7.798  14.535  1.00  0.00    -0.016 C 
HETATM   29  C1  UNL     1      -2.524   8.497  15.335  1.00  0.00     0.008 C 
ENDBRANCH  27  28
ENDBRANCH   1  27
TORSDOF 6
ENDMDL
MODEL 4
REMARK VINA RESULT: -6.525372929      2.573      3.995
REMARK  6 active torsions:
REMARK  status: ('A' for Active; 'I' for Inactive)
REMARK    1  A    between atoms: C2_2  and  C3_3 
REMARK    2  A    between atoms: C3_3  and  N1_4 
REMARK    3  A    between atoms: C6_7  and  N2_8 
REMARK    4  A    between atoms: N3_11  and  C9_12 
REMARK    5  A    between atoms: C9_12  and  C10_13 
REMARK    6  A    between atoms: C10_13  and  O1_14 
ROOT
HETATM    1  N1  UNL     1      -2.360   6.267  12.835  1.00  0.00    -0.183 N 
HETATM    2  C4  UNL     1      -1.382   5.406  12.480  1.00  0.00     0.040 A 
HETATM    3  C5  UNL     1      -1.710   4.079  12.239  1.00  0.00     0.010 A 
HETATM    4  C6  UNL     1      -3.001   3.611  12.349  1.00  0.00     0.127 A 
HETATM    5  N4  UNL     1      -3.920   4.517  12.704  1.00  0.00    -0.176 N 
ATOM      6  H4  UNL     1      -4.888   4.210  12.796  1.00  0.00     0.186 HD
HETATM    7  C13 UNL     1      -3.636   5.833  12.950  1.00  0.00     0.680 A 
HETATM    8  N5  UNL     1      -4.592   6.619  13.276  1.00  0.00    -0.234 N 
ATOM      9  H51 UNL     1      -5.554   6.291  13.362  1.00  0.00     0.174 HD
ATOM     10  H52 UNL     1      -4.380   7.599  13.459  1.00  0.00     0.174 HD
HETATM   11  C14 UNL     1      -0.588   3.181  11.897  1.00  0.00     0.045 C 
HETATM   12  C15 UNL     1       0.125   3.809  10.726  1.00  0.00     0.014 C 
HETATM   13  C16 UNL     1       0.709   5.125  11.120  1.00  0.00    -0.042 C 
HETATM   14  C17 UNL     1       0.574   6.057   9.937  1.00  0.00     0.015 C 
HETATM   15  C18 UNL     1       2.185   4.961  11.507  1.00  0.00     0.015 C 
HETATM   16  C19 UNL     1       0.032   5.784  12.303  1.00  0.00     0.067 C 
ENDROOT
BRANCH   4  17
HETATM   17  N2  UNL     1      -3.348   2.253  12.075  1.00  0.00    -0.363 N 
HETATM   18  C7  UNL     1      -4.035   1.486  13.068  1.00  0.00     0.154 C 
HETATM   19  C8  UNL     1      -4.707   0.339  12.295  1.00  0.00     0.292 C 
HETATM   20  N3  UNL     1      -3.612  -0.437  11.774  1.00  0.00     0.093 N 
HETATM   21  C11 UNL     1      -2.994   0.230  10.685  1.00  0.00     0.292 C 
HETATM   22  C12 UNL     1      -2.997   1.709  10.793  1.00  0.00     0.154 C 
BRANCH  20  23
HETATM   23  C9  UNL     1      -3.947  -1.805  11.534  1.00  0.00     0.298 C 
BRANCH  23  24
HETATM   24  C10 UNL     1      -2.676  -2.626  11.539  1.00  0.00     0.194 C 
BRANCH  24  25
HETATM   25  O1  UNL     1      -3.045  -3.968  11.557  1.00  0.00    -0.399 OA
ATOM     26  H1  UNL     1      -2.347  -4.461  11.140  1.00  0.00     0.209 HD
ENDBRANCH  24  25
ENDBRANCH  23  24
ENDBRANCH  20  23
ENDBRANCH   4  17
BRANCH   1  27
HETATM   27  C3  UNL     1      -1.970   7.639  13.104  1.00  0.00     0.174 C 
BRANCH  27  28
HETATM   28  C2  UNL     1      -1.751   7.929  14.532  1.00  0.00    -0.016 C 
HETATM   29  C1  UNL     1      -2.122   9.035  15.147  1.00  0.00     0.008 C 
ENDBRANCH  27  28
ENDBRANCH   1  27
TORSDOF 6
ENDMDL
MODEL 5
REMARK VINA RESULT: -6.434158569      2.017      3.750
REMARK  6 active torsions:
REMARK  status: ('A' for Active; 'I' for Inactive)
REMARK    1  A    between atoms: C2_2  and  C3_3 
REMARK    2  A    between atoms: C3_3  and  N1_4 
REMARK    3  A    between atoms: C6_7  and  N2_8 
REMARK    4  A    between atoms: N3_11  and  C9_12 
REMARK    5  A    between atoms: C9_12  and  C10_13 
REMARK    6  A    between atoms: C10_13  and  O1_14 
ROOT
HETATM    1  N1  UNL     1      -2.246   6.120  13.204  1.00  0.00    -0.183 N 
HETATM    2  C4  UNL     1      -2.896   5.939  12.034  1.00  0.00     0.040 A 
HETATM    3  C5  UNL     1      -3.217   4.648  11.636  1.00  0.00     0.010 A 
HETATM    4  C6  UNL     1      -2.897   3.546  12.395  1.00  0.00     0.127 A 
HETATM    5  N4  UNL     1      -2.254   3.797  13.543  1.00  0.00    -0.176 N 
ATOM      6  H4  UNL     1      -2.000   3.005  14.134  1.00  0.00     0.186 HD
HETATM    7  C13 UNL     1      -1.920   5.053  13.968  1.00  0.00     0.680 A 
HETATM    8  N5  UNL     1      -1.313   5.182  15.088  1.00  0.00    -0.234 N 
ATOM      9  H51 UNL     1      -1.067   4.378  15.664  1.00  0.00     0.174 HD
ATOM     10  H52 UNL     1      -1.063   6.118  15.405  1.00  0.00     0.174 HD
HETATM   11  C14 UNL     1      -3.888   4.518  10.326  1.00  0.00     0.045 C 
HETATM   12  C15 UNL     1      -5.100   5.415  10.372  1.00  0.00     0.014 C 
HETATM   13  C16 UNL     1      -4.684   6.840  10.520  1.00  0.00    -0.042 C 
HETATM   14  C17 UNL     1      -5.695   7.519  11.416  1.00  0.00     0.015 C 
HETATM   15  C18 UNL     1      -4.635   7.530   9.150  1.00  0.00     0.015 C 
HETATM   16  C19 UNL     1      -3.317   7.034  11.141  1.00  0.00     0.067 C 
ENDROOT
BRANCH   4  17
HETATM   17  N2  UNL     1      -3.251   2.218  12.004  1.00  0.00    -0.363 N 
HETATM   18  C7  UNL     1      -4.530   1.692  12.372  1.00  0.00     0.154 C 
HETATM   19  C8  UNL     1      -4.790   0.544  11.383  1.00  0.00     0.292 C 
HETATM   20  N3  UNL     1      -3.774  -0.431  11.684  1.00  0.00     0.093 N 
HETATM   21  C11 UNL     1      -2.510  -0.007  11.200  1.00  0.00     0.292 C 
HETATM   22  C12 UNL     1      -2.301   1.461  11.239  1.00  0.00     0.154 C 
BRANCH  20  23
HETATM   23  C9  UNL     1      -4.141  -1.765  11.327  1.00  0.00     0.298 C 
BRANCH  23  24
HETATM   24  C10 UNL     1      -2.939  -2.666  11.508  1.00  0.00     0.194 C 
BRANCH  24  25
HETATM   25  O1  UNL     1      -3.389  -3.982  11.442  1.00  0.00    -0.399 OA
ATOM     26  H1  UNL     1      -3.764  -4.198  12.289  1.00  0.00     0.209 HD
ENDBRANCH  24  25
ENDBRANCH  23  24
ENDBRANCH  20  23
ENDBRANCH   4  17
BRANCH   1  27
HETATM   27  C3  UNL     1      -1.904   7.482  13.569  1.00  0.00     0.174 C 
BRANCH  27  28
HETATM   28  C2  UNL     1      -2.748   8.043  14.638  1.00  0.00    -0.016 C 
HETATM   29  C1  UNL     1      -2.302   8.703  15.690  1.00  0.00     0.008 C 
ENDBRANCH  27  28
ENDBRANCH   1  27
TORSDOF 6
ENDMDL
