MODEL 1
REMARK VINA RESULT: -7.468541265      0.000      0.000
REMARK  8 active torsions:
REMARK  status: ('A' for Active; 'I' for Inactive)
REMARK    1  A    between atoms: C2_2  and  C4_5 
REMARK    2  A    between atoms: C5_6  and  C6_7 
REMARK    3  A    between atoms: C8_9  and  O1_10 
REMARK    4  A    between atoms: O1_10  and  C9_11 
REMARK    5  A    between atoms: C12_15  and  C13_16 
REMARK    6  A    between atoms: C12_15  and  C14_19 
REMARK    7  A    between atoms: C13_16  and  O3_17 
REMARK    8  A    between atoms: C14_19  and  O4_20 
ROOT
HETATM    1  C1  UNL     1      -6.623   2.357  19.041  1.00  0.00     0.035 C 
HETATM    2  C2  UNL     1      -6.650   2.072  17.718  1.00  0.00     0.035 C 
HETATM    3  C3  UNL     1      -6.218   0.743  17.395  1.00  0.00     0.098 C 
HETATM    4  N1  UNL     1      -5.849  -0.342  17.164  1.00  0.00    -0.191 NA
ENDROOT
BRANCH   2   5
HETATM    5  C4  UNL     1      -7.063   3.107  16.841  1.00  0.00     0.018 C 
HETATM    6  C5  UNL     1      -6.519   3.491  15.746  1.00  0.00    -0.019 C 
BRANCH   6   7
HETATM    7  C6  UNL     1      -5.310   2.959  15.084  1.00  0.00     0.029 A 
HETATM    8  C7  UNL     1      -5.133   3.296  13.660  1.00  0.00     0.037 A 
HETATM    9  C8  UNL     1      -4.371   2.567  12.630  1.00  0.00     0.138 C 
HETATM   10  C18 UNL     1      -4.257   3.770  14.694  1.00  0.00     0.021 A 
HETATM   11  C11 UNL     1      -3.438   3.503  11.948  1.00  0.00     0.046 C 
HETATM   12  C12 UNL     1      -3.790   4.932  11.903  1.00  0.00     0.007 C 
HETATM   13  C15 UNL     1      -4.209   5.673  13.073  1.00  0.00     0.046 C 
HETATM   14  C16 UNL     1      -3.921   5.135  14.443  1.00  0.00     0.134 A 
HETATM   15  O5  UNL     1      -2.571   4.865  14.673  1.00  0.00    -0.384 OA
HETATM   16  C17 UNL     1      -2.863   3.546  15.018  1.00  0.00     0.181 A 
BRANCH   9  17
HETATM   17  O1  UNL     1      -3.752   1.415  13.146  1.00  0.00    -0.316 OA
BRANCH  17  18
HETATM   18  C9  UNL     1      -4.243   0.147  13.018  1.00  0.00     0.255 C 
HETATM   19  C10 UNL     1      -4.179  -0.688  11.806  1.00  0.00     0.126 C 
HETATM   20  O2  UNL     1      -4.801  -0.338  14.052  1.00  0.00    -0.266 OA
ENDBRANCH  17  18
ENDBRANCH   9  17
BRANCH  12  21
HETATM   21  C13 UNL     1      -2.536   5.625  11.324  1.00  0.00     0.175 C 
BRANCH  21  22
HETATM   22  O3  UNL     1      -1.379   5.223  11.936  1.00  0.00    -0.400 OA
ATOM     23  H3  UNL     1      -0.786   4.775  11.344  1.00  0.00     0.209 HD
ENDBRANCH  21  22
ENDBRANCH  12  21
BRANCH  12  24
HETATM   24  C14 UNL     1      -4.831   5.111  10.783  1.00  0.00     0.175 C 
BRANCH  24  25
HETATM   25  O4  UNL     1      -4.468   4.334   9.666  1.00  0.00    -0.400 OA
ATOM     26  H4  UNL     1      -5.211   3.815   9.380  1.00  0.00     0.209 HD
ENDBRANCH  24  25
ENDBRANCH  12  24
ENDBRANCH   6   7
ENDBRANCH   2   5
TORSDOF 8
ENDMDL
MODEL 2
REMARK VINA RESULT: -7.334694372      1.646      1.870
REMARK  8 active torsions:
REMARK  status: ('A' for Active; 'I' for Inactive)
REMARK    1  A    between atoms: C2_2  and  C4_5 
REMARK    2  A    between atoms: C5_6  and  C6_7 
REMARK    3  A    between atoms: C8_9  and  O1_10 
REMARK    4  A    between atoms: O1_10  and  C9_11 
REMARK    5  A    between atoms: C12_15  and  C13_16 
REMARK    6  A    between atoms: C12_15  and  C14_19 
REMARK    7  A    between atoms: C13_16  and  O3_17 
REMARK    8  A    between atoms: C14_19  and  O4_20 
ROOT
HETATM    1  C1  UNL     1      -7.078   1.139  17.539  1.00  0.00     0.035 C 
HETATM    2  C2  UNL     1      -6.231   1.923  16.833  1.00  0.00     0.035 C 
HETATM    3  C3  UNL     1      -4.932   1.350  16.630  1.00  0.00     0.098 C 
HETATM    4  N1  UNL     1      -3.879   0.861  16.493  1.00  0.00    -0.191 NA
ENDROOT
BRANCH   2   5
HETATM    5  C4  UNL     1      -6.715   3.190  16.419  1.00  0.00     0.018 C 
HETATM    6  C5  UNL     1      -6.300   3.928  15.456  1.00  0.00    -0.019 C 
BRANCH   6   7
HETATM    7  C6  UNL     1      -5.204   3.663  14.501  1.00  0.00     0.029 A 
HETATM    8  C7  UNL     1      -5.178   4.488  13.280  1.00  0.00     0.037 A 
HETATM    9  C8  UNL     1      -4.578   4.175  11.970  1.00  0.00     0.138 C 
HETATM   10  C18 UNL     1      -4.166   4.557  14.295  1.00  0.00     0.021 A 
HETATM   11  C11 UNL     1      -3.687   5.289  11.553  1.00  0.00     0.046 C 
HETATM   12  C12 UNL     1      -3.971   6.641  12.064  1.00  0.00     0.007 C 
HETATM   13  C15 UNL     1      -4.213   6.914  13.464  1.00  0.00     0.046 C 
HETATM   14  C16 UNL     1      -3.794   5.919  14.505  1.00  0.00     0.134 A 
HETATM   15  O5  UNL     1      -2.442   5.579  14.451  1.00  0.00    -0.384 OA
HETATM   16  C17 UNL     1      -2.757   4.225  14.339  1.00  0.00     0.181 A 
BRANCH   9  17
HETATM   17  O1  UNL     1      -3.962   2.912  11.961  1.00  0.00    -0.316 OA
BRANCH  17  18
HETATM   18  C9  UNL     1      -4.621   1.727  11.797  1.00  0.00     0.255 C 
HETATM   19  C10 UNL     1      -4.206   0.421  12.338  1.00  0.00     0.126 C 
HETATM   20  O2  UNL     1      -5.693   1.780  11.114  1.00  0.00    -0.266 OA
ENDBRANCH  17  18
ENDBRANCH   9  17
BRANCH  12  21
HETATM   21  C13 UNL     1      -2.760   7.489  11.615  1.00  0.00     0.175 C 
BRANCH  21  22
HETATM   22  O3  UNL     1      -1.560   6.916  11.944  1.00  0.00    -0.400 OA
ATOM     23  H3  UNL     1      -1.447   6.054  11.561  1.00  0.00     0.209 HD
ENDBRANCH  21  22
ENDBRANCH  12  21
BRANCH  12  24
HETATM   24  C14 UNL     1      -5.124   7.214  11.222  1.00  0.00     0.175 C 
BRANCH  24  25
HETATM   25  O4  UNL     1      -6.209   7.542  12.057  1.00  0.00    -0.400 OA
ATOM     26  H4  UNL     1      -7.021   7.489  11.567  1.00  0.00     0.209 HD
ENDBRANCH  24  25
ENDBRANCH  12  24
ENDBRANCH   6   7
ENDBRANCH   2   5
TORSDOF 8
ENDMDL
MODEL 3
REMARK VINA RESULT: -7.120949370      2.770      4.959
REMARK  8 active torsions:
REMARK  status: ('A' for Active; 'I' for Inactive)
REMARK    1  A    between atoms: C2_2  and  C4_5 
REMARK    2  A    between atoms: C5_6  and  C6_7 
REMARK    3  A    between atoms: C8_9  and  O1_10 
REMARK    4  A    between atoms: O1_10  and  C9_11 
REMARK    5  A    between atoms: C12_15  and  C13_16 
REMARK    6  A    between atoms: C12_15  and  C14_19 
REMARK    7  A    between atoms: C13_16  and  O3_17 
REMARK    8  A    between atoms: C14_19  and  O4_20 
ROOT
HETATM    1  C1  UNL     1      -2.404   7.847  11.821  1.00  0.00     0.035 C 
HETATM    2  C2  UNL     1      -3.185   7.821  12.926  1.00  0.00     0.035 C 
HETATM    3  C3  UNL     1      -2.497   8.156  14.139  1.00  0.00     0.098 C 
HETATM    4  N1  UNL     1      -1.905   8.421  15.111  1.00  0.00    -0.191 NA
ENDROOT
BRANCH   2   5
HETATM    5  C4  UNL     1      -4.541   7.447  12.751  1.00  0.00     0.018 C 
HETATM    6  C5  UNL     1      -5.133   6.379  13.139  1.00  0.00    -0.019 C 
BRANCH   6   7
HETATM    7  C6  UNL     1      -4.568   5.235  13.886  1.00  0.00     0.029 A 
HETATM    8  C7  UNL     1      -4.836   3.892  13.341  1.00  0.00     0.037 A 
HETATM    9  C8  UNL     1      -4.863   2.600  14.050  1.00  0.00     0.138 C 
HETATM   10  C18 UNL     1      -3.523   4.470  13.394  1.00  0.00     0.021 A 
HETATM   11  C11 UNL     1      -3.984   1.630  13.346  1.00  0.00     0.046 C 
HETATM   12  C12 UNL     1      -3.758   1.810  11.902  1.00  0.00     0.007 C 
HETATM   13  C15 UNL     1      -3.384   3.081  11.320  1.00  0.00     0.046 C 
HETATM   14  C16 UNL     1      -2.820   4.166  12.189  1.00  0.00     0.134 A 
HETATM   15  O5  UNL     1      -1.696   3.778  12.921  1.00  0.00    -0.384 OA
HETATM   16  C17 UNL     1      -2.309   4.150  14.116  1.00  0.00     0.181 A 
BRANCH   9  17
HETATM   17  O1  UNL     1      -4.579   2.743  15.419  1.00  0.00    -0.316 OA
BRANCH  17  18
HETATM   18  C9  UNL     1      -4.644   1.732  16.334  1.00  0.00     0.255 C 
HETATM   19  C10 UNL     1      -5.819   1.371  17.147  1.00  0.00     0.126 C 
HETATM   20  O2  UNL     1      -3.580   1.049  16.481  1.00  0.00    -0.266 OA
ENDBRANCH  17  18
ENDBRANCH   9  17
BRANCH  12  21
HETATM   21  C13 UNL     1      -2.661   0.781  11.547  1.00  0.00     0.175 C 
BRANCH  21  22
HETATM   22  O3  UNL     1      -1.404   1.324  11.555  1.00  0.00    -0.400 OA
ATOM     23  H3  UNL     1      -0.955   1.224  10.724  1.00  0.00     0.209 HD
ENDBRANCH  21  22
ENDBRANCH  12  21
BRANCH  12  24
HETATM   24  C14 UNL     1      -4.996   1.258  11.173  1.00  0.00     0.175 C 
BRANCH  24  25
HETATM   25  O4  UNL     1      -4.596   0.507  10.052  1.00  0.00    -0.400 OA
ATOM     26  H4  UNL     1      -5.355   0.282   9.526  1.00  0.00     0.209 HD
ENDBRANCH  24  25
ENDBRANCH  12  24
ENDBRANCH   6   7
ENDBRANCH   2   5
TORSDOF 8
ENDMDL
MODEL 4
REMARK VINA RESULT: -6.805454203      2.196      4.069
REMARK  8 active torsions:
REMARK  status: ('A' for Active; 'I' for Inactive)
REMARK    1  A    between atoms: C2_2  and  C4_5 
REMARK    2  A    between atoms: C5_6  and  C6_7 
REMARK    3  A    between atoms: C8_9  and  O1_10 
REMARK    4  A    between atoms: O1_10  and  C9_11 
REMARK    5  A    between atoms: C12_15  and  C13_16 
REMARK    6  A    between atoms: C12_15  and  C14_19 
REMARK    7  A    between atoms: C13_16  and  O3_17 
REMARK    8  A    between atoms: C14_19  and  O4_20 
ROOT
HETATM    1  C1  UNL     1      -6.607   0.793  17.533  1.00  0.00     0.035 C 
HETATM    2  C2  UNL     1      -5.906   1.410  16.554  1.00  0.00     0.035 C 
HETATM    3  C3  UNL     1      -6.337   2.749  16.277  1.00  0.00     0.098 C 
HETATM    4  N1  UNL     1      -6.721   3.833  16.067  1.00  0.00    -0.191 NA
ENDROOT
BRANCH   2   5
HETATM    5  C4  UNL     1      -4.880   0.662  15.923  1.00  0.00     0.018 C 
HETATM    6  C5  UNL     1      -4.367   0.830  14.761  1.00  0.00    -0.019 C 
BRANCH   6   7
HETATM    7  C6  UNL     1      -4.697   1.857  13.751  1.00  0.00     0.029 A 
HETATM    8  C7  UNL     1      -3.576   2.669  13.242  1.00  0.00     0.037 A 
HETATM    9  C8  UNL     1      -3.611   4.021  12.658  1.00  0.00     0.138 C 
HETATM   10  C18 UNL     1      -4.312   1.747  12.425  1.00  0.00     0.021 A 
HETATM   11  C11 UNL     1      -2.904   4.015  11.350  1.00  0.00     0.046 C 
HETATM   12  C12 UNL     1      -1.846   3.014  11.132  1.00  0.00     0.007 C 
HETATM   13  C15 UNL     1      -2.027   1.607  11.419  1.00  0.00     0.046 C 
HETATM   14  C16 UNL     1      -3.410   1.045  11.569  1.00  0.00     0.134 A 
HETATM   15  O5  UNL     1      -4.238   1.280  10.471  1.00  0.00    -0.384 OA
HETATM   16  C17 UNL     1      -5.192   1.890  11.284  1.00  0.00     0.181 A 
BRANCH   9  17
HETATM   17  O1  UNL     1      -4.917   4.539  12.602  1.00  0.00    -0.316 OA
BRANCH  17  18
HETATM   18  C9  UNL     1      -5.354   5.619  13.314  1.00  0.00     0.255 C 
HETATM   19  C10 UNL     1      -4.600   6.331  14.361  1.00  0.00     0.126 C 
HETATM   20  O2  UNL     1      -6.523   6.034  13.029  1.00  0.00    -0.266 OA
ENDBRANCH  17  18
ENDBRANCH   9  17
BRANCH  12  21
HETATM   21  C13 UNL     1      -1.482   3.152   9.636  1.00  0.00     0.175 C 
BRANCH  21  22
HETATM   22  O3  UNL     1      -2.241   4.091   8.991  1.00  0.00    -0.400 OA
ATOM     23  H3  UNL     1      -3.063   4.266   9.434  1.00  0.00     0.209 HD
ENDBRANCH  21  22
ENDBRANCH  12  21
BRANCH  12  24
HETATM   24  C14 UNL     1      -0.581   3.525  11.843  1.00  0.00     0.175 C 
BRANCH  24  25
HETATM   25  O4  UNL     1       0.225   4.235  10.933  1.00  0.00    -0.400 OA
ATOM     26  H4  UNL     1       1.084   4.384  11.311  1.00  0.00     0.209 HD
ENDBRANCH  24  25
ENDBRANCH  12  24
ENDBRANCH   6   7
ENDBRANCH   2   5
TORSDOF 8
ENDMDL
MODEL 5
REMARK VINA RESULT: -6.674246987      2.262      3.422
REMARK  8 active torsions:
REMARK  status: ('A' for Active; 'I' for Inactive)
REMARK    1  A    between atoms: C2_2  and  C4_5 
REMARK    2  A    between atoms: C5_6  and  C6_7 
REMARK    3  A    between atoms: C8_9  and  O1_10 
REMARK    4  A    between atoms: O1_10  and  C9_11 
REMARK    5  A    between atoms: C12_15  and  C13_16 
REMARK    6  A    between atoms: C12_15  and  C14_19 
REMARK    7  A    between atoms: C13_16  and  O3_17 
REMARK    8  A    between atoms: C14_19  and  O4_20 
ROOT
HETATM    1  C1  UNL     1      -5.522   3.307  14.939  1.00  0.00     0.035 C 
HETATM    2  C2  UNL     1      -4.252   3.107  15.362  1.00  0.00     0.035 C 
HETATM    3  C3  UNL     1      -4.014   1.803  15.909  1.00  0.00     0.098 C 
HETATM    4  N1  UNL     1      -3.855   0.737  16.360  1.00  0.00    -0.191 NA
ENDROOT
BRANCH   2   5
HETATM    5  C4  UNL     1      -3.351   4.195  15.240  1.00  0.00     0.018 C 
HETATM    6  C5  UNL     1      -2.686   4.570  14.210  1.00  0.00    -0.019 C 
BRANCH   6   7
HETATM    7  C6  UNL     1      -2.676   3.978  12.856  1.00  0.00     0.029 A 
HETATM    8  C7  UNL     1      -3.725   4.436  11.927  1.00  0.00     0.037 A 
HETATM    9  C8  UNL     1      -4.289   3.737  10.759  1.00  0.00     0.138 C 
HETATM   10  C18 UNL     1      -2.330   4.705  11.730  1.00  0.00     0.021 A 
HETATM   11  C11 UNL     1      -4.231   4.629   9.571  1.00  0.00     0.046 C 
HETATM   12  C12 UNL     1      -4.249   6.085   9.789  1.00  0.00     0.007 C 
HETATM   13  C15 UNL     1      -3.385   6.745  10.743  1.00  0.00     0.046 C 
HETATM   14  C16 UNL     1      -2.164   6.043  11.260  1.00  0.00     0.134 A 
HETATM   15  O5  UNL     1      -1.298   5.604  10.257  1.00  0.00    -0.384 OA
HETATM   16  C17 UNL     1      -1.354   4.298  10.739  1.00  0.00     0.181 A 
BRANCH   9  17
HETATM   17  O1  UNL     1      -3.696   2.478  10.560  1.00  0.00    -0.316 OA
BRANCH  17  18
HETATM   18  C9  UNL     1      -4.267   1.288  10.912  1.00  0.00     0.255 C 
HETATM   19  C10 UNL     1      -4.544   0.831  12.285  1.00  0.00     0.126 C 
HETATM   20  O2  UNL     1      -4.581   0.519   9.949  1.00  0.00    -0.266 OA
ENDBRANCH  17  18
ENDBRANCH   9  17
BRANCH  12  21
HETATM   21  C13 UNL     1      -3.971   6.691   8.394  1.00  0.00     0.175 C 
BRANCH  21  22
HETATM   22  O3  UNL     1      -4.242   5.819   7.374  1.00  0.00    -0.400 OA
ATOM     23  H3  UNL     1      -4.152   4.910   7.635  1.00  0.00     0.209 HD
ENDBRANCH  21  22
ENDBRANCH  12  21
BRANCH  12  24
HETATM   24  C14 UNL     1      -5.710   6.490  10.054  1.00  0.00     0.175 C 
BRANCH  24  25
HETATM   25  O4  UNL     1      -6.567   5.779   9.192  1.00  0.00    -0.400 OA
ATOM     26  H4  UNL     1      -7.311   5.446   9.679  1.00  0.00     0.209 HD
ENDBRANCH  24  25
ENDBRANCH  12  24
ENDBRANCH   6   7
ENDBRANCH   2   5
TORSDOF 8
ENDMDL
