MODEL 1
REMARK VINA RESULT: -5.490749335      0.000      0.000
REMARK  9 active torsions:
REMARK  status: ('A' for Active; 'I' for Inactive)
REMARK    1  A    between atoms: O1_2  and  C2_3 
REMARK    2  A    between atoms: C2_3  and  C3_4 
REMARK    3  A    between atoms: C3_4  and  N1_6 
REMARK    4  A    between atoms: N1_6  and  C4_8 
REMARK    5  A    between atoms: C4_8  and  C5_12 
REMARK    6  A    between atoms: C5_12  and  C6_13 
REMARK    7  A    between atoms: C6_13  and  S2_14 
REMARK    8  A    between atoms: S2_14  and  C7_15 
REMARK    9  A    between atoms: C7_15  and  N3_17 
ROOT
HETATM    1  C5  UNL     1      -1.166   3.800  12.131  1.00  0.00     0.086 C 
ENDROOT
BRANCH   1   2
HETATM    2  C4  UNL     1      -1.632   2.677  11.301  1.00  0.00     0.076 C 
HETATM    3  N2  UNL     1      -1.455   2.680  10.046  1.00  0.00    -0.389 N 
ATOM      4  H22 UNL     1      -1.778   1.901   9.472  1.00  0.00     0.157 HD
ATOM      5  H21 UNL     1      -0.984   3.467   9.600  1.00  0.00     0.157 HD
BRANCH   2   6
HETATM    6  N1  UNL     1      -2.286   1.585  11.920  1.00  0.00    -0.339 N 
ATOM      7  H1  UNL     1      -1.918   1.206  12.793  1.00  0.00     0.168 HD
BRANCH   6   8
HETATM    8  C3  UNL     1      -3.436   1.017  11.347  1.00  0.00     0.102 C 
HETATM    9  S1  UNL     1      -4.827   1.894  11.359  1.00  0.00    -0.063 SA
BRANCH   8  10
HETATM   10  C2  UNL     1      -3.375  -0.337  10.754  1.00  0.00     0.236 C 
BRANCH  10  11
HETATM   11  O1  UNL     1      -3.788  -1.342  11.592  1.00  0.00    -0.389 OA
HETATM   12  C1  UNL     1      -3.023  -2.486  11.515  1.00  0.00     0.202 C 
ENDBRANCH  10  11
ENDBRANCH   8  10
ENDBRANCH   6   8
ENDBRANCH   2   6
ENDBRANCH   1   2
BRANCH   1  13
HETATM   13  C6  UNL     1      -2.382   4.662  12.428  1.00  0.00     0.089 C 
BRANCH  13  14
HETATM   14  S2  UNL     1      -2.868   4.537  14.147  1.00  0.00    -0.100 SA
BRANCH  14  15
HETATM   15  C7  UNL     1      -4.624   4.465  14.380  1.00  0.00     0.136 C 
HETATM   16  S3  UNL     1      -5.558   5.627  13.751  1.00  0.00    -0.053 SA
BRANCH  15  17
HETATM   17  N3  UNL     1      -5.195   3.410  15.099  1.00  0.00    -0.363 N 
HETATM   18  C8  UNL     1      -6.354   3.643  15.921  1.00  0.00     0.154 C 
HETATM   19  C9  UNL     1      -6.770   2.289  16.479  1.00  0.00     0.291 C 
HETATM   20  N4  UNL     1      -5.671   1.705  17.189  1.00  0.00     0.087 N 
HETATM   21  C10 UNL     1      -6.133   0.412  17.712  1.00  0.00     0.310 C 
HETATM   22  C11 UNL     1      -4.463   1.573  16.437  1.00  0.00     0.291 C 
HETATM   23  C12 UNL     1      -4.653   2.075  15.041  1.00  0.00     0.154 C 
ENDBRANCH  15  17
ENDBRANCH  14  15
ENDBRANCH  13  14
ENDBRANCH   1  13
TORSDOF 9
ENDMDL
MODEL 2
REMARK VINA RESULT: -5.340046826      2.311      4.956
REMARK  9 active torsions:
REMARK  status: ('A' for Active; 'I' for Inactive)
REMARK    1  A    between atoms: O1_2  and  C2_3 
REMARK    2  A    between atoms: C2_3  and  C3_4 
REMARK    3  A    between atoms: C3_4  and  N1_6 
REMARK    4  A    between atoms: N1_6  and  C4_8 
REMARK    5  A    between atoms: C4_8  and  C5_12 
REMARK    6  A    between atoms: C5_12  and  C6_13 
REMARK    7  A    between atoms: C6_13  and  S2_14 
REMARK    8  A    between atoms: S2_14  and  C7_15 
REMARK    9  A    between atoms: C7_15  and  N3_17 
ROOT
HETATM    1  C5  UNL     1      -3.293   5.295  13.806  1.00  0.00     0.086 C 
ENDROOT
BRANCH   1   2
HETATM    2  C4  UNL     1      -2.862   4.056  14.474  1.00  0.00     0.076 C 
HETATM    3  N2  UNL     1      -1.801   4.029  15.168  1.00  0.00    -0.389 N 
ATOM      4  H22 UNL     1      -1.503   3.171  15.632  1.00  0.00     0.157 HD
ATOM      5  H21 UNL     1      -1.235   4.872  15.268  1.00  0.00     0.157 HD
BRANCH   2   6
HETATM    6  N1  UNL     1      -3.645   2.886  14.335  1.00  0.00    -0.339 N 
ATOM      7  H1  UNL     1      -3.471   2.253  13.555  1.00  0.00     0.168 HD
BRANCH   6   8
HETATM    8  C3  UNL     1      -4.661   2.587  15.259  1.00  0.00     0.102 C 
HETATM    9  S1  UNL     1      -5.993   3.550  15.290  1.00  0.00    -0.063 SA
BRANCH   8  10
HETATM   10  C2  UNL     1      -4.514   1.431  16.171  1.00  0.00     0.236 C 
BRANCH  10  11
HETATM   11  O1  UNL     1      -5.629   0.637  16.262  1.00  0.00    -0.389 OA
HETATM   12  C1  UNL     1      -6.130   0.516  17.541  1.00  0.00     0.202 C 
ENDBRANCH  10  11
ENDBRANCH   8  10
ENDBRANCH   6   8
ENDBRANCH   2   6
ENDBRANCH   1   2
BRANCH   1  13
HETATM   13  C6  UNL     1      -2.089   5.826  13.045  1.00  0.00     0.089 C 
BRANCH  13  14
HETATM   14  S2  UNL     1      -1.689   4.785  11.644  1.00  0.00    -0.100 SA
BRANCH  14  15
HETATM   15  C7  UNL     1      -3.115   4.124  10.825  1.00  0.00     0.136 C 
HETATM   16  S3  UNL     1      -4.167   5.133  10.121  1.00  0.00    -0.053 SA
BRANCH  15  17
HETATM   17  N3  UNL     1      -3.327   2.742  10.788  1.00  0.00    -0.363 N 
HETATM   18  C8  UNL     1      -4.629   2.205  11.089  1.00  0.00     0.154 C 
HETATM   19  C9  UNL     1      -4.540   0.701  10.865  1.00  0.00     0.291 C 
HETATM   20  N4  UNL     1      -3.492   0.158  11.678  1.00  0.00     0.087 N 
HETATM   21  C10 UNL     1      -3.461  -1.291  11.431  1.00  0.00     0.310 C 
HETATM   22  C11 UNL     1      -2.207   0.756  11.494  1.00  0.00     0.291 C 
HETATM   23  C12 UNL     1      -2.268   1.825  10.450  1.00  0.00     0.154 C 
ENDBRANCH  15  17
ENDBRANCH  14  15
ENDBRANCH  13  14
ENDBRANCH   1  13
TORSDOF 9
ENDMDL
MODEL 3
REMARK VINA RESULT: -5.328270156      2.423      5.273
REMARK  9 active torsions:
REMARK  status: ('A' for Active; 'I' for Inactive)
REMARK    1  A    between atoms: O1_2  and  C2_3 
REMARK    2  A    between atoms: C2_3  and  C3_4 
REMARK    3  A    between atoms: C3_4  and  N1_6 
REMARK    4  A    between atoms: N1_6  and  C4_8 
REMARK    5  A    between atoms: C4_8  and  C5_12 
REMARK    6  A    between atoms: C5_12  and  C6_13 
REMARK    7  A    between atoms: C6_13  and  S2_14 
REMARK    8  A    between atoms: S2_14  and  C7_15 
REMARK    9  A    between atoms: C7_15  and  N3_17 
ROOT
HETATM    1  C5  UNL     1      -3.617   5.063  14.432  1.00  0.00     0.086 C 
ENDROOT
BRANCH   1   2
HETATM    2  C4  UNL     1      -4.427   3.897  14.820  1.00  0.00     0.076 C 
HETATM    3  N2  UNL     1      -5.653   3.825  14.507  1.00  0.00    -0.389 N 
ATOM      4  H22 UNL     1      -6.214   3.017  14.775  1.00  0.00     0.157 HD
ATOM      5  H21 UNL     1      -6.090   4.582  13.980  1.00  0.00     0.157 HD
BRANCH   2   6
HETATM    6  N1  UNL     1      -3.822   2.848  15.552  1.00  0.00    -0.339 N 
ATOM      7  H1  UNL     1      -2.833   2.907  15.794  1.00  0.00     0.168 HD
BRANCH   6   8
HETATM    8  C3  UNL     1      -4.568   1.726  15.949  1.00  0.00     0.102 C 
HETATM    9  S1  UNL     1      -4.479   0.366  15.030  1.00  0.00    -0.063 SA
BRANCH   8  10
HETATM   10  C2  UNL     1      -5.406   1.788  17.167  1.00  0.00     0.236 C 
BRANCH  10  11
HETATM   11  O1  UNL     1      -6.721   2.106  16.934  1.00  0.00    -0.389 OA
HETATM   12  C1  UNL     1      -7.609   1.111  17.283  1.00  0.00     0.202 C 
ENDBRANCH  10  11
ENDBRANCH   8  10
ENDBRANCH   6   8
ENDBRANCH   2   6
ENDBRANCH   1   2
BRANCH   1  13
HETATM   13  C6  UNL     1      -2.246   4.537  14.040  1.00  0.00     0.089 C 
BRANCH  13  14
HETATM   14  S2  UNL     1      -1.986   4.643  12.271  1.00  0.00    -0.100 SA
BRANCH  14  15
HETATM   15  C7  UNL     1      -3.336   4.001  11.319  1.00  0.00     0.136 C 
HETATM   16  S3  UNL     1      -4.416   5.024  10.679  1.00  0.00    -0.053 SA
BRANCH  15  17
HETATM   17  N3  UNL     1      -3.465   2.623  11.121  1.00  0.00    -0.363 N 
HETATM   18  C8  UNL     1      -4.687   1.954  11.483  1.00  0.00     0.154 C 
HETATM   19  C9  UNL     1      -4.530   0.501  11.055  1.00  0.00     0.291 C 
HETATM   20  N4  UNL     1      -3.365  -0.057  11.673  1.00  0.00     0.087 N 
HETATM   21  C10 UNL     1      -3.272  -1.457  11.235  1.00  0.00     0.310 C 
HETATM   22  C11 UNL     1      -2.149   0.655  11.436  1.00  0.00     0.291 C 
HETATM   23  C12 UNL     1      -2.395   1.839  10.555  1.00  0.00     0.154 C 
ENDBRANCH  15  17
ENDBRANCH  14  15
ENDBRANCH  13  14
ENDBRANCH   1  13
TORSDOF 9
ENDMDL
MODEL 4
REMARK VINA RESULT: -5.294369679      2.503      5.390
REMARK  9 active torsions:
REMARK  status: ('A' for Active; 'I' for Inactive)
REMARK    1  A    between atoms: O1_2  and  C2_3 
REMARK    2  A    between atoms: C2_3  and  C3_4 
REMARK    3  A    between atoms: C3_4  and  N1_6 
REMARK    4  A    between atoms: N1_6  and  C4_8 
REMARK    5  A    between atoms: C4_8  and  C5_12 
REMARK    6  A    between atoms: C5_12  and  C6_13 
REMARK    7  A    between atoms: C6_13  and  S2_14 
REMARK    8  A    between atoms: S2_14  and  C7_15 
REMARK    9  A    between atoms: C7_15  and  N3_17 
ROOT
HETATM    1  C5  UNL     1      -4.761   1.891  11.920  1.00  0.00     0.086 C 
ENDROOT
BRANCH   1   2
HETATM    2  C4  UNL     1      -4.415   1.205  13.176  1.00  0.00     0.076 C 
HETATM    3  N2  UNL     1      -4.406  -0.062  13.242  1.00  0.00    -0.389 N 
ATOM      4  H22 UNL     1      -4.166  -0.537  14.111  1.00  0.00     0.157 HD
ATOM      5  H21 UNL     1      -4.641  -0.617  12.419  1.00  0.00     0.157 HD
BRANCH   2   6
HETATM    6  N1  UNL     1      -4.090   1.974  14.317  1.00  0.00    -0.339 N 
ATOM      7  H1  UNL     1      -3.159   2.382  14.402  1.00  0.00     0.168 HD
BRANCH   6   8
HETATM    8  C3  UNL     1      -5.034   2.182  15.337  1.00  0.00     0.102 C 
HETATM    9  S1  UNL     1      -6.024   3.490  15.226  1.00  0.00    -0.063 SA
BRANCH   8  10
HETATM   10  C2  UNL     1      -5.118   1.236  16.472  1.00  0.00     0.236 C 
BRANCH  10  11
HETATM   11  O1  UNL     1      -6.283   0.513  16.521  1.00  0.00    -0.389 OA
HETATM   12  C1  UNL     1      -7.147   0.910  17.519  1.00  0.00     0.202 C 
ENDBRANCH  10  11
ENDBRANCH   8  10
ENDBRANCH   6   8
ENDBRANCH   2   6
ENDBRANCH   1   2
BRANCH   1  13
HETATM   13  C6  UNL     1      -3.886   1.288  10.833  1.00  0.00     0.089 C 
BRANCH  13  14
HETATM   14  S2  UNL     1      -2.167   1.739  11.052  1.00  0.00    -0.100 SA
BRANCH  14  15
HETATM   15  C7  UNL     1      -1.839   3.450  10.725  1.00  0.00     0.136 C 
HETATM   16  S3  UNL     1      -1.201   3.879   9.301  1.00  0.00    -0.053 SA
BRANCH  15  17
HETATM   17  N3  UNL     1      -2.133   4.419  11.690  1.00  0.00    -0.363 N 
HETATM   18  C8  UNL     1      -1.424   4.427  12.943  1.00  0.00     0.154 C 
HETATM   19  C9  UNL     1      -1.911   5.648  13.710  1.00  0.00     0.291 C 
HETATM   20  N4  UNL     1      -3.336   5.585  13.856  1.00  0.00     0.087 N 
HETATM   21  C10 UNL     1      -3.745   6.778  14.611  1.00  0.00     0.310 C 
HETATM   22  C11 UNL     1      -4.067   5.451  12.636  1.00  0.00     0.291 C 
HETATM   23  C12 UNL     1      -3.138   5.428  11.464  1.00  0.00     0.154 C 
ENDBRANCH  15  17
ENDBRANCH  14  15
ENDBRANCH  13  14
ENDBRANCH   1  13
TORSDOF 9
ENDMDL
MODEL 5
REMARK VINA RESULT: -5.099698349      2.435      4.148
REMARK  9 active torsions:
REMARK  status: ('A' for Active; 'I' for Inactive)
REMARK    1  A    between atoms: O1_2  and  C2_3 
REMARK    2  A    between atoms: C2_3  and  C3_4 
REMARK    3  A    between atoms: C3_4  and  N1_6 
REMARK    4  A    between atoms: N1_6  and  C4_8 
REMARK    5  A    between atoms: C4_8  and  C5_12 
REMARK    6  A    between atoms: C5_12  and  C6_13 
REMARK    7  A    between atoms: C6_13  and  S2_14 
REMARK    8  A    between atoms: S2_14  and  C7_15 
REMARK    9  A    between atoms: C7_15  and  N3_17 
ROOT
HETATM    1  C5  UNL     1      -1.747   0.997  11.206  1.00  0.00     0.086 C 
ENDROOT
BRANCH   1   2
HETATM    2  C4  UNL     1      -1.303   2.393  11.062  1.00  0.00     0.076 C 
HETATM    3  N2  UNL     1      -1.573   3.054  10.014  1.00  0.00    -0.389 N 
ATOM      4  H22 UNL     1      -1.265   4.021   9.914  1.00  0.00     0.157 HD
ATOM      5  H21 UNL     1      -2.103   2.619   9.259  1.00  0.00     0.157 HD
BRANCH   2   6
HETATM    6  N1  UNL     1      -0.567   2.996  12.108  1.00  0.00    -0.339 N 
ATOM      7  H1  UNL     1      -0.405   2.480  12.973  1.00  0.00     0.168 HD
BRANCH   6   8
HETATM    8  C3  UNL     1      -0.056   4.297  11.971  1.00  0.00     0.102 C 
HETATM    9  S1  UNL     1       1.416   4.486  11.265  1.00  0.00    -0.063 SA
BRANCH   8  10
HETATM   10  C2  UNL     1      -0.840   5.455  12.456  1.00  0.00     0.236 C 
BRANCH  10  11
HETATM   11  O1  UNL     1      -1.432   5.265  13.680  1.00  0.00    -0.389 OA
HETATM   12  C1  UNL     1      -2.190   6.334  14.108  1.00  0.00     0.202 C 
ENDBRANCH  10  11
ENDBRANCH   8  10
ENDBRANCH   6   8
ENDBRANCH   2   6
ENDBRANCH   1   2
BRANCH   1  13
HETATM   13  C6  UNL     1      -3.222   0.964  10.839  1.00  0.00     0.089 C 
BRANCH  13  14
HETATM   14  S2  UNL     1      -4.248   0.681  12.280  1.00  0.00    -0.100 SA
BRANCH  14  15
HETATM   15  C7  UNL     1      -4.532   2.142  13.242  1.00  0.00     0.136 C 
HETATM   16  S3  UNL     1      -4.465   3.591  12.526  1.00  0.00    -0.053 SA
BRANCH  15  17
HETATM   17  N3  UNL     1      -4.815   2.040  14.608  1.00  0.00    -0.363 N 
HETATM   18  C8  UNL     1      -4.615   0.790  15.294  1.00  0.00     0.154 C 
HETATM   19  C9  UNL     1      -4.923   1.048  16.763  1.00  0.00     0.291 C 
HETATM   20  N4  UNL     1      -6.252   1.567  16.891  1.00  0.00     0.087 N 
HETATM   21  C10 UNL     1      -6.495   1.783  18.324  1.00  0.00     0.310 C 
HETATM   22  C11 UNL     1      -6.524   2.740  16.122  1.00  0.00     0.291 C 
HETATM   23  C12 UNL     1      -5.307   3.166  15.363  1.00  0.00     0.154 C 
ENDBRANCH  15  17
ENDBRANCH  14  15
ENDBRANCH  13  14
ENDBRANCH   1  13
TORSDOF 9
ENDMDL
