MODEL 1
REMARK VINA RESULT: -6.879918116      0.000      0.000
REMARK  6 active torsions:
REMARK  status: ('A' for Active; 'I' for Inactive)
REMARK    1  A    between atoms: N1_1  and  C1_4 
REMARK    2  A    between atoms: C3_9  and  C4_10 
REMARK       I    between atoms: C4_10  and  N4_12 
REMARK    3  A    between atoms: N4_12  and  N5_14 
REMARK    4  A    between atoms: C5_16  and  C6_17 
REMARK    5  A    between atoms: N8_23  and  O2_24 
REMARK    6  A    between atoms: C8_28  and  N10_29 
ROOT
HETATM    1  C4  UNL     1      14.011  51.066 -51.164  1.00  0.00     0.290 C 
HETATM    2  O1  UNL     1      15.175  51.045 -50.693  1.00  0.00    -0.264 OA
HETATM    3  N4  UNL     1      13.818  50.682 -52.505  1.00  0.00    -0.265 N 
ATOM      4  H4  UNL     1      12.881  50.693 -52.908  1.00  0.00     0.190 HD
ENDROOT
BRANCH   1   5
HETATM    5  C3  UNL     1      12.908  51.487 -50.308  1.00  0.00     0.145 A 
HETATM    6  C2  UNL     1      12.286  52.690 -50.551  1.00  0.00     0.150 A 
HETATM    7  N2  UNL     1      11.275  53.037 -49.736  1.00  0.00    -0.326 N 
HETATM    8  N3  UNL     1      12.725  53.497 -51.627  1.00  0.00    -0.080 NA
HETATM    9  C1  UNL     1      10.890  52.253 -48.736  1.00  0.00     0.151 A 
ATOM     10  H2  UNL     1      10.794  53.923 -49.890  1.00  0.00     0.168 HD
HETATM   11  C8  UNL     1      11.521  51.040 -48.493  1.00  0.00     0.218 A 
HETATM   12  N9  UNL     1      12.547  50.671 -49.308  1.00  0.00    -0.327 N 
ATOM     13  H9  UNL     1      13.033  49.787 -49.160  1.00  0.00     0.168 HD
BRANCH   9  14
HETATM   14  N1  UNL     1       9.925  52.560 -47.938  1.00  0.00    -0.382 N 
ATOM     15  H12 UNL     1       9.779  51.931 -47.148  1.00  0.00     0.157 HD
ATOM     16  H11 UNL     1       9.333  53.380 -48.075  1.00  0.00     0.157 HD
ENDBRANCH   9  14
BRANCH  11  17
HETATM   17  N10 UNL     1      11.104  50.212 -47.427  1.00  0.00    -0.094 N 
HETATM   18  O3  UNL     1      11.811  50.111 -46.418  1.00  0.00    -0.530 OA
HETATM   19  O4  UNL     1       9.931  49.527 -47.505  1.00  0.00    -0.530 OA
ENDBRANCH  11  17
ENDBRANCH   1   5
BRANCH   3  20
HETATM   20  N5  UNL     1      14.897  50.291 -53.277  1.00  0.00    -0.305 N 
HETATM   21  C5  UNL     1      14.860  49.166 -53.882  1.00  0.00     0.159 C 
ATOM     22  H5  UNL     1      15.714  50.896 -53.363  1.00  0.00     0.186 HD
BRANCH  21  23
HETATM   23  C6  UNL     1      15.990  48.755 -54.692  1.00  0.00     0.169 A 
HETATM   24  N6  UNL     1      17.269  48.823 -54.321  1.00  0.00    -0.333 N 
HETATM   25  C7  UNL     1      18.021  48.355 -55.329  1.00  0.00     0.201 A 
ATOM     26  H6  UNL     1      17.616  49.171 -53.426  1.00  0.00     0.168 HD
HETATM   27  N7  UNL     1      17.190  47.996 -56.333  1.00  0.00    -0.268 N 
HETATM   28  N8  UNL     1      15.960  48.238 -55.946  1.00  0.00    -0.144 N 
ATOM     29  H7  UNL     1      17.469  47.604 -57.232  1.00  0.00     0.190 HD
BRANCH  28  30
HETATM   30  O2  UNL     1      14.804  48.021 -56.657  1.00  0.00    -0.266 OA
ATOM     31  H2  UNL     1      14.544  47.175 -57.000  1.00  0.00     0.247 HD
ENDBRANCH  28  30
ENDBRANCH  21  23
ENDBRANCH   3  20
TORSDOF 6
ENDMDL
MODEL 2
REMARK VINA RESULT: -6.871648091      2.055      2.486
REMARK  6 active torsions:
REMARK  status: ('A' for Active; 'I' for Inactive)
REMARK    1  A    between atoms: N1_1  and  C1_4 
REMARK    2  A    between atoms: C3_9  and  C4_10 
REMARK       I    between atoms: C4_10  and  N4_12 
REMARK    3  A    between atoms: N4_12  and  N5_14 
REMARK    4  A    between atoms: C5_16  and  C6_17 
REMARK    5  A    between atoms: N8_23  and  O2_24 
REMARK    6  A    between atoms: C8_28  and  N10_29 
ROOT
HETATM    1  C4  UNL     1      13.494  50.337 -50.509  1.00  0.00     0.290 C 
HETATM    2  O1  UNL     1      12.927  51.199 -51.226  1.00  0.00    -0.264 OA
HETATM    3  N4  UNL     1      14.266  49.341 -51.136  1.00  0.00    -0.265 N 
ATOM      4  H4  UNL     1      14.735  48.631 -50.573  1.00  0.00     0.190 HD
ENDROOT
BRANCH   1   5
HETATM    5  C3  UNL     1      13.329  50.401 -49.062  1.00  0.00     0.145 A 
HETATM    6  C2  UNL     1      14.400  50.765 -48.277  1.00  0.00     0.150 A 
HETATM    7  N2  UNL     1      14.203  50.810 -46.948  1.00  0.00    -0.326 N 
HETATM    8  N3  UNL     1      15.639  51.072 -48.886  1.00  0.00    -0.080 NA
HETATM    9  C1  UNL     1      13.024  50.516 -46.411  1.00  0.00     0.151 A 
ATOM     10  H2  UNL     1      14.976  51.077 -46.339  1.00  0.00     0.168 HD
HETATM   11  C8  UNL     1      11.947  50.148 -47.207  1.00  0.00     0.218 A 
HETATM   12  N9  UNL     1      12.127  50.097 -48.555  1.00  0.00    -0.327 N 
ATOM     13  H9  UNL     1      11.358  49.831 -49.170  1.00  0.00     0.168 HD
BRANCH   9  14
HETATM   14  N1  UNL     1      12.806  50.550 -45.142  1.00  0.00    -0.382 N 
ATOM     15  H12 UNL     1      12.387  49.713 -44.736  1.00  0.00     0.157 HD
ATOM     16  H11 UNL     1      13.033  51.359 -44.562  1.00  0.00     0.157 HD
ENDBRANCH   9  14
BRANCH  11  17
HETATM   17  N10 UNL     1      10.696  49.837 -46.627  1.00  0.00    -0.094 N 
HETATM   18  O3  UNL     1      10.642  49.051 -45.675  1.00  0.00    -0.530 OA
HETATM   19  O4  UNL     1       9.555  50.397 -47.112  1.00  0.00    -0.530 OA
ENDBRANCH  11  17
ENDBRANCH   1   5
BRANCH   3  20
HETATM   20  N5  UNL     1      14.391  49.323 -52.513  1.00  0.00    -0.305 N 
HETATM   21  C5  UNL     1      15.195  48.492 -53.059  1.00  0.00     0.159 C 
ATOM     22  H5  UNL     1      13.846  49.966 -53.088  1.00  0.00     0.186 HD
BRANCH  21  23
HETATM   23  C6  UNL     1      15.327  48.472 -54.503  1.00  0.00     0.169 A 
HETATM   24  N6  UNL     1      16.481  48.512 -55.172  1.00  0.00    -0.333 N 
HETATM   25  C7  UNL     1      16.203  48.476 -56.484  1.00  0.00     0.201 A 
ATOM     26  H6  UNL     1      17.412  48.562 -54.757  1.00  0.00     0.168 HD
HETATM   27  N7  UNL     1      14.859  48.414 -56.621  1.00  0.00    -0.268 N 
HETATM   28  N8  UNL     1      14.330  48.412 -55.420  1.00  0.00    -0.144 N 
ATOM     29  H7  UNL     1      14.347  48.375 -57.502  1.00  0.00     0.190 HD
BRANCH  28  30
HETATM   30  O2  UNL     1      12.996  48.358 -55.097  1.00  0.00    -0.266 OA
ATOM     31  H2  UNL     1      12.348  47.879 -55.601  1.00  0.00     0.247 HD
ENDBRANCH  28  30
ENDBRANCH  21  23
ENDBRANCH   3  20
TORSDOF 6
ENDMDL
MODEL 3
REMARK VINA RESULT: -6.870154719      2.521      8.298
REMARK  6 active torsions:
REMARK  status: ('A' for Active; 'I' for Inactive)
REMARK    1  A    between atoms: N1_1  and  C1_4 
REMARK    2  A    between atoms: C3_9  and  C4_10 
REMARK       I    between atoms: C4_10  and  N4_12 
REMARK    3  A    between atoms: N4_12  and  N5_14 
REMARK    4  A    between atoms: C5_16  and  C6_17 
REMARK    5  A    between atoms: N8_23  and  O2_24 
REMARK    6  A    between atoms: C8_28  and  N10_29 
ROOT
HETATM    1  C4  UNL     1      15.129  48.917 -52.188  1.00  0.00     0.290 C 
HETATM    2  O1  UNL     1      16.037  48.420 -51.475  1.00  0.00    -0.264 OA
HETATM    3  N4  UNL     1      13.981  49.432 -51.557  1.00  0.00    -0.265 N 
ATOM      4  H4  UNL     1      13.231  49.839 -52.116  1.00  0.00     0.190 HD
ENDROOT
BRANCH   1   5
HETATM    5  C3  UNL     1      15.299  48.941 -53.636  1.00  0.00     0.145 A 
HETATM    6  C2  UNL     1      14.390  48.283 -54.433  1.00  0.00     0.150 A 
HETATM    7  N2  UNL     1      14.586  48.332 -55.762  1.00  0.00    -0.326 N 
HETATM    8  N3  UNL     1      13.307  47.597 -53.836  1.00  0.00    -0.080 NA
HETATM    9  C1  UNL     1      15.615  48.987 -56.288  1.00  0.00     0.151 A 
ATOM     10  H2  UNL     1      13.931  47.854 -56.380  1.00  0.00     0.168 HD
HETATM   11  C8  UNL     1      16.531  49.649 -55.480  1.00  0.00     0.218 A 
HETATM   12  N9  UNL     1      16.348  49.611 -54.132  1.00  0.00    -0.327 N 
ATOM     13  H9  UNL     1      17.001  50.086 -53.508  1.00  0.00     0.168 HD
BRANCH   9  14
HETATM   14  N1  UNL     1      15.829  49.050 -57.557  1.00  0.00    -0.382 N 
ATOM     15  H12 UNL     1      15.965  48.159 -58.034  1.00  0.00     0.157 HD
ATOM     16  H11 UNL     1      15.863  49.932 -58.069  1.00  0.00     0.157 HD
ENDBRANCH   9  14
BRANCH  11  17
HETATM   17  N10 UNL     1      17.622  50.343 -56.048  1.00  0.00    -0.094 N 
HETATM   18  O3  UNL     1      17.526  51.555 -56.275  1.00  0.00    -0.530 OA
HETATM   19  O4  UNL     1      18.776  49.686 -56.345  1.00  0.00    -0.530 OA
ENDBRANCH  11  17
ENDBRANCH   1   5
BRANCH   3  20
HETATM   20  N5  UNL     1      13.866  49.385 -50.179  1.00  0.00    -0.305 N 
HETATM   21  C5  UNL     1      13.798  50.478 -49.519  1.00  0.00     0.159 C 
ATOM     22  H5  UNL     1      13.836  48.488 -49.695  1.00  0.00     0.186 HD
BRANCH  21  23
HETATM   23  C6  UNL     1      13.678  50.431 -48.074  1.00  0.00     0.169 A 
HETATM   24  N6  UNL     1      14.462  49.723 -47.259  1.00  0.00    -0.333 N 
HETATM   25  C7  UNL     1      14.047  49.931 -45.999  1.00  0.00     0.201 A 
ATOM     26  H6  UNL     1      15.240  49.128 -47.543  1.00  0.00     0.168 HD
HETATM   27  N7  UNL     1      12.994  50.777 -46.045  1.00  0.00    -0.268 N 
HETATM   28  N8  UNL     1      12.772  51.079 -47.302  1.00  0.00    -0.144 N 
ATOM     29  H7  UNL     1      12.465  51.121 -45.243  1.00  0.00     0.190 HD
BRANCH  28  30
HETATM   30  O2  UNL     1      11.796  51.909 -47.800  1.00  0.00    -0.266 OA
ATOM     31  H2  UNL     1      10.877  51.675 -47.852  1.00  0.00     0.247 HD
ENDBRANCH  28  30
ENDBRANCH  21  23
ENDBRANCH   3  20
TORSDOF 6
ENDMDL
MODEL 4
REMARK VINA RESULT: -6.786165416      2.197      7.972
REMARK  6 active torsions:
REMARK  status: ('A' for Active; 'I' for Inactive)
REMARK    1  A    between atoms: N1_1  and  C1_4 
REMARK    2  A    between atoms: C3_9  and  C4_10 
REMARK       I    between atoms: C4_10  and  N4_12 
REMARK    3  A    between atoms: N4_12  and  N5_14 
REMARK    4  A    between atoms: C5_16  and  C6_17 
REMARK    5  A    between atoms: N8_23  and  O2_24 
REMARK    6  A    between atoms: C8_28  and  N10_29 
ROOT
HETATM    1  C4  UNL     1      13.763  49.917 -51.643  1.00  0.00     0.290 C 
HETATM    2  O1  UNL     1      12.579  49.513 -51.764  1.00  0.00    -0.264 OA
HETATM    3  N4  UNL     1      14.294  50.072 -50.349  1.00  0.00    -0.265 N 
ATOM      4  H4  UNL     1      15.253  50.399 -50.227  1.00  0.00     0.190 HD
ENDROOT
BRANCH   1   5
HETATM    5  C3  UNL     1      14.536  50.211 -52.844  1.00  0.00     0.145 A 
HETATM    6  C2  UNL     1      15.137  51.442 -52.975  1.00  0.00     0.150 A 
HETATM    7  N2  UNL     1      15.839  51.669 -54.098  1.00  0.00    -0.326 N 
HETATM    8  N3  UNL     1      14.995  52.401 -51.944  1.00  0.00    -0.080 NA
HETATM    9  C1  UNL     1      15.952  50.744 -55.045  1.00  0.00     0.151 A 
ATOM     10  H2  UNL     1      16.296  52.571 -54.226  1.00  0.00     0.168 HD
HETATM   11  C8  UNL     1      15.344  49.503 -54.909  1.00  0.00     0.218 A 
HETATM   12  N9  UNL     1      14.628  49.255 -53.778  1.00  0.00    -0.327 N 
ATOM     13  H9  UNL     1      14.168  48.354 -53.644  1.00  0.00     0.168 HD
BRANCH   9  14
HETATM   14  N1  UNL     1      16.618  50.933 -56.132  1.00  0.00    -0.382 N 
ATOM     15  H12 UNL     1      17.487  50.406 -56.222  1.00  0.00     0.157 HD
ATOM     16  H11 UNL     1      16.308  51.567 -56.868  1.00  0.00     0.157 HD
ENDBRANCH   9  14
BRANCH  11  17
HETATM   17  N10 UNL     1      15.469  48.525 -55.921  1.00  0.00    -0.094 N 
HETATM   18  O3  UNL     1      14.540  48.346 -56.717  1.00  0.00    -0.530 OA
HETATM   19  O4  UNL     1      16.604  47.781 -56.022  1.00  0.00    -0.530 OA
ENDBRANCH  11  17
ENDBRANCH   1   5
BRANCH   3  20
HETATM   20  N5  UNL     1      13.519  49.780 -49.241  1.00  0.00    -0.305 N 
HETATM   21  C5  UNL     1      13.452  50.624 -48.283  1.00  0.00     0.159 C 
ATOM     22  H5  UNL     1      13.006  48.900 -49.189  1.00  0.00     0.186 HD
BRANCH  21  23
HETATM   23  C6  UNL     1      12.640  50.320 -47.121  1.00  0.00     0.169 A 
HETATM   24  N6  UNL     1      13.092  50.228 -45.869  1.00  0.00    -0.333 N 
HETATM   25  C7  UNL     1      12.052  49.934 -45.072  1.00  0.00     0.201 A 
ATOM     26  H6  UNL     1      14.058  50.358 -45.569  1.00  0.00     0.168 HD
HETATM   27  N7  UNL     1      10.949  49.844 -45.848  1.00  0.00    -0.268 N 
HETATM   28  N8  UNL     1      11.307  50.078 -47.089  1.00  0.00    -0.144 N 
ATOM     29  H7  UNL     1      10.005  49.631 -45.527  1.00  0.00     0.190 HD
BRANCH  28  30
HETATM   30  O2  UNL     1      10.500  50.088 -48.201  1.00  0.00    -0.266 OA
ATOM     31  H2  UNL     1       9.635  49.695 -48.232  1.00  0.00     0.247 HD
ENDBRANCH  28  30
ENDBRANCH  21  23
ENDBRANCH   3  20
TORSDOF 6
ENDMDL
MODEL 5
REMARK VINA RESULT: -6.752483475      2.647      8.398
REMARK  6 active torsions:
REMARK  status: ('A' for Active; 'I' for Inactive)
REMARK    1  A    between atoms: N1_1  and  C1_4 
REMARK    2  A    between atoms: C3_9  and  C4_10 
REMARK       I    between atoms: C4_10  and  N4_12 
REMARK    3  A    between atoms: N4_12  and  N5_14 
REMARK    4  A    between atoms: C5_16  and  C6_17 
REMARK    5  A    between atoms: N8_23  and  O2_24 
REMARK    6  A    between atoms: C8_28  and  N10_29 
ROOT
HETATM    1  C4  UNL     1      14.397  49.317 -50.785  1.00  0.00     0.290 C 
HETATM    2  O1  UNL     1      13.421  48.709 -51.292  1.00  0.00    -0.264 OA
HETATM    3  N4  UNL     1      14.144  50.397 -49.919  1.00  0.00    -0.265 N 
ATOM      4  H4  UNL     1      14.921  50.905 -49.497  1.00  0.00     0.190 HD
ENDROOT
BRANCH   1   5
HETATM    5  C3  UNL     1      15.750  48.882 -51.114  1.00  0.00     0.145 A 
HETATM    6  C2  UNL     1      16.517  48.276 -50.146  1.00  0.00     0.150 A 
HETATM    7  N2  UNL     1      17.758  47.892 -50.493  1.00  0.00    -0.326 N 
HETATM    8  N3  UNL     1      15.983  48.084 -48.850  1.00  0.00    -0.080 NA
HETATM    9  C1  UNL     1      18.226  48.088 -51.721  1.00  0.00     0.151 A 
ATOM     10  H2  UNL     1      18.352  47.441 -49.799  1.00  0.00     0.168 HD
HETATM   11  C8  UNL     1      17.449  48.701 -52.695  1.00  0.00     0.218 A 
HETATM   12  N9  UNL     1      16.190  49.097 -52.361  1.00  0.00    -0.327 N 
ATOM     13  H9  UNL     1      15.590  49.550 -53.051  1.00  0.00     0.168 HD
BRANCH   9  14
HETATM   14  N1  UNL     1      19.411  47.732 -52.083  1.00  0.00    -0.382 N 
ATOM     15  H12 UNL     1      19.520  47.468 -53.062  1.00  0.00     0.157 HD
ATOM     16  H11 UNL     1      20.203  47.710 -51.440  1.00  0.00     0.157 HD
ENDBRANCH   9  14
BRANCH  11  17
HETATM   17  N10 UNL     1      17.955  48.906 -53.998  1.00  0.00    -0.094 N 
HETATM   18  O3  UNL     1      17.666  48.111 -54.899  1.00  0.00    -0.530 OA
HETATM   19  O4  UNL     1      18.758  49.972 -54.264  1.00  0.00    -0.530 OA
ENDBRANCH  11  17
ENDBRANCH   1   5
BRANCH   3  20
HETATM   20  N5  UNL     1      12.842  50.771 -49.638  1.00  0.00    -0.305 N 
HETATM   21  C5  UNL     1      12.402  50.663 -48.443  1.00  0.00     0.159 C 
ATOM     22  H5  UNL     1      12.239  51.131 -50.378  1.00  0.00     0.186 HD
BRANCH  21  23
HETATM   23  C6  UNL     1      11.038  51.055 -48.147  1.00  0.00     0.169 A 
HETATM   24  N6  UNL     1      10.507  52.251 -48.405  1.00  0.00    -0.333 N 
HETATM   25  C7  UNL     1       9.230  52.238 -47.992  1.00  0.00     0.201 A 
ATOM     26  H6  UNL     1      10.988  53.039 -48.840  1.00  0.00     0.168 HD
HETATM   27  N7  UNL     1       8.976  51.016 -47.473  1.00  0.00    -0.268 N 
HETATM   28  N8  UNL     1      10.072  50.300 -47.568  1.00  0.00    -0.144 N 
ATOM     29  H7  UNL     1       8.089  50.704 -47.079  1.00  0.00     0.190 HD
BRANCH  28  30
HETATM   30  O2  UNL     1      10.256  49.001 -47.162  1.00  0.00    -0.266 OA
ATOM     31  H2  UNL     1      11.003  48.469 -47.409  1.00  0.00     0.247 HD
ENDBRANCH  28  30
ENDBRANCH  21  23
ENDBRANCH   3  20
TORSDOF 6
ENDMDL
