MODEL 1
REMARK VINA RESULT: -7.017378283      0.000      0.000
REMARK  5 active torsions:
REMARK  status: ('A' for Active; 'I' for Inactive)
REMARK    1  A    between atoms: C2_2  and  N1_3 
REMARK    2  A    between atoms: C2_2  and  C12_22 
REMARK    3  A    between atoms: C3_5  and  C4_6 
REMARK    4  A    between atoms: C5_7  and  O1_8 
REMARK    5  A    between atoms: C8_14  and  C9_15 
REMARK       I    between atoms: C9_15  and  N4_17 
ROOT
HETATM    1  C9  UNL     1      16.579  50.097 -57.755  1.00  0.00     0.344 C 
HETATM    2  O2  UNL     1      17.314  49.101 -58.089  1.00  0.00    -0.250 OA
HETATM    3  N4  UNL     1      16.114  51.084 -58.562  1.00  0.00    -0.287 NA
HETATM    4  C10 UNL     1      15.667  52.032 -59.338  1.00  0.00     0.272 C 
HETATM    5  N5  UNL     1      15.262  52.877 -59.977  1.00  0.00    -0.156 NA
ENDROOT
BRANCH   1   6
HETATM    6  C8  UNL     1      16.218  50.140 -56.320  1.00  0.00     0.139 A 
HETATM    7  C7  UNL     1      15.279  49.236 -55.813  1.00  0.00     0.141 A 
HETATM    8  N2  UNL     1      14.910  49.219 -54.527  1.00  0.00    -0.319 N 
HETATM    9  N3  UNL     1      14.700  48.302 -56.726  1.00  0.00    -0.081 NA
HETATM   10  C5  UNL     1      15.444  50.098 -53.652  1.00  0.00     0.159 A 
HETATM   11  C6  UNL     1      13.934  48.237 -54.113  1.00  0.00     0.159 C 
HETATM   12  C4  UNL     1      16.367  51.009 -54.087  1.00  0.00     0.081 A 
HETATM   13  C11 UNL     1      16.755  51.024 -55.439  1.00  0.00     0.208 A 
HETATM   14  O3  UNL     1      17.605  51.880 -55.773  1.00  0.00    -0.286 OA
BRANCH  10  15
HETATM   15  O1  UNL     1      15.027  50.046 -52.311  1.00  0.00    -0.345 OA
ATOM     16  H1  UNL     1      14.257  49.558 -52.043  1.00  0.00     0.219 HD
ENDBRANCH  10  15
BRANCH  12  17
HETATM   17  C3  UNL     1      16.951  51.969 -53.169  1.00  0.00     0.103 C 
HETATM   18  N1  UNL     1      16.186  52.657 -52.393  1.00  0.00    -0.384 N 
ATOM     19  H1  UNL     1      15.178  52.510 -52.445  1.00  0.00     0.159 HD
BRANCH  18  20
HETATM   20  C2  UNL     1      16.691  53.617 -51.464  1.00  0.00     0.178 C 
HETATM   21  C1  UNL     1      17.551  52.859 -50.479  1.00  0.00     0.043 C 
BRANCH  20  22
HETATM   22  C12 UNL     1      15.588  54.321 -50.815  1.00  0.00     0.196 C 
HETATM   23  O4  UNL     1      14.407  54.088 -51.241  1.00  0.00    -0.646 OA
HETATM   24  O5  UNL     1      15.719  55.211 -49.780  1.00  0.00    -0.646 OA
ENDBRANCH  20  22
ENDBRANCH  18  20
ENDBRANCH  12  17
ENDBRANCH   1   6
TORSDOF 5
ENDMDL
MODEL 2
REMARK VINA RESULT: -6.978936469      4.039      5.422
REMARK  5 active torsions:
REMARK  status: ('A' for Active; 'I' for Inactive)
REMARK    1  A    between atoms: C2_2  and  N1_3 
REMARK    2  A    between atoms: C2_2  and  C12_22 
REMARK    3  A    between atoms: C3_5  and  C4_6 
REMARK    4  A    between atoms: C5_7  and  O1_8 
REMARK    5  A    between atoms: C8_14  and  C9_15 
REMARK       I    between atoms: C9_15  and  N4_17 
ROOT
HETATM    1  C9  UNL     1      14.227  47.797 -53.603  1.00  0.00     0.344 C 
HETATM    2  O2  UNL     1      13.591  46.730 -53.292  1.00  0.00    -0.250 OA
HETATM    3  N4  UNL     1      14.507  48.254 -54.850  1.00  0.00    -0.287 NA
HETATM    4  C10 UNL     1      14.775  48.694 -56.048  1.00  0.00     0.272 C 
HETATM    5  N5  UNL     1      15.032  49.108 -57.072  1.00  0.00    -0.156 NA
ENDROOT
BRANCH   1   6
HETATM    6  C8  UNL     1      14.694  48.595 -52.446  1.00  0.00     0.139 A 
HETATM    7  C7  UNL     1      16.065  48.740 -52.212  1.00  0.00     0.141 A 
HETATM    8  N2  UNL     1      16.554  49.449 -51.188  1.00  0.00    -0.319 N 
HETATM    9  N3  UNL     1      16.963  48.095 -53.116  1.00  0.00    -0.081 NA
HETATM   10  C5  UNL     1      15.719  50.062 -50.321  1.00  0.00     0.159 A 
HETATM   11  C6  UNL     1      17.990  49.537 -51.046  1.00  0.00     0.159 C 
HETATM   12  C4  UNL     1      14.367  49.955 -50.496  1.00  0.00     0.081 A 
HETATM   13  C11 UNL     1      13.855  49.211 -51.575  1.00  0.00     0.208 A 
HETATM   14  O3  UNL     1      12.609  49.154 -51.679  1.00  0.00    -0.286 OA
BRANCH  10  15
HETATM   15  O1  UNL     1      16.276  50.795 -49.260  1.00  0.00    -0.345 OA
ATOM     16  H1  UNL     1      16.884  51.510 -49.407  1.00  0.00     0.219 HD
ENDBRANCH  10  15
BRANCH  12  17
HETATM   17  C3  UNL     1      13.448  50.598 -49.575  1.00  0.00     0.103 C 
HETATM   18  N1  UNL     1      13.368  50.182 -48.358  1.00  0.00    -0.384 N 
ATOM     19  H1  UNL     1      13.957  49.402 -48.069  1.00  0.00     0.159 HD
BRANCH  18  20
HETATM   20  C2  UNL     1      12.489  50.769 -47.398  1.00  0.00     0.178 C 
HETATM   21  C1  UNL     1      12.991  50.353 -46.034  1.00  0.00     0.043 C 
BRANCH  20  22
HETATM   22  C12 UNL     1      11.115  50.336 -47.642  1.00  0.00     0.196 C 
HETATM   23  O4  UNL     1      10.302  51.194 -48.125  1.00  0.00    -0.646 OA
HETATM   24  O5  UNL     1      10.628  49.077 -47.396  1.00  0.00    -0.646 OA
ENDBRANCH  20  22
ENDBRANCH  18  20
ENDBRANCH  12  17
ENDBRANCH   1   6
TORSDOF 5
ENDMDL
MODEL 3
REMARK VINA RESULT: -6.973421871      3.944      5.390
REMARK  5 active torsions:
REMARK  status: ('A' for Active; 'I' for Inactive)
REMARK    1  A    between atoms: C2_2  and  N1_3 
REMARK    2  A    between atoms: C2_2  and  C12_22 
REMARK    3  A    between atoms: C3_5  and  C4_6 
REMARK    4  A    between atoms: C5_7  and  O1_8 
REMARK    5  A    between atoms: C8_14  and  C9_15 
REMARK       I    between atoms: C9_15  and  N4_17 
ROOT
HETATM    1  C9  UNL     1      13.990  47.757 -53.740  1.00  0.00     0.344 C 
HETATM    2  O2  UNL     1      13.415  46.664 -53.398  1.00  0.00    -0.250 OA
HETATM    3  N4  UNL     1      14.425  48.105 -54.977  1.00  0.00    -0.287 NA
HETATM    4  C10 UNL     1      14.843  48.441 -56.167  1.00  0.00     0.272 C 
HETATM    5  N5  UNL     1      15.223  48.768 -57.183  1.00  0.00    -0.156 NA
ENDROOT
BRANCH   1   6
HETATM    6  C8  UNL     1      14.183  48.722 -52.634  1.00  0.00     0.139 A 
HETATM    7  C7  UNL     1      15.412  48.777 -51.969  1.00  0.00     0.141 A 
HETATM    8  N2  UNL     1      15.655  49.626 -50.964  1.00  0.00    -0.319 N 
HETATM    9  N3  UNL     1      16.437  47.878 -52.395  1.00  0.00    -0.081 NA
HETATM   10  C5  UNL     1      14.696  50.481 -50.546  1.00  0.00     0.159 A 
HETATM   11  C6  UNL     1      16.964  49.600 -50.353  1.00  0.00     0.159 C 
HETATM   12  C4  UNL     1      13.472  50.474 -51.156  1.00  0.00     0.081 A 
HETATM   13  C11 UNL     1      13.220  49.581 -52.213  1.00  0.00     0.208 A 
HETATM   14  O3  UNL     1      12.080  49.626 -52.730  1.00  0.00    -0.286 OA
BRANCH  10  15
HETATM   15  O1  UNL     1      14.994  51.355 -49.487  1.00  0.00    -0.345 OA
ATOM     16  H1  UNL     1      15.863  51.407 -49.107  1.00  0.00     0.219 HD
ENDBRANCH  10  15
BRANCH  12  17
HETATM   17  C3  UNL     1      12.422  51.376 -50.720  1.00  0.00     0.103 C 
HETATM   18  N1  UNL     1      11.909  51.239 -49.546  1.00  0.00    -0.384 N 
ATOM     19  H1  UNL     1      12.255  50.492 -48.946  1.00  0.00     0.159 HD
BRANCH  18  20
HETATM   20  C2  UNL     1      10.875  52.092 -49.052  1.00  0.00     0.178 C 
HETATM   21  C1  UNL     1      11.558  53.263 -48.383  1.00  0.00     0.043 C 
BRANCH  20  22
HETATM   22  C12 UNL     1      10.008  51.355 -48.137  1.00  0.00     0.196 C 
HETATM   23  O4  UNL     1      10.434  50.237 -47.690  1.00  0.00    -0.646 OA
HETATM   24  O5  UNL     1       8.770  51.771 -47.715  1.00  0.00    -0.646 OA
ENDBRANCH  20  22
ENDBRANCH  18  20
ENDBRANCH  12  17
ENDBRANCH   1   6
TORSDOF 5
ENDMDL
MODEL 4
REMARK VINA RESULT: -6.910559787      2.402      5.988
REMARK  5 active torsions:
REMARK  status: ('A' for Active; 'I' for Inactive)
REMARK    1  A    between atoms: C2_2  and  N1_3 
REMARK    2  A    between atoms: C2_2  and  C12_22 
REMARK    3  A    between atoms: C3_5  and  C4_6 
REMARK    4  A    between atoms: C5_7  and  O1_8 
REMARK    5  A    between atoms: C8_14  and  C9_15 
REMARK       I    between atoms: C9_15  and  N4_17 
ROOT
HETATM    1  C9  UNL     1      14.841  52.000 -51.914  1.00  0.00     0.344 C 
HETATM    2  O2  UNL     1      15.706  51.890 -50.975  1.00  0.00    -0.250 OA
HETATM    3  N4  UNL     1      13.854  52.926 -52.018  1.00  0.00    -0.287 NA
HETATM    4  C10 UNL     1      12.905  53.815 -52.118  1.00  0.00     0.272 C 
HETATM    5  N5  UNL     1      12.066  54.568 -52.241  1.00  0.00    -0.156 NA
ENDROOT
BRANCH   1   6
HETATM    6  C8  UNL     1      14.963  50.987 -52.986  1.00  0.00     0.139 A 
HETATM    7  C7  UNL     1      14.374  49.729 -52.822  1.00  0.00     0.141 A 
HETATM    8  N2  UNL     1      14.443  48.769 -53.752  1.00  0.00    -0.319 N 
HETATM    9  N3  UNL     1      13.673  49.480 -51.603  1.00  0.00    -0.081 NA
HETATM   10  C5  UNL     1      15.105  48.986 -54.909  1.00  0.00     0.159 A 
HETATM   11  C6  UNL     1      13.792  47.509 -53.478  1.00  0.00     0.159 C 
HETATM   12  C4  UNL     1      15.704  50.196 -55.128  1.00  0.00     0.081 A 
HETATM   13  C11 UNL     1      15.628  51.205 -54.150  1.00  0.00     0.208 A 
HETATM   14  O3  UNL     1      16.196  52.289 -54.412  1.00  0.00    -0.286 OA
BRANCH  10  15
HETATM   15  O1  UNL     1      15.154  47.950 -55.857  1.00  0.00    -0.345 OA
ATOM     16  H1  UNL     1      14.555  47.914 -56.594  1.00  0.00     0.219 HD
ENDBRANCH  10  15
BRANCH  12  17
HETATM   17  C3  UNL     1      16.427  50.453 -56.360  1.00  0.00     0.103 C 
HETATM   18  N1  UNL     1      15.958  51.298 -57.212  1.00  0.00    -0.384 N 
ATOM     19  H1  UNL     1      15.079  51.770 -56.999  1.00  0.00     0.159 HD
BRANCH  18  20
HETATM   20  C2  UNL     1      16.617  51.601 -58.442  1.00  0.00     0.178 C 
HETATM   21  C1  UNL     1      17.684  52.624 -58.125  1.00  0.00     0.043 C 
BRANCH  20  22
HETATM   22  C12 UNL     1      15.653  52.087 -59.425  1.00  0.00     0.196 C 
HETATM   23  O4  UNL     1      15.008  51.216 -60.102  1.00  0.00    -0.646 OA
HETATM   24  O5  UNL     1      15.380  53.408 -59.678  1.00  0.00    -0.646 OA
ENDBRANCH  20  22
ENDBRANCH  18  20
ENDBRANCH  12  17
ENDBRANCH   1   6
TORSDOF 5
ENDMDL
MODEL 5
REMARK VINA RESULT: -6.903821423      3.799      6.213
REMARK  5 active torsions:
REMARK  status: ('A' for Active; 'I' for Inactive)
REMARK    1  A    between atoms: C2_2  and  N1_3 
REMARK    2  A    between atoms: C2_2  and  C12_22 
REMARK    3  A    between atoms: C3_5  and  C4_6 
REMARK    4  A    between atoms: C5_7  and  O1_8 
REMARK    5  A    between atoms: C8_14  and  C9_15 
REMARK       I    between atoms: C9_15  and  N4_17 
ROOT
HETATM    1  C9  UNL     1      14.151  48.094 -53.351  1.00  0.00     0.344 C 
HETATM    2  O2  UNL     1      13.719  46.929 -53.665  1.00  0.00    -0.250 OA
HETATM    3  N4  UNL     1      13.583  48.978 -52.492  1.00  0.00    -0.287 NA
HETATM    4  C10 UNL     1      13.037  49.828 -51.666  1.00  0.00     0.272 C 
HETATM    5  N5  UNL     1      12.594  50.596 -50.960  1.00  0.00    -0.156 NA
ENDROOT
BRANCH   1   6
HETATM    6  C8  UNL     1      15.413  48.483 -54.020  1.00  0.00     0.139 A 
HETATM    7  C7  UNL     1      16.623  48.392 -53.325  1.00  0.00     0.141 A 
HETATM    8  N2  UNL     1      17.799  48.724 -53.870  1.00  0.00    -0.319 N 
HETATM    9  N3  UNL     1      16.578  47.924 -51.976  1.00  0.00    -0.081 NA
HETATM   10  C5  UNL     1      17.859  49.172 -55.143  1.00  0.00     0.159 A 
HETATM   11  C6  UNL     1      18.987  48.585 -53.060  1.00  0.00     0.159 C 
HETATM   12  C4  UNL     1      16.708  49.285 -55.875  1.00  0.00     0.081 A 
HETATM   13  C11 UNL     1      15.473  48.933 -55.300  1.00  0.00     0.208 A 
HETATM   14  O3  UNL     1      14.459  49.058 -56.022  1.00  0.00    -0.286 OA
BRANCH  10  15
HETATM   15  O1  UNL     1      19.114  49.511 -55.676  1.00  0.00    -0.345 OA
ATOM     16  H1  UNL     1      19.912  49.440 -55.165  1.00  0.00     0.219 HD
ENDBRANCH  10  15
BRANCH  12  17
HETATM   17  C3  UNL     1      16.744  49.771 -57.242  1.00  0.00     0.103 C 
HETATM   18  N1  UNL     1      16.758  51.039 -57.469  1.00  0.00    -0.384 N 
ATOM     19  H1  UNL     1      16.742  51.677 -56.674  1.00  0.00     0.159 HD
BRANCH  18  20
HETATM   20  C2  UNL     1      16.796  51.587 -58.787  1.00  0.00     0.178 C 
HETATM   21  C1  UNL     1      17.886  52.633 -58.794  1.00  0.00     0.043 C 
BRANCH  20  22
HETATM   22  C12 UNL     1      15.491  52.138 -59.142  1.00  0.00     0.196 C 
HETATM   23  O4  UNL     1      15.469  53.270 -59.734  1.00  0.00    -0.646 OA
HETATM   24  O5  UNL     1      14.284  51.535 -58.892  1.00  0.00    -0.646 OA
ENDBRANCH  20  22
ENDBRANCH  18  20
ENDBRANCH  12  17
ENDBRANCH   1   6
TORSDOF 5
ENDMDL
