MODEL 1
REMARK VINA RESULT: -7.349758774      0.000      0.000
REMARK  7 active torsions:
REMARK  status: ('A' for Active; 'I' for Inactive)
REMARK    1  A    between atoms: C3_9  and  N4_10 
REMARK    2  A    between atoms: N4_10  and  C4_12 
REMARK    3  A    between atoms: C4_12  and  C5_13 
REMARK    4  A    between atoms: C5_13  and  N5_14 
REMARK    5  A    between atoms: N5_14  and  C6_16 
REMARK    6  A    between atoms: C6_16  and  C7_20 
REMARK    7  A    between atoms: C9_25  and  N9_26 
ROOT
HETATM    1  C6  UNL     1      13.763  49.700 -50.903  1.00  0.00     0.126 C 
HETATM    2  N6  UNL     1      12.981  50.710 -50.721  1.00  0.00    -0.384 N 
ATOM      3  H61 UNL     1      12.427  51.092 -51.488  1.00  0.00     0.157 HD
ATOM      4  H62 UNL     1      12.919  51.129 -49.793  1.00  0.00     0.157 HD
ENDROOT
BRANCH   1   5
HETATM    5  N5  UNL     1      14.532  49.171 -49.838  1.00  0.00    -0.373 N 
ATOM      6  H5  UNL     1      15.541  49.050 -49.921  1.00  0.00     0.161 HD
BRANCH   5   7
HETATM    7  C5  UNL     1      13.828  48.807 -48.626  1.00  0.00     0.141 C 
BRANCH   7   8
HETATM    8  C4  UNL     1      14.170  49.734 -47.480  1.00  0.00     0.157 C 
BRANCH   8   9
HETATM    9  N4  UNL     1      13.010  49.877 -46.634  1.00  0.00    -0.223 N 
ATOM     10  H4  UNL     1      13.063  49.528 -45.677  1.00  0.00     0.177 HD
BRANCH   9  11
HETATM   11  C3  UNL     1      11.908  50.424 -47.026  1.00  0.00     0.695 A 
HETATM   12  N3  UNL     1      10.739  49.838 -46.713  1.00  0.00    -0.118 N 
HETATM   13  N2  UNL     1       9.631  50.444 -47.142  1.00  0.00    -0.227 N 
ATOM     14  H3  UNL     1      10.701  48.974 -46.174  1.00  0.00     0.207 HD
HETATM   15  N1  UNL     1       9.649  51.565 -47.843  1.00  0.00    -0.274 N 
ATOM     16  H2  UNL     1       8.728  50.024 -46.920  1.00  0.00     0.209 HD
HETATM   17  C2  UNL     1      10.810  52.167 -48.166  1.00  0.00     0.109 A 
ATOM     18  H1  UNL     1       8.768  51.982 -48.144  1.00  0.00     0.189 HD
HETATM   19  C1  UNL     1      10.857  53.436 -48.959  1.00  0.00     0.091 C 
HETATM   20  N12 UNL     1      11.935  51.564 -47.739  1.00  0.00    -0.178 N 
ATOM     21  H12 UNL     1      12.836  51.985 -47.963  1.00  0.00     0.185 HD
ENDBRANCH   9  11
ENDBRANCH   8   9
ENDBRANCH   7   8
ENDBRANCH   5   7
ENDBRANCH   1   5
BRANCH   1  22
HETATM   22  C7  UNL     1      13.851  49.103 -52.227  1.00  0.00     0.122 A 
HETATM   23  N7  UNL     1      13.227  48.006 -52.701  1.00  0.00    -0.345 N 
HETATM   24  C8  UNL     1      13.582  47.789 -53.988  1.00  0.00     0.209 A 
ATOM     25  H7  UNL     1      12.581  47.424 -52.167  1.00  0.00     0.167 HD
HETATM   26  N8  UNL     1      14.446  48.753 -54.353  1.00  0.00    -0.126 N 
HETATM   27  C9  UNL     1      15.104  49.023 -55.492  1.00  0.00     0.685 A 
HETATM   28  C11 UNL     1      14.615  49.562 -53.279  1.00  0.00     0.161 A 
HETATM   29  N10 UNL     1      15.932  50.083 -55.591  1.00  0.00    -0.188 N 
HETATM   30  C10 UNL     1      16.112  50.894 -54.538  1.00  0.00     0.199 A 
ATOM     31  H10 UNL     1      16.421  50.267 -56.467  1.00  0.00     0.185 HD
HETATM   32  N11 UNL     1      15.456  50.630 -53.395  1.00  0.00    -0.335 N 
ATOM     33  H11 UNL     1      15.590  51.245 -52.592  1.00  0.00     0.168 HD
BRANCH  27  34
HETATM   34  N9  UNL     1      14.942  48.257 -56.505  1.00  0.00    -0.234 N 
ATOM     35  H92 UNL     1      14.915  47.247 -56.368  1.00  0.00     0.174 HD
ATOM     36  H91 UNL     1      14.842  48.671 -57.431  1.00  0.00     0.174 HD
ENDBRANCH  27  34
ENDBRANCH   1  22
TORSDOF 7
ENDMDL
MODEL 2
REMARK VINA RESULT: -7.342621258      1.083      2.267
REMARK  7 active torsions:
REMARK  status: ('A' for Active; 'I' for Inactive)
REMARK    1  A    between atoms: C3_9  and  N4_10 
REMARK    2  A    between atoms: N4_10  and  C4_12 
REMARK    3  A    between atoms: C4_12  and  C5_13 
REMARK    4  A    between atoms: C5_13  and  N5_14 
REMARK    5  A    between atoms: N5_14  and  C6_16 
REMARK    6  A    between atoms: C6_16  and  C7_20 
REMARK    7  A    between atoms: C9_25  and  N9_26 
ROOT
HETATM    1  C6  UNL     1      14.169  49.735 -51.001  1.00  0.00     0.126 C 
HETATM    2  N6  UNL     1      14.149  48.906 -50.012  1.00  0.00    -0.384 N 
ATOM      3  H61 UNL     1      14.069  47.901 -50.171  1.00  0.00     0.157 HD
ATOM      4  H62 UNL     1      14.213  49.266 -49.061  1.00  0.00     0.157 HD
ENDROOT
BRANCH   1   5
HETATM    5  N5  UNL     1      14.278  51.130 -50.780  1.00  0.00    -0.373 N 
ATOM      6  H5  UNL     1      15.150  51.549 -50.457  1.00  0.00     0.161 HD
BRANCH   5   7
HETATM    7  C5  UNL     1      13.103  51.939 -51.032  1.00  0.00     0.141 C 
BRANCH   7   8
HETATM    8  C4  UNL     1      12.692  52.726 -49.807  1.00  0.00     0.157 C 
BRANCH   8   9
HETATM    9  N4  UNL     1      11.515  52.117 -49.236  1.00  0.00    -0.223 N 
ATOM     10  H4  UNL     1      10.619  52.269 -49.700  1.00  0.00     0.177 HD
BRANCH   9  11
HETATM   11  C3  UNL     1      11.537  51.392 -48.169  1.00  0.00     0.695 A 
HETATM   12  N3  UNL     1      10.378  50.925 -47.671  1.00  0.00    -0.118 N 
HETATM   13  N2  UNL     1      10.457  50.180 -46.567  1.00  0.00    -0.227 N 
ATOM     14  H3  UNL     1       9.483  51.130 -48.114  1.00  0.00     0.207 HD
HETATM   15  N1  UNL     1      11.603  49.898 -45.970  1.00  0.00    -0.274 N 
ATOM     16  H2  UNL     1       9.595  49.812 -46.165  1.00  0.00     0.209 HD
HETATM   17  C2  UNL     1      12.773  50.356 -46.454  1.00  0.00     0.109 A 
ATOM     18  H1  UNL     1      11.600  49.323 -45.127  1.00  0.00     0.189 HD
HETATM   19  C1  UNL     1      14.083  50.050 -45.795  1.00  0.00     0.091 C 
HETATM   20  N12 UNL     1      12.705  51.109 -47.567  1.00  0.00    -0.178 N 
ATOM     21  H12 UNL     1      13.568  51.477 -47.966  1.00  0.00     0.185 HD
ENDBRANCH   9  11
ENDBRANCH   8   9
ENDBRANCH   7   8
ENDBRANCH   5   7
ENDBRANCH   1   5
BRANCH   1  22
HETATM   22  C7  UNL     1      14.077  49.221 -52.359  1.00  0.00     0.122 A 
HETATM   23  N7  UNL     1      13.131  48.425 -52.897  1.00  0.00    -0.345 N 
HETATM   24  C8  UNL     1      13.417  48.177 -54.195  1.00  0.00     0.209 A 
ATOM     25  H7  UNL     1      12.319  48.062 -52.398  1.00  0.00     0.167 HD
HETATM   26  N8  UNL     1      14.560  48.816 -54.503  1.00  0.00    -0.126 N 
HETATM   27  C9  UNL     1      15.291  48.916 -55.625  1.00  0.00     0.685 A 
HETATM   28  C11 UNL     1      14.969  49.458 -53.382  1.00  0.00     0.161 A 
HETATM   29  N10 UNL     1      16.427  49.642 -55.661  1.00  0.00    -0.188 N 
HETATM   30  C10 UNL     1      16.848  50.284 -54.562  1.00  0.00     0.199 A 
ATOM     31  H10 UNL     1      16.965  49.702 -56.525  1.00  0.00     0.185 HD
HETATM   32  N11 UNL     1      16.121  50.189 -53.434  1.00  0.00    -0.335 N 
ATOM     33  H11 UNL     1      16.438  50.676 -52.597  1.00  0.00     0.168 HD
BRANCH  27  34
HETATM   34  N9  UNL     1      14.901  48.308 -56.682  1.00  0.00    -0.234 N 
ATOM     35  H92 UNL     1      14.443  47.401 -56.597  1.00  0.00     0.174 HD
ATOM     36  H91 UNL     1      15.056  48.742 -57.592  1.00  0.00     0.174 HD
ENDBRANCH  27  34
ENDBRANCH   1  22
TORSDOF 7
ENDMDL
MODEL 3
REMARK VINA RESULT: -7.291388792      2.500      3.230
REMARK  7 active torsions:
REMARK  status: ('A' for Active; 'I' for Inactive)
REMARK    1  A    between atoms: C3_9  and  N4_10 
REMARK    2  A    between atoms: N4_10  and  C4_12 
REMARK    3  A    between atoms: C4_12  and  C5_13 
REMARK    4  A    between atoms: C5_13  and  N5_14 
REMARK    5  A    between atoms: N5_14  and  C6_16 
REMARK    6  A    between atoms: C6_16  and  C7_20 
REMARK    7  A    between atoms: C9_25  and  N9_26 
ROOT
HETATM    1  C6  UNL     1      14.775  49.156 -50.041  1.00  0.00     0.126 C 
HETATM    2  N6  UNL     1      15.979  48.910 -50.436  1.00  0.00    -0.384 N 
ATOM      3  H61 UNL     1      16.344  49.320 -51.297  1.00  0.00     0.157 HD
ATOM      4  H62 UNL     1      16.570  48.297 -49.875  1.00  0.00     0.157 HD
ENDROOT
BRANCH   1   5
HETATM    5  N5  UNL     1      14.269  48.587 -48.847  1.00  0.00    -0.373 N 
ATOM      6  H5  UNL     1      13.499  47.919 -48.863  1.00  0.00     0.161 HD
BRANCH   5   7
HETATM    7  C5  UNL     1      14.888  48.991 -47.602  1.00  0.00     0.141 C 
BRANCH   7   8
HETATM    8  C4  UNL     1      14.276  50.266 -47.061  1.00  0.00     0.157 C 
BRANCH   8   9
HETATM    9  N4  UNL     1      12.986  49.958 -46.491  1.00  0.00    -0.223 N 
ATOM     10  H4  UNL     1      12.949  49.315 -45.700  1.00  0.00     0.177 HD
BRANCH   9  11
HETATM   11  C3  UNL     1      11.879  50.454 -46.931  1.00  0.00     0.695 A 
HETATM   12  N3  UNL     1      10.721  49.847 -46.618  1.00  0.00    -0.118 N 
HETATM   13  N2  UNL     1       9.606  50.401 -47.098  1.00  0.00    -0.227 N 
ATOM     14  H3  UNL     1      10.695  49.006 -46.043  1.00  0.00     0.207 HD
HETATM   15  N1  UNL     1       9.608  51.490 -47.847  1.00  0.00    -0.274 N 
ATOM     16  H2  UNL     1       8.711  49.963 -46.878  1.00  0.00     0.209 HD
HETATM   17  C2  UNL     1      10.757  52.112 -48.171  1.00  0.00     0.109 A 
ATOM     18  H1  UNL     1       8.722  51.867 -48.186  1.00  0.00     0.189 HD
HETATM   19  C1  UNL     1      10.787  53.347 -49.018  1.00  0.00     0.091 C 
HETATM   20  N12 UNL     1      11.889  51.562 -47.693  1.00  0.00    -0.178 N 
ATOM     21  H12 UNL     1      12.783  52.000 -47.915  1.00  0.00     0.185 HD
ENDBRANCH   9  11
ENDBRANCH   8   9
ENDBRANCH   7   8
ENDBRANCH   5   7
ENDBRANCH   1   5
BRANCH   1  22
HETATM   22  C7  UNL     1      13.932  50.031 -50.842  1.00  0.00     0.122 A 
HETATM   23  N7  UNL     1      12.994  49.698 -51.751  1.00  0.00    -0.345 N 
HETATM   24  C8  UNL     1      12.437  50.814 -52.273  1.00  0.00     0.209 A 
ATOM     25  H7  UNL     1      12.741  48.744 -52.008  1.00  0.00     0.167 HD
HETATM   26  N8  UNL     1      13.020  51.882 -51.700  1.00  0.00    -0.126 N 
HETATM   27  C9  UNL     1      12.860  53.209 -51.837  1.00  0.00     0.685 A 
HETATM   28  C11 UNL     1      13.937  51.409 -50.821  1.00  0.00     0.161 A 
HETATM   29  N10 UNL     1      13.595  54.082 -51.119  1.00  0.00    -0.188 N 
HETATM   30  C10 UNL     1      14.508  53.633 -50.246  1.00  0.00     0.199 A 
ATOM     31  H10 UNL     1      13.456  55.085 -51.241  1.00  0.00     0.185 HD
HETATM   32  N11 UNL     1      14.672  52.306 -50.102  1.00  0.00    -0.335 N 
ATOM     33  H11 UNL     1      15.366  51.961 -49.439  1.00  0.00     0.168 HD
BRANCH  27  34
HETATM   34  N9  UNL     1      11.993  53.652 -52.667  1.00  0.00    -0.234 N 
ATOM     35  H92 UNL     1      11.223  53.048 -52.955  1.00  0.00     0.174 HD
ATOM     36  H91 UNL     1      12.087  54.601 -53.026  1.00  0.00     0.174 HD
ENDBRANCH  27  34
ENDBRANCH   1  22
TORSDOF 7
ENDMDL
MODEL 4
REMARK VINA RESULT: -7.234051784      2.516      3.669
REMARK  7 active torsions:
REMARK  status: ('A' for Active; 'I' for Inactive)
REMARK    1  A    between atoms: C3_9  and  N4_10 
REMARK    2  A    between atoms: N4_10  and  C4_12 
REMARK    3  A    between atoms: C4_12  and  C5_13 
REMARK    4  A    between atoms: C5_13  and  N5_14 
REMARK    5  A    between atoms: N5_14  and  C6_16 
REMARK    6  A    between atoms: C6_16  and  C7_20 
REMARK    7  A    between atoms: C9_25  and  N9_26 
ROOT
HETATM    1  C6  UNL     1      15.867  50.377 -48.321  1.00  0.00     0.126 C 
HETATM    2  N6  UNL     1      17.153  50.473 -48.304  1.00  0.00    -0.384 N 
ATOM      3  H61 UNL     1      17.636  51.170 -48.872  1.00  0.00     0.157 HD
ATOM      4  H62 UNL     1      17.691  49.841 -47.711  1.00  0.00     0.157 HD
ENDROOT
BRANCH   1   5
HETATM    5  N5  UNL     1      15.197  49.409 -47.532  1.00  0.00    -0.373 N 
ATOM      6  H5  UNL     1      14.849  48.542 -47.939  1.00  0.00     0.161 HD
BRANCH   5   7
HETATM    7  C5  UNL     1      15.027  49.700 -46.124  1.00  0.00     0.141 C 
BRANCH   7   8
HETATM    8  C4  UNL     1      13.682  50.334 -45.841  1.00  0.00     0.157 C 
BRANCH   8   9
HETATM    9  N4  UNL     1      12.710  49.792 -46.760  1.00  0.00    -0.223 N 
ATOM     10  H4  UNL     1      12.872  48.859 -47.140  1.00  0.00     0.177 HD
BRANCH   9  11
HETATM   11  C3  UNL     1      11.647  50.426 -47.125  1.00  0.00     0.695 A 
HETATM   12  N3  UNL     1      10.442  49.923 -46.806  1.00  0.00    -0.118 N 
HETATM   13  N2  UNL     1       9.377  50.618 -47.207  1.00  0.00    -0.227 N 
ATOM     14  H3  UNL     1      10.347  49.053 -46.283  1.00  0.00     0.207 HD
HETATM   15  N1  UNL     1       9.469  51.748 -47.887  1.00  0.00    -0.274 N 
ATOM     16  H2  UNL     1       8.448  50.261 -46.980  1.00  0.00     0.209 HD
HETATM   17  C2  UNL     1      10.666  52.268 -48.216  1.00  0.00     0.109 A 
ATOM     18  H1  UNL     1       8.617  52.236 -48.168  1.00  0.00     0.189 HD
HETATM   19  C1  UNL     1      10.798  53.546 -48.986  1.00  0.00     0.091 C 
HETATM   20  N12 UNL     1      11.749  51.575 -47.817  1.00  0.00    -0.178 N 
ATOM     21  H12 UNL     1      12.676  51.933 -48.046  1.00  0.00     0.185 HD
ENDBRANCH   9  11
ENDBRANCH   8   9
ENDBRANCH   7   8
ENDBRANCH   5   7
ENDBRANCH   1   5
BRANCH   1  22
HETATM   22  C7  UNL     1      15.100  51.279 -49.167  1.00  0.00     0.122 A 
HETATM   23  N7  UNL     1      15.033  52.625 -49.122  1.00  0.00    -0.345 N 
HETATM   24  C8  UNL     1      14.203  53.080 -50.087  1.00  0.00     0.209 A 
ATOM     25  H7  UNL     1      15.536  53.213 -48.458  1.00  0.00     0.167 HD
HETATM   26  N8  UNL     1      13.723  52.021 -50.764  1.00  0.00    -0.126 N 
HETATM   27  C9  UNL     1      12.878  51.890 -51.799  1.00  0.00     0.685 A 
HETATM   28  C11 UNL     1      14.270  50.914 -50.205  1.00  0.00     0.161 A 
HETATM   29  N10 UNL     1      12.560  50.677 -52.296  1.00  0.00    -0.188 N 
HETATM   30  C10 UNL     1      13.090  49.570 -51.756  1.00  0.00     0.199 A 
ATOM     31  H10 UNL     1      11.916  50.603 -53.083  1.00  0.00     0.185 HD
HETATM   32  N11 UNL     1      13.938  49.694 -50.719  1.00  0.00    -0.335 N 
ATOM     33  H11 UNL     1      14.343  48.855 -50.306  1.00  0.00     0.168 HD
BRANCH  27  34
HETATM   34  N9  UNL     1      12.365  52.938 -52.324  1.00  0.00    -0.234 N 
ATOM     35  H92 UNL     1      12.120  53.727 -51.728  1.00  0.00     0.174 HD
ATOM     36  H91 UNL     1      12.210  52.965 -53.332  1.00  0.00     0.174 HD
ENDBRANCH  27  34
ENDBRANCH   1  22
TORSDOF 7
ENDMDL
MODEL 5
REMARK VINA RESULT: -7.178504601      1.596      2.764
REMARK  7 active torsions:
REMARK  status: ('A' for Active; 'I' for Inactive)
REMARK    1  A    between atoms: C3_9  and  N4_10 
REMARK    2  A    between atoms: N4_10  and  C4_12 
REMARK    3  A    between atoms: C4_12  and  C5_13 
REMARK    4  A    between atoms: C5_13  and  N5_14 
REMARK    5  A    between atoms: N5_14  and  C6_16 
REMARK    6  A    between atoms: C6_16  and  C7_20 
REMARK    7  A    between atoms: C9_25  and  N9_26 
ROOT
HETATM    1  C6  UNL     1      13.840  49.064 -52.881  1.00  0.00     0.126 C 
HETATM    2  N6  UNL     1      13.393  48.022 -52.266  1.00  0.00    -0.384 N 
ATOM      3  H61 UNL     1      13.482  47.091 -52.675  1.00  0.00     0.157 HD
ATOM      4  H62 UNL     1      12.946  48.136 -51.357  1.00  0.00     0.157 HD
ENDROOT
BRANCH   1   5
HETATM    5  N5  UNL     1      13.717  50.356 -52.313  1.00  0.00    -0.373 N 
ATOM      6  H5  UNL     1      14.382  51.097 -52.531  1.00  0.00     0.161 HD
BRANCH   5   7
HETATM    7  C5  UNL     1      12.609  50.582 -51.408  1.00  0.00     0.141 C 
BRANCH   7   8
HETATM    8  C4  UNL     1      12.973  51.558 -50.310  1.00  0.00     0.157 C 
BRANCH   8   9
HETATM    9  N4  UNL     1      11.841  51.708 -49.427  1.00  0.00    -0.223 N 
ATOM     10  H4  UNL     1      11.060  52.287 -49.737  1.00  0.00     0.177 HD
BRANCH   9  11
HETATM   11  C3  UNL     1      11.767  51.149 -48.267  1.00  0.00     0.695 A 
HETATM   12  N3  UNL     1      10.559  50.835 -47.768  1.00  0.00    -0.118 N 
HETATM   13  N2  UNL     1      10.538  50.259 -46.565  1.00  0.00    -0.227 N 
ATOM     14  H3  UNL     1       9.700  51.028 -48.283  1.00  0.00     0.207 HD
HETATM   15  N1  UNL     1      11.634  49.997 -45.873  1.00  0.00    -0.274 N 
ATOM     16  H2  UNL     1       9.636  50.009 -46.159  1.00  0.00     0.209 HD
HETATM   17  C2  UNL     1      12.853  50.303 -46.356  1.00  0.00     0.109 A 
ATOM     18  H1  UNL     1      11.556  49.554 -44.957  1.00  0.00     0.189 HD
HETATM   19  C1  UNL     1      14.110  50.018 -45.593  1.00  0.00     0.091 C 
HETATM   20  N12 UNL     1      12.886  50.886 -47.569  1.00  0.00    -0.178 N 
ATOM     21  H12 UNL     1      13.789  51.136 -47.972  1.00  0.00     0.185 HD
ENDBRANCH   9  11
ENDBRANCH   8   9
ENDBRANCH   7   8
ENDBRANCH   5   7
ENDBRANCH   1   5
BRANCH   1  22
HETATM   22  C7  UNL     1      14.479  48.901 -54.178  1.00  0.00     0.122 A 
HETATM   23  N7  UNL     1      13.939  48.472 -55.337  1.00  0.00    -0.345 N 
HETATM   24  C8  UNL     1      14.876  48.466 -56.312  1.00  0.00     0.209 A 
ATOM     25  H7  UNL     1      12.965  48.193 -55.459  1.00  0.00     0.167 HD
HETATM   26  N8  UNL     1      16.036  48.893 -55.782  1.00  0.00    -0.126 N 
HETATM   27  C9  UNL     1      17.269  49.080 -56.282  1.00  0.00     0.685 A 
HETATM   28  C11 UNL     1      15.800  49.161 -54.475  1.00  0.00     0.161 A 
HETATM   29  N10 UNL     1      18.279  49.530 -55.510  1.00  0.00    -0.188 N 
HETATM   30  C10 UNL     1      18.064  49.800 -54.215  1.00  0.00     0.199 A 
ATOM     31  H10 UNL     1      19.206  49.664 -55.913  1.00  0.00     0.185 HD
HETATM   32  N11 UNL     1      16.833  49.616 -53.707  1.00  0.00    -0.335 N 
ATOM     33  H11 UNL     1      16.666  49.821 -52.722  1.00  0.00     0.168 HD
BRANCH  27  34
HETATM   34  N9  UNL     1      17.488  48.825 -57.517  1.00  0.00    -0.234 N 
ATOM     35  H92 UNL     1      16.714  48.531 -58.112  1.00  0.00     0.174 HD
ATOM     36  H91 UNL     1      18.434  48.921 -57.885  1.00  0.00     0.174 HD
ENDBRANCH  27  34
ENDBRANCH   1  22
TORSDOF 7
ENDMDL
