MODEL 1
REMARK VINA RESULT: -7.268111001      0.000      0.000
REMARK  8 active torsions:
REMARK  status: ('A' for Active; 'I' for Inactive)
REMARK    1  A    between atoms: N1_2  and  N2_4 
REMARK    2  A    between atoms: N3_6  and  O1_7 
REMARK    3  A    between atoms: N3_6  and  N4_9 
REMARK       I    between atoms: N4_9  and  C2_11 
REMARK       I    between atoms: C2_11  and  N6_15 
REMARK    4  A    between atoms: N6_15  and  C3_17 
REMARK    5  A    between atoms: C3_17  and  C4_18 
REMARK    6  A    between atoms: C7_21  and  C8_22 
REMARK    7  A    between atoms: N7_24  and  N8_26 
REMARK    8  A    between atoms: N8_26  and  C10_28 
ROOT
HETATM    1  C4  UNL     1       2.388 -10.008  38.242  1.00  0.00    -0.040 A 
HETATM    2  C5  UNL     1       2.242 -10.934  37.238  1.00  0.00     0.010 A 
HETATM    3  C6  UNL     1       1.075 -11.690  37.088  1.00  0.00     0.014 A 
HETATM    4  C7  UNL     1       0.024 -11.513  37.972  1.00  0.00    -0.013 A 
HETATM    5  C14 UNL     1       0.156 -10.592  38.981  1.00  0.00     0.014 A 
HETATM    6  C15 UNL     1       1.315  -9.864  39.100  1.00  0.00     0.010 A 
ENDROOT
BRANCH   1   7
HETATM    7  C3  UNL     1       3.572  -9.172  38.475  1.00  0.00     0.176 C 
BRANCH   7   8
HETATM    8  N6  UNL     1       3.349  -7.921  39.108  1.00  0.00    -0.221 N 
HETATM    9  C2  UNL     1       4.490  -7.055  39.247  1.00  0.00     0.689 C 
HETATM   10  N4  UNL     1       4.572  -5.807  38.570  1.00  0.00    -0.089 N 
HETATM   11  N5  UNL     1       5.497  -7.382  40.000  1.00  0.00    -0.233 N 
ATOM     12  H4  UNL     1       5.435  -5.591  38.071  1.00  0.00     0.210 HD
ATOM     13  H52 UNL     1       6.306  -6.767  40.098  1.00  0.00     0.174 HD
ATOM     14  H51 UNL     1       5.438  -8.277  40.485  1.00  0.00     0.174 HD
ATOM     15  H6  UNL     1       2.426  -7.650  39.448  1.00  0.00     0.178 HD
BRANCH  10  16
HETATM   16  N3  UNL     1       3.552  -4.866  38.546  1.00  0.00    -0.065 N 
HETATM   17  N2  UNL     1       3.206  -4.266  37.496  1.00  0.00    -0.201 N 
ATOM     18  H2  UNL     1       2.447  -3.591  37.578  1.00  0.00     0.212 HD
BRANCH  17  19
HETATM   19  N1  UNL     1       3.757  -4.435  36.243  1.00  0.00    -0.304 N 
HETATM   20  C1  UNL     1       3.059  -4.928  35.284  1.00  0.00     0.140 C 
ATOM     21  H1  UNL     1       4.727  -4.166  36.077  1.00  0.00     0.186 HD
ENDBRANCH  17  19
BRANCH  16  22
HETATM   22  O1  UNL     1       2.904  -4.584  39.712  1.00  0.00    -0.252 OA
ATOM     23  H1  UNL     1       2.289  -5.218  40.063  1.00  0.00     0.248 HD
ENDBRANCH  16  22
ENDBRANCH  10  16
ENDBRANCH   7   8
ENDBRANCH   1   7
BRANCH   4  24
HETATM   24  C8  UNL     1      -1.205 -12.274  37.859  1.00  0.00     0.032 C 
HETATM   25  C9  UNL     1      -1.843 -12.402  36.529  1.00  0.00     0.070 C 
HETATM   26  N7  UNL     1      -1.710 -12.813  38.907  1.00  0.00    -0.290 N 
ATOM     27  H7  UNL     1      -1.211 -12.680  39.786  1.00  0.00     0.187 HD
BRANCH  26  28
HETATM   28  N8  UNL     1      -2.872 -13.562  38.945  1.00  0.00    -0.132 N 
ATOM     29  H8  UNL     1      -3.763 -13.068  39.002  1.00  0.00     0.205 HD
BRANCH  28  30
HETATM   30  C10 UNL     1      -2.890 -14.998  38.909  1.00  0.00     0.688 C 
HETATM   31  N9  UNL     1      -2.957 -15.637  37.797  1.00  0.00    -0.225 N 
HETATM   32  C11 UNL     1      -2.981 -17.070  37.643  1.00  0.00     0.139 C 
ATOM     33  H9  UNL     1      -2.996 -15.080  36.944  1.00  0.00     0.177 HD
HETATM   34  C12 UNL     1      -3.059 -17.840  38.917  1.00  0.00     0.040 C 
HETATM   35  C13 UNL     1      -2.382 -17.116  40.071  1.00  0.00     0.139 C 
HETATM   36  N10 UNL     1      -2.836 -15.743  40.117  1.00  0.00    -0.225 N 
ATOM     37  H10 UNL     1      -3.112 -15.318  41.002  1.00  0.00     0.177 HD
ENDBRANCH  28  30
ENDBRANCH  26  28
ENDBRANCH   4  24
TORSDOF 8
ENDMDL
MODEL 2
REMARK VINA RESULT: -6.975852517      6.437      8.093
REMARK  8 active torsions:
REMARK  status: ('A' for Active; 'I' for Inactive)
REMARK    1  A    between atoms: N1_2  and  N2_4 
REMARK    2  A    between atoms: N3_6  and  O1_7 
REMARK    3  A    between atoms: N3_6  and  N4_9 
REMARK       I    between atoms: N4_9  and  C2_11 
REMARK       I    between atoms: C2_11  and  N6_15 
REMARK    4  A    between atoms: N6_15  and  C3_17 
REMARK    5  A    between atoms: C3_17  and  C4_18 
REMARK    6  A    between atoms: C7_21  and  C8_22 
REMARK    7  A    between atoms: N7_24  and  N8_26 
REMARK    8  A    between atoms: N8_26  and  C10_28 
ROOT
HETATM    1  C4  UNL     1       6.595  -6.292  35.031  1.00  0.00    -0.040 A 
HETATM    2  C5  UNL     1       7.311  -6.690  36.134  1.00  0.00     0.010 A 
HETATM    3  C6  UNL     1       7.722  -8.014  36.315  1.00  0.00     0.014 A 
HETATM    4  C7  UNL     1       7.404  -8.968  35.363  1.00  0.00    -0.013 A 
HETATM    5  C14 UNL     1       6.688  -8.586  34.257  1.00  0.00     0.014 A 
HETATM    6  C15 UNL     1       6.300  -7.276  34.108  1.00  0.00     0.010 A 
ENDROOT
BRANCH   1   7
HETATM    7  C3  UNL     1       6.123  -4.929  34.758  1.00  0.00     0.176 C 
BRANCH   7   8
HETATM    8  N6  UNL     1       5.354  -4.309  35.777  1.00  0.00    -0.221 N 
HETATM    9  C2  UNL     1       3.997  -4.762  35.930  1.00  0.00     0.689 C 
HETATM   10  N4  UNL     1       3.558  -5.436  37.102  1.00  0.00    -0.089 N 
HETATM   11  N5  UNL     1       3.114  -4.574  34.996  1.00  0.00    -0.233 N 
ATOM     12  H4  UNL     1       3.019  -6.295  36.986  1.00  0.00     0.210 HD
ATOM     13  H52 UNL     1       2.152  -4.895  35.104  1.00  0.00     0.174 HD
ATOM     14  H51 UNL     1       3.429  -4.089  34.155  1.00  0.00     0.174 HD
ATOM     15  H6  UNL     1       5.744  -3.578  36.372  1.00  0.00     0.178 HD
BRANCH  10  16
HETATM   16  N3  UNL     1       3.816  -5.000  38.395  1.00  0.00    -0.065 N 
HETATM   17  N2  UNL     1       4.526  -5.652  39.201  1.00  0.00    -0.201 N 
ATOM     18  H2  UNL     1       4.658  -5.251  40.130  1.00  0.00     0.212 HD
BRANCH  17  19
HETATM   19  N1  UNL     1       5.144  -6.859  38.951  1.00  0.00    -0.304 N 
HETATM   20  C1  UNL     1       4.814  -7.911  39.612  1.00  0.00     0.140 C 
ATOM     21  H1  UNL     1       5.870  -6.917  38.236  1.00  0.00     0.186 HD
ENDBRANCH  17  19
BRANCH  16  22
HETATM   22  O1  UNL     1       3.272  -3.817  38.798  1.00  0.00    -0.252 OA
ATOM     23  H1  UNL     1       3.332  -3.062  38.224  1.00  0.00     0.248 HD
ENDBRANCH  16  22
ENDBRANCH  10  16
ENDBRANCH   7   8
ENDBRANCH   1   7
BRANCH   4  24
HETATM   24  C8  UNL     1       7.807 -10.354  35.506  1.00  0.00     0.032 C 
HETATM   25  C9  UNL     1       8.934 -10.678  36.410  1.00  0.00     0.070 C 
HETATM   26  N7  UNL     1       7.183 -11.261  34.851  1.00  0.00    -0.290 N 
ATOM     27  H7  UNL     1       6.417 -10.958  34.249  1.00  0.00     0.187 HD
BRANCH  26  28
HETATM   28  N8  UNL     1       7.459 -12.616  34.891  1.00  0.00    -0.132 N 
ATOM     29  H8  UNL     1       8.060 -12.965  35.637  1.00  0.00     0.205 HD
BRANCH  28  30
HETATM   30  C10 UNL     1       6.943 -13.557  33.935  1.00  0.00     0.688 C 
HETATM   31  N9  UNL     1       7.606 -13.868  32.880  1.00  0.00    -0.225 N 
HETATM   32  C11 UNL     1       7.188 -14.796  31.859  1.00  0.00     0.139 C 
ATOM     33  H9  UNL     1       8.512 -13.418  32.752  1.00  0.00     0.177 HD
HETATM   34  C12 UNL     1       5.804 -15.326  32.017  1.00  0.00     0.040 C 
HETATM   35  C13 UNL     1       5.383 -15.414  33.476  1.00  0.00     0.139 C 
HETATM   36  N10 UNL     1       5.677 -14.165  34.144  1.00  0.00    -0.225 N 
ATOM     37  H10 UNL     1       4.986 -13.728  34.754  1.00  0.00     0.177 HD
ENDBRANCH  28  30
ENDBRANCH  26  28
ENDBRANCH   4  24
TORSDOF 8
ENDMDL
MODEL 3
REMARK VINA RESULT: -6.912639631      1.220      1.923
REMARK  8 active torsions:
REMARK  status: ('A' for Active; 'I' for Inactive)
REMARK    1  A    between atoms: N1_2  and  N2_4 
REMARK    2  A    between atoms: N3_6  and  O1_7 
REMARK    3  A    between atoms: N3_6  and  N4_9 
REMARK       I    between atoms: N4_9  and  C2_11 
REMARK       I    between atoms: C2_11  and  N6_15 
REMARK    4  A    between atoms: N6_15  and  C3_17 
REMARK    5  A    between atoms: C3_17  and  C4_18 
REMARK    6  A    between atoms: C7_21  and  C8_22 
REMARK    7  A    between atoms: N7_24  and  N8_26 
REMARK    8  A    between atoms: N8_26  and  C10_28 
ROOT
HETATM    1  C4  UNL     1       3.400  -9.018  39.172  1.00  0.00    -0.040 A 
HETATM    2  C5  UNL     1       2.305  -9.096  39.999  1.00  0.00     0.010 A 
HETATM    3  C6  UNL     1       1.154  -9.804  39.642  1.00  0.00     0.014 A 
HETATM    4  C7  UNL     1       1.097 -10.452  38.419  1.00  0.00    -0.013 A 
HETATM    5  C14 UNL     1       2.182 -10.382  37.582  1.00  0.00     0.014 A 
HETATM    6  C15 UNL     1       3.299  -9.679  37.963  1.00  0.00     0.010 A 
ENDROOT
BRANCH   1   7
HETATM    7  C3  UNL     1       4.647  -8.301  39.463  1.00  0.00     0.176 C 
BRANCH   7   8
HETATM    8  N6  UNL     1       4.590  -6.884  39.410  1.00  0.00    -0.221 N 
HETATM    9  C2  UNL     1       5.065  -6.263  38.202  1.00  0.00     0.689 C 
HETATM   10  N4  UNL     1       4.197  -5.544  37.335  1.00  0.00    -0.089 N 
HETATM   11  N5  UNL     1       6.314  -6.336  37.853  1.00  0.00    -0.233 N 
ATOM     12  H4  UNL     1       4.244  -5.746  36.337  1.00  0.00     0.210 HD
ATOM     13  H52 UNL     1       6.652  -5.895  36.996  1.00  0.00     0.174 HD
ATOM     14  H51 UNL     1       6.937  -6.851  38.474  1.00  0.00     0.174 HD
ATOM     15  H6  UNL     1       4.230  -6.333  40.189  1.00  0.00     0.178 HD
BRANCH  10  16
HETATM   16  N3  UNL     1       3.290  -4.584  37.763  1.00  0.00    -0.065 N 
HETATM   17  N2  UNL     1       2.667  -3.837  36.965  1.00  0.00    -0.201 N 
ATOM     18  H2  UNL     1       2.021  -3.161  37.375  1.00  0.00     0.212 HD
BRANCH  17  19
HETATM   19  N1  UNL     1       2.773  -3.844  35.591  1.00  0.00    -0.304 N 
HETATM   20  C1  UNL     1       2.770  -4.953  34.942  1.00  0.00     0.140 C 
ATOM     21  H1  UNL     1       2.855  -2.962  35.085  1.00  0.00     0.186 HD
ENDBRANCH  17  19
BRANCH  16  22
HETATM   22  O1  UNL     1       3.072  -4.451  39.102  1.00  0.00    -0.252 OA
ATOM     23  H1  UNL     1       2.195  -4.255  39.410  1.00  0.00     0.248 HD
ENDBRANCH  16  22
ENDBRANCH  10  16
ENDBRANCH   7   8
ENDBRANCH   1   7
BRANCH   4  24
HETATM   24  C8  UNL     1      -0.075 -11.197  38.003  1.00  0.00     0.032 C 
HETATM   25  C9  UNL     1      -0.396 -11.273  36.560  1.00  0.00     0.070 C 
HETATM   26  N7  UNL     1      -0.804 -11.769  38.889  1.00  0.00    -0.290 N 
ATOM     27  H7  UNL     1      -0.518 -11.671  39.863  1.00  0.00     0.187 HD
BRANCH  26  28
HETATM   28  N8  UNL     1      -1.946 -12.508  38.637  1.00  0.00    -0.132 N 
ATOM     29  H8  UNL     1      -2.806 -12.008  38.412  1.00  0.00     0.205 HD
BRANCH  28  30
HETATM   30  C10 UNL     1      -1.983 -13.944  38.674  1.00  0.00     0.688 C 
HETATM   31  N9  UNL     1      -2.931 -14.572  39.273  1.00  0.00    -0.225 N 
HETATM   32  C11 UNL     1      -3.069 -16.003  39.373  1.00  0.00     0.139 C 
ATOM     33  H9  UNL     1      -3.652 -14.005  39.718  1.00  0.00     0.177 HD
HETATM   34  C12 UNL     1      -1.925 -16.786  38.825  1.00  0.00     0.040 C 
HETATM   35  C13 UNL     1      -1.236 -16.073  37.673  1.00  0.00     0.139 C 
HETATM   36  N10 UNL     1      -0.961 -14.701  38.043  1.00  0.00    -0.225 N 
ATOM     37  H10 UNL     1      -0.049 -14.286  37.855  1.00  0.00     0.177 HD
ENDBRANCH  28  30
ENDBRANCH  26  28
ENDBRANCH   4  24
TORSDOF 8
ENDMDL
MODEL 4
REMARK VINA RESULT: -6.760850936      6.255      7.850
REMARK  8 active torsions:
REMARK  status: ('A' for Active; 'I' for Inactive)
REMARK    1  A    between atoms: N1_2  and  N2_4 
REMARK    2  A    between atoms: N3_6  and  O1_7 
REMARK    3  A    between atoms: N3_6  and  N4_9 
REMARK       I    between atoms: N4_9  and  C2_11 
REMARK       I    between atoms: C2_11  and  N6_15 
REMARK    4  A    between atoms: N6_15  and  C3_17 
REMARK    5  A    between atoms: C3_17  and  C4_18 
REMARK    6  A    between atoms: C7_21  and  C8_22 
REMARK    7  A    between atoms: N7_24  and  N8_26 
REMARK    8  A    between atoms: N8_26  and  C10_28 
ROOT
HETATM    1  C4  UNL     1       6.689  -8.872  35.722  1.00  0.00    -0.040 A 
HETATM    2  C5  UNL     1       5.372  -9.238  35.585  1.00  0.00     0.010 A 
HETATM    3  C6  UNL     1       4.994 -10.542  35.251  1.00  0.00     0.014 A 
HETATM    4  C7  UNL     1       5.965 -11.508  35.049  1.00  0.00    -0.013 A 
HETATM    5  C14 UNL     1       7.285 -11.157  35.182  1.00  0.00     0.014 A 
HETATM    6  C15 UNL     1       7.623  -9.868  35.512  1.00  0.00     0.010 A 
ENDROOT
BRANCH   1   7
HETATM    7  C3  UNL     1       7.177  -7.532  36.069  1.00  0.00     0.176 C 
BRANCH   7   8
HETATM    8  N6  UNL     1       6.540  -6.889  37.162  1.00  0.00    -0.221 N 
HETATM    9  C2  UNL     1       6.611  -5.452  37.198  1.00  0.00     0.689 C 
HETATM   10  N4  UNL     1       5.453  -4.639  37.063  1.00  0.00    -0.089 N 
HETATM   11  N5  UNL     1       7.745  -4.837  37.354  1.00  0.00    -0.233 N 
ATOM     12  H4  UNL     1       5.492  -3.857  36.409  1.00  0.00     0.210 HD
ATOM     13  H52 UNL     1       7.796  -3.818  37.379  1.00  0.00     0.174 HD
ATOM     14  H51 UNL     1       8.576  -5.420  37.451  1.00  0.00     0.174 HD
ATOM     15  H6  UNL     1       6.055  -7.419  37.886  1.00  0.00     0.178 HD
BRANCH  10  16
HETATM   16  N3  UNL     1       4.272  -4.842  37.765  1.00  0.00    -0.065 N 
HETATM   17  N2  UNL     1       3.145  -4.538  37.299  1.00  0.00    -0.201 N 
ATOM     18  H2  UNL     1       2.335  -4.724  37.891  1.00  0.00     0.212 HD
BRANCH  17  19
HETATM   19  N1  UNL     1       2.898  -3.976  36.064  1.00  0.00    -0.304 N 
HETATM   20  C1  UNL     1       2.813  -4.715  35.016  1.00  0.00     0.140 C 
ATOM     21  H1  UNL     1       2.783  -2.966  35.982  1.00  0.00     0.186 HD
ENDBRANCH  17  19
BRANCH  16  22
HETATM   22  O1  UNL     1       4.348  -5.393  39.010  1.00  0.00    -0.252 OA
ATOM     23  H1  UNL     1       4.928  -6.131  39.154  1.00  0.00     0.248 HD
ENDBRANCH  16  22
ENDBRANCH  10  16
ENDBRANCH   7   8
ENDBRANCH   1   7
BRANCH   4  24
HETATM   24  C8  UNL     1       5.623 -12.874  34.700  1.00  0.00     0.032 C 
HETATM   25  C9  UNL     1       4.260 -13.365  35.000  1.00  0.00     0.070 C 
HETATM   26  N7  UNL     1       6.505 -13.621  34.145  1.00  0.00    -0.290 N 
ATOM     27  H7  UNL     1       7.422 -13.210  33.972  1.00  0.00     0.187 HD
BRANCH  26  28
HETATM   28  N8  UNL     1       6.318 -14.936  33.762  1.00  0.00    -0.132 N 
ATOM     29  H8  UNL     1       5.397 -15.354  33.899  1.00  0.00     0.205 HD
BRANCH  28  30
HETATM   30  C10 UNL     1       7.353 -15.746  33.181  1.00  0.00     0.688 C 
HETATM   31  N9  UNL     1       8.124 -15.286  32.262  1.00  0.00    -0.225 N 
HETATM   32  C11 UNL     1       9.190 -16.005  31.611  1.00  0.00     0.139 C 
ATOM     33  H9  UNL     1       7.968 -14.323  31.966  1.00  0.00     0.177 HD
HETATM   34  C12 UNL     1       9.294 -17.446  31.978  1.00  0.00     0.040 C 
HETATM   35  C13 UNL     1       8.826 -17.715  33.399  1.00  0.00     0.139 C 
HETATM   36  N10 UNL     1       7.542 -17.084  33.617  1.00  0.00    -0.225 N 
ATOM     37  H10 UNL     1       6.785 -17.593  34.075  1.00  0.00     0.177 HD
ENDBRANCH  28  30
ENDBRANCH  26  28
ENDBRANCH   4  24
TORSDOF 8
ENDMDL
MODEL 5
REMARK VINA RESULT: -6.747809979      6.439      8.014
REMARK  8 active torsions:
REMARK  status: ('A' for Active; 'I' for Inactive)
REMARK    1  A    between atoms: N1_2  and  N2_4 
REMARK    2  A    between atoms: N3_6  and  O1_7 
REMARK    3  A    between atoms: N3_6  and  N4_9 
REMARK       I    between atoms: N4_9  and  C2_11 
REMARK       I    between atoms: C2_11  and  N6_15 
REMARK    4  A    between atoms: N6_15  and  C3_17 
REMARK    5  A    between atoms: C3_17  and  C4_18 
REMARK    6  A    between atoms: C7_21  and  C8_22 
REMARK    7  A    between atoms: N7_24  and  N8_26 
REMARK    8  A    between atoms: N8_26  and  C10_28 
ROOT
HETATM    1  C4  UNL     1       6.664  -8.918  35.744  1.00  0.00    -0.040 A 
HETATM    2  C5  UNL     1       7.664  -9.838  35.546  1.00  0.00     0.010 A 
HETATM    3  C6  UNL     1       7.395 -11.161  35.181  1.00  0.00     0.014 A 
HETATM    4  C7  UNL     1       6.084 -11.573  35.010  1.00  0.00    -0.013 A 
HETATM    5  C14 UNL     1       5.074 -10.665  35.206  1.00  0.00     0.014 A 
HETATM    6  C15 UNL     1       5.372  -9.372  35.563  1.00  0.00     0.010 A 
ENDROOT
BRANCH   1   7
HETATM    7  C3  UNL     1       6.852  -7.513  36.127  1.00  0.00     0.176 C 
BRANCH   7   8
HETATM    8  N6  UNL     1       5.725  -6.852  36.681  1.00  0.00    -0.221 N 
HETATM    9  C2  UNL     1       5.847  -5.434  36.892  1.00  0.00     0.689 C 
HETATM   10  N4  UNL     1       5.056  -4.496  36.174  1.00  0.00    -0.089 N 
HETATM   11  N5  UNL     1       6.692  -4.951  37.753  1.00  0.00    -0.233 N 
ATOM     12  H4  UNL     1       5.528  -3.696  35.752  1.00  0.00     0.210 HD
ATOM     13  H52 UNL     1       6.779  -3.945  37.903  1.00  0.00     0.174 HD
ATOM     14  H51 UNL     1       7.260  -5.623  38.269  1.00  0.00     0.174 HD
ATOM     15  H6  UNL     1       4.871  -7.357  36.917  1.00  0.00     0.178 HD
BRANCH  10  16
HETATM   16  N3  UNL     1       3.681  -4.601  36.010  1.00  0.00    -0.065 N 
HETATM   17  N2  UNL     1       2.872  -4.459  36.962  1.00  0.00    -0.201 N 
ATOM     18  H2  UNL     1       1.880  -4.554  36.743  1.00  0.00     0.212 HD
BRANCH  17  19
HETATM   19  N1  UNL     1       3.197  -4.187  38.274  1.00  0.00    -0.304 N 
HETATM   20  C1  UNL     1       3.084  -5.095  39.176  1.00  0.00     0.140 C 
ATOM     21  H1  UNL     1       3.530  -3.257  38.531  1.00  0.00     0.186 HD
ENDBRANCH  17  19
BRANCH  16  22
HETATM   22  O1  UNL     1       3.197  -4.868  34.764  1.00  0.00    -0.252 OA
ATOM     23  H1  UNL     1       3.304  -4.220  34.078  1.00  0.00     0.248 HD
ENDBRANCH  16  22
ENDBRANCH  10  16
ENDBRANCH   7   8
ENDBRANCH   1   7
BRANCH   4  24
HETATM   24  C8  UNL     1       5.754 -12.934  34.633  1.00  0.00     0.032 C 
HETATM   25  C9  UNL     1       4.372 -13.418  34.851  1.00  0.00     0.070 C 
HETATM   26  N7  UNL     1       6.661 -13.683  34.125  1.00  0.00    -0.290 N 
ATOM     27  H7  UNL     1       7.589 -13.278  34.007  1.00  0.00     0.187 HD
BRANCH  26  28
HETATM   28  N8  UNL     1       6.488 -14.995  33.723  1.00  0.00    -0.132 N 
ATOM     29  H8  UNL     1       5.565 -15.416  33.829  1.00  0.00     0.205 HD
BRANCH  28  30
HETATM   30  C10 UNL     1       7.541 -15.797  33.163  1.00  0.00     0.688 C 
HETATM   31  N9  UNL     1       8.277 -15.359  32.206  1.00  0.00    -0.225 N 
HETATM   32  C11 UNL     1       9.356 -16.072  31.570  1.00  0.00     0.139 C 
ATOM     33  H9  UNL     1       8.080 -14.419  31.863  1.00  0.00     0.177 HD
HETATM   34  C12 UNL     1       9.520 -17.488  32.010  1.00  0.00     0.040 C 
HETATM   35  C13 UNL     1       9.090 -17.698  33.452  1.00  0.00     0.139 C 
HETATM   36  N10 UNL     1       7.787 -17.103  33.664  1.00  0.00    -0.225 N 
ATOM     37  H10 UNL     1       7.059 -17.613  34.164  1.00  0.00     0.177 HD
ENDBRANCH  28  30
ENDBRANCH  26  28
ENDBRANCH   4  24
TORSDOF 8
ENDMDL
