MODEL 1
REMARK VINA RESULT: -6.166551188      0.000      0.000
REMARK  12 active torsions:
REMARK  status: ('A' for Active; 'I' for Inactive)
REMARK    1  A    between atoms: C2_2  and  O1_4 
REMARK    2  A    between atoms: C2_2  and  C4_6 
REMARK    3  A    between atoms: C4_6  and  N1_7 
REMARK    4  A    between atoms: N1_7  and  C5_10 
REMARK    5  A    between atoms: C5_10  and  C7_12 
REMARK    6  A    between atoms: C5_10  and  C13_20 
REMARK    7  A    between atoms: C8_13  and  C9_14 
REMARK    8  A    between atoms: C9_14  and  C12_17 
REMARK    9  A    between atoms: C12_17  and  O2_18 
REMARK   10  A    between atoms: C13_20  and  S1_21 
REMARK   11  A    between atoms: S1_21  and  C14_22 
REMARK   12  A    between atoms: C15_25  and  N3_26 
ROOT
HETATM    1  C5  UNL     1       7.168  -6.986  33.966  1.00  0.00     0.193 C 
HETATM    2  C6  UNL     1       7.439  -7.288  32.527  1.00  0.00     0.061 C 
ENDROOT
BRANCH   1   3
HETATM    3  N1  UNL     1       8.336  -7.326  34.731  1.00  0.00    -0.052 N 
ATOM      4  H12 UNL     1       8.134  -7.276  35.730  1.00  0.00     0.279 HD
ATOM      5  H11 UNL     1       9.037  -6.588  34.658  1.00  0.00     0.279 HD
BRANCH   3   6
HETATM    6  C4  UNL     1       8.905  -8.585  34.402  1.00  0.00     0.271 C 
BRANCH   6   7
HETATM    7  C2  UNL     1       9.053  -9.486  35.620  1.00  0.00     0.074 C 
HETATM    8  C1  UNL     1       8.469  -8.852  36.855  1.00  0.00     0.047 C 
HETATM    9  C3  UNL     1       8.310 -10.769  35.316  1.00  0.00     0.047 C 
BRANCH   7  10
HETATM   10  O1  UNL     1      10.390  -9.815  35.838  1.00  0.00    -0.389 OA
ATOM     11  H1  UNL     1      10.648 -10.530  35.267  1.00  0.00     0.210 HD
ENDBRANCH   7  10
ENDBRANCH   6   7
ENDBRANCH   3   6
ENDBRANCH   1   3
BRANCH   1  12
HETATM   12  C7  UNL     1       6.075  -7.888  34.477  1.00  0.00    -0.066 C 
HETATM   13  C8  UNL     1       5.215  -8.625  34.888  1.00  0.00    -0.092 C 
BRANCH  13  14
HETATM   14  C9  UNL     1       4.188  -9.540  35.388  1.00  0.00     0.037 C 
HETATM   15  C10 UNL     1       4.806 -10.918  35.429  1.00  0.00     0.031 C 
HETATM   16  C11 UNL     1       3.036  -9.528  34.403  1.00  0.00     0.031 C 
BRANCH  14  17
HETATM   17  C12 UNL     1       3.664  -9.106  36.740  1.00  0.00     0.185 C 
BRANCH  17  18
HETATM   18  O2  UNL     1       3.603  -7.746  36.891  1.00  0.00    -0.399 OA
ATOM     19  H2  UNL     1       4.104  -7.425  37.631  1.00  0.00     0.209 HD
ENDBRANCH  17  18
ENDBRANCH  14  17
ENDBRANCH  13  14
ENDBRANCH   1  12
BRANCH   1  20
HETATM   20  C13 UNL     1       6.692  -5.600  34.159  1.00  0.00     0.134 C 
BRANCH  20  21
HETATM   21  S1  UNL     1       6.654  -5.042  35.825  1.00  0.00    -0.089 SA
BRANCH  21  22
HETATM   22  C14 UNL     1       5.075  -4.823  36.579  1.00  0.00     0.174 A 
HETATM   23  N2  UNL     1       4.822  -4.975  37.925  1.00  0.00    -0.168 N 
HETATM   24  C15 UNL     1       3.528  -4.760  38.161  1.00  0.00     0.692 A 
ATOM     25  H2  UNL     1       5.517  -5.214  38.632  1.00  0.00     0.186 HD
HETATM   26  N4  UNL     1       2.943  -4.476  37.006  1.00  0.00    -0.130 N 
HETATM   27  N5  UNL     1       3.878  -4.517  36.071  1.00  0.00    -0.265 N 
ATOM     28  H4  UNL     1       1.955  -4.265  36.864  1.00  0.00     0.205 HD
ATOM     29  H5  UNL     1       3.705  -4.336  35.082  1.00  0.00     0.189 HD
BRANCH  24  30
HETATM   30  N3  UNL     1       2.903  -4.812  39.308  1.00  0.00    -0.233 N 
ATOM     31  H32 UNL     1       3.363  -4.964  40.206  1.00  0.00     0.174 HD
ATOM     32  H31 UNL     1       1.902  -4.711  39.481  1.00  0.00     0.174 HD
ENDBRANCH  24  30
ENDBRANCH  21  22
ENDBRANCH  20  21
ENDBRANCH   1  20
TORSDOF 12
ENDMDL
MODEL 2
REMARK VINA RESULT: -6.069035139      1.094      1.522
REMARK  12 active torsions:
REMARK  status: ('A' for Active; 'I' for Inactive)
REMARK    1  A    between atoms: C2_2  and  O1_4 
REMARK    2  A    between atoms: C2_2  and  C4_6 
REMARK    3  A    between atoms: C4_6  and  N1_7 
REMARK    4  A    between atoms: N1_7  and  C5_10 
REMARK    5  A    between atoms: C5_10  and  C7_12 
REMARK    6  A    between atoms: C5_10  and  C13_20 
REMARK    7  A    between atoms: C8_13  and  C9_14 
REMARK    8  A    between atoms: C9_14  and  C12_17 
REMARK    9  A    between atoms: C12_17  and  O2_18 
REMARK   10  A    between atoms: C13_20  and  S1_21 
REMARK   11  A    between atoms: S1_21  and  C14_22 
REMARK   12  A    between atoms: C15_25  and  N3_26 
ROOT
HETATM    1  C5  UNL     1       7.341  -6.874  34.903  1.00  0.00     0.193 C 
HETATM    2  C6  UNL     1       6.876  -5.776  34.000  1.00  0.00     0.061 C 
ENDROOT
BRANCH   1   3
HETATM    3  N1  UNL     1       8.477  -7.511  34.297  1.00  0.00    -0.052 N 
ATOM      4  H12 UNL     1       8.849  -6.934  33.543  1.00  0.00     0.279 HD
ATOM      5  H11 UNL     1       8.183  -8.329  33.762  1.00  0.00     0.279 HD
BRANCH   3   6
HETATM    6  C4  UNL     1       9.508  -7.859  35.210  1.00  0.00     0.271 C 
BRANCH   6   7
HETATM    7  C2  UNL     1       9.710  -9.365  35.304  1.00  0.00     0.074 C 
HETATM    8  C1  UNL     1       8.920  -9.961  36.440  1.00  0.00     0.047 C 
HETATM    9  C3  UNL     1       9.233  -9.960  33.997  1.00  0.00     0.047 C 
BRANCH   7  10
HETATM   10  O1  UNL     1      11.060  -9.680  35.443  1.00  0.00    -0.389 OA
ATOM     11  H1  UNL     1      11.417  -9.258  36.216  1.00  0.00     0.210 HD
ENDBRANCH   7  10
ENDBRANCH   6   7
ENDBRANCH   3   6
ENDBRANCH   1   3
BRANCH   1  12
HETATM   12  C7  UNL     1       6.280  -7.939  34.994  1.00  0.00    -0.066 C 
HETATM   13  C8  UNL     1       5.446  -8.805  35.078  1.00  0.00    -0.092 C 
BRANCH  13  14
HETATM   14  C9  UNL     1       4.450  -9.871  35.192  1.00  0.00     0.037 C 
HETATM   15  C10 UNL     1       3.688  -9.628  36.475  1.00  0.00     0.031 C 
HETATM   16  C11 UNL     1       5.190 -11.189  35.282  1.00  0.00     0.031 C 
BRANCH  14  17
HETATM   17  C12 UNL     1       3.539  -9.917  33.985  1.00  0.00     0.185 C 
BRANCH  17  18
HETATM   18  O2  UNL     1       2.502  -9.023  34.049  1.00  0.00    -0.399 OA
ATOM     19  H2  UNL     1       2.519  -8.479  34.828  1.00  0.00     0.209 HD
ENDBRANCH  17  18
ENDBRANCH  14  17
ENDBRANCH  13  14
ENDBRANCH   1  12
BRANCH   1  20
HETATM   20  C13 UNL     1       7.571  -6.394  36.282  1.00  0.00     0.134 C 
BRANCH  20  21
HETATM   21  S1  UNL     1       6.897  -4.814  36.652  1.00  0.00    -0.089 SA
BRANCH  21  22
HETATM   22  C14 UNL     1       5.200  -4.738  37.124  1.00  0.00     0.174 A 
HETATM   23  N2  UNL     1       4.721  -5.056  38.377  1.00  0.00    -0.168 N 
HETATM   24  C15 UNL     1       3.396  -4.914  38.395  1.00  0.00     0.692 A 
ATOM     25  H2  UNL     1       5.291  -5.354  39.169  1.00  0.00     0.186 HD
HETATM   26  N4  UNL     1       3.011  -4.514  37.191  1.00  0.00    -0.130 N 
HETATM   27  N5  UNL     1       4.097  -4.414  36.444  1.00  0.00    -0.265 N 
ATOM     28  H4  UNL     1       2.054  -4.321  36.896  1.00  0.00     0.205 HD
ATOM     29  H5  UNL     1       4.093  -4.124  35.465  1.00  0.00     0.189 HD
BRANCH  24  30
HETATM   30  N3  UNL     1       2.581  -5.121  39.397  1.00  0.00    -0.233 N 
ATOM     31  H32 UNL     1       2.745  -4.790  40.348  1.00  0.00     0.174 HD
ATOM     32  H31 UNL     1       1.692  -5.622  39.386  1.00  0.00     0.174 HD
ENDBRANCH  24  30
ENDBRANCH  21  22
ENDBRANCH  20  21
ENDBRANCH   1  20
TORSDOF 12
ENDMDL
MODEL 3
REMARK VINA RESULT: -6.019867273      0.884      1.277
REMARK  12 active torsions:
REMARK  status: ('A' for Active; 'I' for Inactive)
REMARK    1  A    between atoms: C2_2  and  O1_4 
REMARK    2  A    between atoms: C2_2  and  C4_6 
REMARK    3  A    between atoms: C4_6  and  N1_7 
REMARK    4  A    between atoms: N1_7  and  C5_10 
REMARK    5  A    between atoms: C5_10  and  C7_12 
REMARK    6  A    between atoms: C5_10  and  C13_20 
REMARK    7  A    between atoms: C8_13  and  C9_14 
REMARK    8  A    between atoms: C9_14  and  C12_17 
REMARK    9  A    between atoms: C12_17  and  O2_18 
REMARK   10  A    between atoms: C13_20  and  S1_21 
REMARK   11  A    between atoms: S1_21  and  C14_22 
REMARK   12  A    between atoms: C15_25  and  N3_26 
ROOT
HETATM    1  C5  UNL     1       7.138  -7.035  33.949  1.00  0.00     0.193 C 
HETATM    2  C6  UNL     1       7.431  -7.292  32.505  1.00  0.00     0.061 C 
ENDROOT
BRANCH   1   3
HETATM    3  N1  UNL     1       8.301  -7.376  34.718  1.00  0.00    -0.052 N 
ATOM      4  H12 UNL     1       8.117  -7.257  35.715  1.00  0.00     0.279 HD
ATOM      5  H11 UNL     1       9.031  -6.675  34.591  1.00  0.00     0.279 HD
BRANCH   3   6
HETATM    6  C4  UNL     1       8.812  -8.676  34.461  1.00  0.00     0.271 C 
BRANCH   6   7
HETATM    7  C2  UNL     1       8.982  -9.491  35.736  1.00  0.00     0.074 C 
HETATM    8  C1  UNL     1       8.439  -8.763  36.937  1.00  0.00     0.047 C 
HETATM    9  C3  UNL     1       8.215 -10.782  35.543  1.00  0.00     0.047 C 
BRANCH   7  10
HETATM   10  O1  UNL     1      10.320  -9.824  35.941  1.00  0.00    -0.389 OA
ATOM     11  H1  UNL     1      10.434 -10.766  35.896  1.00  0.00     0.210 HD
ENDBRANCH   7  10
ENDBRANCH   6   7
ENDBRANCH   3   6
ENDBRANCH   1   3
BRANCH   1  12
HETATM   12  C7  UNL     1       6.053  -7.967  34.420  1.00  0.00    -0.066 C 
HETATM   13  C8  UNL     1       5.195  -8.730  34.786  1.00  0.00    -0.092 C 
BRANCH  13  14
HETATM   14  C9  UNL     1       4.163  -9.675  35.215  1.00  0.00     0.037 C 
HETATM   15  C10 UNL     1       2.969  -9.466  34.312  1.00  0.00     0.031 C 
HETATM   16  C11 UNL     1       3.787  -9.334  36.643  1.00  0.00     0.031 C 
BRANCH  14  17
HETATM   17  C12 UNL     1       4.663 -11.102  35.182  1.00  0.00     0.185 C 
BRANCH  17  18
HETATM   18  O2  UNL     1       4.370 -11.810  36.319  1.00  0.00    -0.399 OA
ATOM     19  H2  UNL     1       4.021 -11.272  37.020  1.00  0.00     0.209 HD
ENDBRANCH  17  18
ENDBRANCH  14  17
ENDBRANCH  13  14
ENDBRANCH   1  12
BRANCH   1  20
HETATM   20  C13 UNL     1       6.636  -5.662  34.173  1.00  0.00     0.134 C 
BRANCH  20  21
HETATM   21  S1  UNL     1       6.614  -5.134  35.849  1.00  0.00    -0.089 SA
BRANCH  21  22
HETATM   22  C14 UNL     1       5.042  -4.864  36.601  1.00  0.00     0.174 A 
HETATM   23  N2  UNL     1       4.746  -5.141  37.919  1.00  0.00    -0.168 N 
HETATM   24  C15 UNL     1       3.470  -4.843  38.160  1.00  0.00     0.692 A 
ATOM     25  H2  UNL     1       5.403  -5.516  38.604  1.00  0.00     0.186 HD
HETATM   26  N4  UNL     1       2.938  -4.383  37.036  1.00  0.00    -0.130 N 
HETATM   27  N5  UNL     1       3.887  -4.402  36.115  1.00  0.00    -0.265 N 
ATOM     28  H4  UNL     1       1.975  -4.074  36.906  1.00  0.00     0.205 HD
ATOM     29  H5  UNL     1       3.753  -4.099  35.150  1.00  0.00     0.189 HD
BRANCH  24  30
HETATM   30  N3  UNL     1       2.817  -4.966  39.286  1.00  0.00    -0.233 N 
ATOM     31  H32 UNL     1       3.204  -4.739  40.202  1.00  0.00     0.174 HD
ATOM     32  H31 UNL     1       1.860  -5.293  39.421  1.00  0.00     0.174 HD
ENDBRANCH  24  30
ENDBRANCH  21  22
ENDBRANCH  20  21
ENDBRANCH   1  20
TORSDOF 12
ENDMDL
MODEL 4
REMARK VINA RESULT: -5.905892630      2.152      2.677
REMARK  12 active torsions:
REMARK  status: ('A' for Active; 'I' for Inactive)
REMARK    1  A    between atoms: C2_2  and  O1_4 
REMARK    2  A    between atoms: C2_2  and  C4_6 
REMARK    3  A    between atoms: C4_6  and  N1_7 
REMARK    4  A    between atoms: N1_7  and  C5_10 
REMARK    5  A    between atoms: C5_10  and  C7_12 
REMARK    6  A    between atoms: C5_10  and  C13_20 
REMARK    7  A    between atoms: C8_13  and  C9_14 
REMARK    8  A    between atoms: C9_14  and  C12_17 
REMARK    9  A    between atoms: C12_17  and  O2_18 
REMARK   10  A    between atoms: C13_20  and  S1_21 
REMARK   11  A    between atoms: S1_21  and  C14_22 
REMARK   12  A    between atoms: C15_25  and  N3_26 
ROOT
HETATM    1  C5  UNL     1       7.116  -6.699  35.056  1.00  0.00     0.193 C 
HETATM    2  C6  UNL     1       6.685  -5.455  34.346  1.00  0.00     0.061 C 
ENDROOT
BRANCH   1   3
HETATM    3  N1  UNL     1       8.388  -7.107  34.530  1.00  0.00    -0.052 N 
ATOM      4  H12 UNL     1       8.854  -6.322  34.076  1.00  0.00     0.279 HD
ATOM      5  H11 UNL     1       8.260  -7.722  33.726  1.00  0.00     0.279 HD
BRANCH   3   6
HETATM    6  C4  UNL     1       9.249  -7.711  35.484  1.00  0.00     0.271 C 
BRANCH   6   7
HETATM    7  C2  UNL     1       9.644  -9.127  35.090  1.00  0.00     0.074 C 
HETATM    8  C1  UNL     1       8.655 -10.142  35.601  1.00  0.00     0.047 C 
HETATM    9  C3  UNL     1       9.673  -9.175  33.577  1.00  0.00     0.047 C 
BRANCH   7  10
HETATM   10  O1  UNL     1      10.925  -9.434  35.546  1.00  0.00    -0.389 OA
ATOM     11  H1  UNL     1      11.527  -8.733  35.326  1.00  0.00     0.210 HD
ENDBRANCH   7  10
ENDBRANCH   6   7
ENDBRANCH   3   6
ENDBRANCH   1   3
BRANCH   1  12
HETATM   12  C7  UNL     1       6.165  -7.822  34.734  1.00  0.00    -0.066 C 
HETATM   13  C8  UNL     1       5.421  -8.735  34.479  1.00  0.00    -0.092 C 
BRANCH  13  14
HETATM   14  C9  UNL     1       4.537  -9.860  34.171  1.00  0.00     0.037 C 
HETATM   15  C10 UNL     1       5.076 -11.060  34.915  1.00  0.00     0.031 C 
HETATM   16  C11 UNL     1       4.610 -10.112  32.679  1.00  0.00     0.031 C 
BRANCH  14  17
HETATM   17  C12 UNL     1       3.100  -9.558  34.534  1.00  0.00     0.185 C 
BRANCH  17  18
HETATM   18  O2  UNL     1       2.952  -9.048  35.798  1.00  0.00    -0.399 OA
ATOM     19  H2  UNL     1       2.065  -8.767  35.991  1.00  0.00     0.209 HD
ENDBRANCH  17  18
ENDBRANCH  14  17
ENDBRANCH  13  14
ENDBRANCH   1  12
BRANCH   1  20
HETATM   20  C13 UNL     1       7.086  -6.534  36.526  1.00  0.00     0.134 C 
BRANCH  20  21
HETATM   21  S1  UNL     1       5.501  -6.216  37.215  1.00  0.00    -0.089 SA
BRANCH  21  22
HETATM   22  C14 UNL     1       4.966  -7.243  38.545  1.00  0.00     0.174 A 
HETATM   23  N2  UNL     1       3.789  -7.962  38.556  1.00  0.00    -0.168 N 
HETATM   24  C15 UNL     1       3.677  -8.612  39.713  1.00  0.00     0.692 A 
ATOM     25  H2  UNL     1       3.109  -7.990  37.796  1.00  0.00     0.186 HD
HETATM   26  N4  UNL     1       4.746  -8.333  40.445  1.00  0.00    -0.130 N 
HETATM   27  N5  UNL     1       5.506  -7.515  39.736  1.00  0.00    -0.265 N 
ATOM     28  H4  UNL     1       4.945  -8.683  41.382  1.00  0.00     0.205 HD
ATOM     29  H5  UNL     1       6.397  -7.138  40.060  1.00  0.00     0.189 HD
BRANCH  24  30
HETATM   30  N3  UNL     1       2.704  -9.396  40.101  1.00  0.00    -0.233 N 
ATOM     31  H32 UNL     1       2.445 -10.264  39.631  1.00  0.00     0.174 HD
ATOM     32  H31 UNL     1       2.081  -9.271  40.898  1.00  0.00     0.174 HD
ENDBRANCH  24  30
ENDBRANCH  21  22
ENDBRANCH  20  21
ENDBRANCH   1  20
TORSDOF 12
ENDMDL
MODEL 5
REMARK VINA RESULT: -5.834876307      2.157      3.035
REMARK  12 active torsions:
REMARK  status: ('A' for Active; 'I' for Inactive)
REMARK    1  A    between atoms: C2_2  and  O1_4 
REMARK    2  A    between atoms: C2_2  and  C4_6 
REMARK    3  A    between atoms: C4_6  and  N1_7 
REMARK    4  A    between atoms: N1_7  and  C5_10 
REMARK    5  A    between atoms: C5_10  and  C7_12 
REMARK    6  A    between atoms: C5_10  and  C13_20 
REMARK    7  A    between atoms: C8_13  and  C9_14 
REMARK    8  A    between atoms: C9_14  and  C12_17 
REMARK    9  A    between atoms: C12_17  and  O2_18 
REMARK   10  A    between atoms: C13_20  and  S1_21 
REMARK   11  A    between atoms: S1_21  and  C14_22 
REMARK   12  A    between atoms: C15_25  and  N3_26 
ROOT
HETATM    1  C5  UNL     1       7.050  -7.139  36.212  1.00  0.00     0.193 C 
HETATM    2  C6  UNL     1       6.430  -7.390  34.875  1.00  0.00     0.061 C 
ENDROOT
BRANCH   1   3
HETATM    3  N1  UNL     1       8.124  -8.074  36.399  1.00  0.00    -0.052 N 
ATOM      4  H12 UNL     1       7.773  -9.031  36.367  1.00  0.00     0.279 HD
ATOM      5  H11 UNL     1       8.459  -8.044  37.363  1.00  0.00     0.279 HD
BRANCH   3   6
HETATM    6  C4  UNL     1       9.205  -7.912  35.493  1.00  0.00     0.271 C 
BRANCH   6   7
HETATM    7  C2  UNL     1       9.678  -9.239  34.917  1.00  0.00     0.074 C 
HETATM    8  C1  UNL     1       8.624 -10.306  35.043  1.00  0.00     0.047 C 
HETATM    9  C3  UNL     1       9.980  -9.004  33.452  1.00  0.00     0.047 C 
BRANCH   7  10
HETATM   10  O1  UNL     1      10.859  -9.657  35.528  1.00  0.00    -0.389 OA
ATOM     11  H1  UNL     1      11.472  -9.971  34.875  1.00  0.00     0.210 HD
ENDBRANCH   7  10
ENDBRANCH   6   7
ENDBRANCH   3   6
ENDBRANCH   1   3
BRANCH   1  12
HETATM   12  C7  UNL     1       6.053  -7.446  37.299  1.00  0.00    -0.066 C 
HETATM   13  C8  UNL     1       5.269  -7.681  38.183  1.00  0.00    -0.092 C 
BRANCH  13  14
HETATM   14  C9  UNL     1       4.333  -7.956  39.274  1.00  0.00     0.037 C 
HETATM   15  C10 UNL     1       3.461  -9.108  38.829  1.00  0.00     0.031 C 
HETATM   16  C11 UNL     1       3.480  -6.720  39.476  1.00  0.00     0.031 C 
BRANCH  14  17
HETATM   17  C12 UNL     1       5.056  -8.253  40.570  1.00  0.00     0.185 C 
BRANCH  17  18
HETATM   18  O2  UNL     1       6.361  -8.633  40.392  1.00  0.00    -0.399 OA
ATOM     19  H2  UNL     1       6.912  -7.943  40.043  1.00  0.00     0.209 HD
ENDBRANCH  17  18
ENDBRANCH  14  17
ENDBRANCH  13  14
ENDBRANCH   1  12
BRANCH   1  20
HETATM   20  C13 UNL     1       7.434  -5.722  36.385  1.00  0.00     0.134 C 
BRANCH  20  21
HETATM   21  S1  UNL     1       6.321  -4.751  37.337  1.00  0.00    -0.089 SA
BRANCH  21  22
HETATM   22  C14 UNL     1       4.678  -4.556  36.727  1.00  0.00     0.174 A 
HETATM   23  N2  UNL     1       4.326  -4.598  35.395  1.00  0.00    -0.168 N 
HETATM   24  C15 UNL     1       3.015  -4.394  35.275  1.00  0.00     0.692 A 
ATOM     25  H2  UNL     1       4.970  -4.759  34.620  1.00  0.00     0.186 HD
HETATM   26  N4  UNL     1       2.514  -4.222  36.491  1.00  0.00    -0.130 N 
HETATM   27  N5  UNL     1       3.518  -4.321  37.347  1.00  0.00    -0.265 N 
ATOM     28  H4  UNL     1       1.537  -4.045  36.723  1.00  0.00     0.205 HD
ATOM     29  H5  UNL     1       3.418  -4.229  38.358  1.00  0.00     0.189 HD
BRANCH  24  30
HETATM   30  N3  UNL     1       2.306  -4.359  34.177  1.00  0.00    -0.233 N 
ATOM     31  H32 UNL     1       2.033  -5.186  33.644  1.00  0.00     0.174 HD
ATOM     32  H31 UNL     1       1.930  -3.539  33.701  1.00  0.00     0.174 HD
ENDBRANCH  24  30
ENDBRANCH  21  22
ENDBRANCH  20  21
ENDBRANCH   1  20
TORSDOF 12
ENDMDL
