MODEL 1
REMARK VINA RESULT: -5.896216628      0.000      0.000
REMARK  7 active torsions:
REMARK  status: ('A' for Active; 'I' for Inactive)
REMARK    1  A    between atoms: C3_4  and  C4_5 
REMARK    2  A    between atoms: C4_5  and  S1_6 
REMARK    3  A    between atoms: S1_6  and  S2_7 
REMARK    4  A    between atoms: S2_7  and  C5_8 
REMARK    5  A    between atoms: C10_14  and  O2_15 
REMARK    6  A    between atoms: N2_18  and  N3_19 
REMARK    7  A    between atoms: C12_22  and  O3_23 
ROOT
HETATM    1  C1  UNL     1       2.139   0.766   8.207  1.00  0.00     0.044 C 
HETATM    2  C2  UNL     1       1.688   2.205   8.071  1.00  0.00     0.168 C 
HETATM    3  O1  UNL     1       2.201   2.692   6.885  1.00  0.00    -0.370 OA
HETATM    4  C3  UNL     1       1.732   3.994   6.611  1.00  0.00     0.172 C 
HETATM    5  C11 UNL     1       0.269   3.850   6.318  1.00  0.00     0.118 C 
HETATM    6  N2  UNL     1      -0.454   3.145   7.296  1.00  0.00    -0.279 N 
HETATM    7  C12 UNL     1       0.195   2.232   8.139  1.00  0.00     0.267 C 
ENDROOT
BRANCH   4   8
HETATM    8  C4  UNL     1       2.511   4.446   5.418  1.00  0.00     0.123 C 
BRANCH   8   9
HETATM    9  S1  UNL     1       2.599   6.199   5.145  1.00  0.00    -0.094 SA
BRANCH   9  10
HETATM   10  S2  UNL     1       0.764   7.099   4.680  1.00  0.00    -0.089 SA
BRANCH  10  11
HETATM   11  C5  UNL     1       0.019   7.942   6.087  1.00  0.00     0.097 C 
HETATM   12  C6  UNL     1       0.435   7.344   7.409  1.00  0.00     0.063 C 
HETATM   13  C7  UNL     1      -0.096   8.230   8.498  1.00  0.00     0.064 C 
HETATM   14  N1  UNL     1      -1.438   8.613   8.389  1.00  0.00    -0.376 N 
HETATM   15  C8  UNL     1      -2.330   8.223   9.420  1.00  0.00     0.154 C 
HETATM   16  C9  UNL     1      -1.981   8.844   7.112  1.00  0.00     0.095 C 
HETATM   17  C10 UNL     1      -1.494   7.883   6.047  1.00  0.00     0.171 C 
BRANCH  17  18
HETATM   18  O2  UNL     1      -1.894   6.577   6.405  1.00  0.00    -0.389 OA
ATOM     19  H2  UNL     1      -2.833   6.581   6.543  1.00  0.00     0.210 HD
ENDBRANCH  17  18
ENDBRANCH  10  11
ENDBRANCH   9  10
ENDBRANCH   8   9
ENDBRANCH   4   8
BRANCH   6  20
HETATM   20  N3  UNL     1      -1.601   3.738   7.767  1.00  0.00    -0.341 N 
ATOM     21  H32 UNL     1      -1.796   4.691   7.463  1.00  0.00     0.177 HD
ATOM     22  H31 UNL     1      -2.362   3.116   8.040  1.00  0.00     0.177 HD
ENDBRANCH   6  20
BRANCH   7  23
HETATM   23  O3  UNL     1      -0.322   0.940   7.878  1.00  0.00    -0.372 OA
ATOM     24  H3  UNL     1      -1.183   1.011   7.481  1.00  0.00     0.212 HD
ENDBRANCH   7  23
TORSDOF 7
ENDMDL
MODEL 2
REMARK VINA RESULT: -5.873603719      2.963      4.101
REMARK  7 active torsions:
REMARK  status: ('A' for Active; 'I' for Inactive)
REMARK    1  A    between atoms: C3_4  and  C4_5 
REMARK    2  A    between atoms: C4_5  and  S1_6 
REMARK    3  A    between atoms: S1_6  and  S2_7 
REMARK    4  A    between atoms: S2_7  and  C5_8 
REMARK    5  A    between atoms: C10_14  and  O2_15 
REMARK    6  A    between atoms: N2_18  and  N3_19 
REMARK    7  A    between atoms: C12_22  and  O3_23 
ROOT
HETATM    1  C1  UNL     1       1.214   3.436   6.783  1.00  0.00     0.044 C 
HETATM    2  C2  UNL     1      -0.096   3.420   7.543  1.00  0.00     0.168 C 
HETATM    3  O1  UNL     1      -0.283   4.681   8.074  1.00  0.00    -0.370 OA
HETATM    4  C3  UNL     1      -1.542   4.798   8.701  1.00  0.00     0.172 C 
HETATM    5  C11 UNL     1      -2.557   4.734   7.600  1.00  0.00     0.118 C 
HETATM    6  N2  UNL     1      -2.416   3.631   6.741  1.00  0.00    -0.279 N 
HETATM    7  C12 UNL     1      -1.174   2.993   6.600  1.00  0.00     0.267 C 
ENDROOT
BRANCH   4   8
HETATM    8  C4  UNL     1      -1.517   6.131   9.377  1.00  0.00     0.123 C 
BRANCH   8   9
HETATM    9  S1  UNL     1      -0.565   7.405   8.587  1.00  0.00    -0.094 SA
BRANCH   9  10
HETATM   10  S2  UNL     1      -1.377   8.108   6.787  1.00  0.00    -0.089 SA
BRANCH  10  11
HETATM   11  C5  UNL     1      -0.277   7.867   5.380  1.00  0.00     0.097 C 
HETATM   12  C6  UNL     1      -0.773   8.556   4.131  1.00  0.00     0.063 C 
HETATM   13  C7  UNL     1       0.301   8.439   3.089  1.00  0.00     0.064 C 
HETATM   14  N1  UNL     1       0.860   7.168   2.912  1.00  0.00    -0.376 N 
HETATM   15  C8  UNL     1       0.726   6.549   1.644  1.00  0.00     0.154 C 
HETATM   16  C9  UNL     1       1.018   6.329   4.031  1.00  0.00     0.095 C 
HETATM   17  C10 UNL     1      -0.121   6.402   5.027  1.00  0.00     0.171 C 
BRANCH  17  18
HETATM   18  O2  UNL     1      -1.304   5.973   4.389  1.00  0.00    -0.389 OA
ATOM     19  H2  UNL     1      -1.509   6.591   3.697  1.00  0.00     0.210 HD
ENDBRANCH  17  18
ENDBRANCH  10  11
ENDBRANCH   9  10
ENDBRANCH   8   9
ENDBRANCH   4   8
BRANCH   6  20
HETATM   20  N3  UNL     1      -3.543   2.881   6.503  1.00  0.00    -0.341 N 
ATOM     21  H32 UNL     1      -3.957   2.937   5.573  1.00  0.00     0.177 HD
ATOM     22  H31 UNL     1      -3.670   2.046   7.076  1.00  0.00     0.177 HD
ENDBRANCH   6  20
BRANCH   7  23
HETATM   23  O3  UNL     1      -0.739   3.157   5.264  1.00  0.00    -0.372 OA
ATOM     24  H3  UNL     1      -1.280   3.803   4.825  1.00  0.00     0.212 HD
ENDBRANCH   7  23
TORSDOF 7
ENDMDL
MODEL 3
REMARK VINA RESULT: -5.797493009      2.347      6.131
REMARK  7 active torsions:
REMARK  status: ('A' for Active; 'I' for Inactive)
REMARK    1  A    between atoms: C3_4  and  C4_5 
REMARK    2  A    between atoms: C4_5  and  S1_6 
REMARK    3  A    between atoms: S1_6  and  S2_7 
REMARK    4  A    between atoms: S2_7  and  C5_8 
REMARK    5  A    between atoms: C10_14  and  O2_15 
REMARK    6  A    between atoms: N2_18  and  N3_19 
REMARK    7  A    between atoms: C12_22  and  O3_23 
ROOT
HETATM    1  C1  UNL     1      -2.422  10.397  10.686  1.00  0.00     0.044 C 
HETATM    2  C2  UNL     1      -2.756   9.073  10.030  1.00  0.00     0.168 C 
HETATM    3  O1  UNL     1      -2.278   9.119   8.736  1.00  0.00    -0.370 OA
HETATM    4  C3  UNL     1      -2.435   7.879   8.080  1.00  0.00     0.172 C 
HETATM    5  C11 UNL     1      -1.494   6.932   8.761  1.00  0.00     0.118 C 
HETATM    6  N2  UNL     1      -1.620   6.891  10.160  1.00  0.00    -0.279 N 
HETATM    7  C12 UNL     1      -2.158   7.982  10.858  1.00  0.00     0.267 C 
ENDROOT
BRANCH   4   8
HETATM    8  C4  UNL     1      -2.055   8.139   6.659  1.00  0.00     0.123 C 
BRANCH   8   9
HETATM    9  S1  UNL     1      -2.330   6.814   5.508  1.00  0.00    -0.094 SA
BRANCH   9  10
HETATM   10  S2  UNL     1      -0.603   5.753   4.975  1.00  0.00    -0.089 SA
BRANCH  10  11
HETATM   11  C5  UNL     1       0.042   4.741   6.319  1.00  0.00     0.097 C 
HETATM   12  C6  UNL     1       1.145   3.813   5.869  1.00  0.00     0.063 C 
HETATM   13  C7  UNL     1       1.720   3.161   7.093  1.00  0.00     0.064 C 
HETATM   14  N1  UNL     1       0.800   2.631   8.004  1.00  0.00    -0.376 N 
HETATM   15  C8  UNL     1       0.844   1.238   8.264  1.00  0.00     0.154 C 
HETATM   16  C9  UNL     1      -0.428   3.290   8.199  1.00  0.00     0.095 C 
HETATM   17  C10 UNL     1      -1.030   3.866   6.934  1.00  0.00     0.171 C 
BRANCH  17  18
HETATM   18  O2  UNL     1      -1.299   2.806   6.041  1.00  0.00    -0.389 OA
ATOM     19  H2  UNL     1      -1.108   3.103   5.160  1.00  0.00     0.210 HD
ENDBRANCH  17  18
ENDBRANCH  10  11
ENDBRANCH   9  10
ENDBRANCH   8   9
ENDBRANCH   4   8
BRANCH   6  20
HETATM   20  N3  UNL     1      -1.741   5.648  10.736  1.00  0.00    -0.341 N 
ATOM     21  H32 UNL     1      -1.002   4.971  10.551  1.00  0.00     0.177 HD
ATOM     22  H31 UNL     1      -2.295   5.590  11.591  1.00  0.00     0.177 HD
ENDBRANCH   6  20
BRANCH   7  23
HETATM   23  O3  UNL     1      -1.150   8.512  11.700  1.00  0.00    -0.372 OA
ATOM     24  H3  UNL     1      -1.537   8.826  12.509  1.00  0.00     0.212 HD
ENDBRANCH   7  23
TORSDOF 7
ENDMDL
MODEL 4
REMARK VINA RESULT: -5.792726139      1.183      1.538
REMARK  7 active torsions:
REMARK  status: ('A' for Active; 'I' for Inactive)
REMARK    1  A    between atoms: C3_4  and  C4_5 
REMARK    2  A    between atoms: C4_5  and  S1_6 
REMARK    3  A    between atoms: S1_6  and  S2_7 
REMARK    4  A    between atoms: S2_7  and  C5_8 
REMARK    5  A    between atoms: C10_14  and  O2_15 
REMARK    6  A    between atoms: N2_18  and  N3_19 
REMARK    7  A    between atoms: C12_22  and  O3_23 
ROOT
HETATM    1  C1  UNL     1       1.946   0.854   8.406  1.00  0.00     0.044 C 
HETATM    2  C2  UNL     1       1.460   2.262   8.133  1.00  0.00     0.168 C 
HETATM    3  O1  UNL     1       2.063   2.691   6.968  1.00  0.00    -0.370 OA
HETATM    4  C3  UNL     1       1.576   3.953   6.566  1.00  0.00     0.172 C 
HETATM    5  C11 UNL     1       0.152   3.731   6.154  1.00  0.00     0.118 C 
HETATM    6  N2  UNL     1      -0.633   3.062   7.109  1.00  0.00    -0.279 N 
HETATM    7  C12 UNL     1      -0.033   2.232   8.067  1.00  0.00     0.267 C 
ENDROOT
BRANCH   4   8
HETATM    8  C4  UNL     1       2.444   4.358   5.419  1.00  0.00     0.123 C 
BRANCH   8   9
HETATM    9  S1  UNL     1       2.429   6.080   4.981  1.00  0.00    -0.094 SA
BRANCH   9  10
HETATM   10  S2  UNL     1       1.965   7.376   6.562  1.00  0.00    -0.089 SA
BRANCH  10  11
HETATM   11  C5  UNL     1       0.198   7.453   6.911  1.00  0.00     0.097 C 
HETATM   12  C6  UNL     1      -0.387   8.818   6.642  1.00  0.00     0.063 C 
HETATM   13  C7  UNL     1      -1.877   8.713   6.792  1.00  0.00     0.064 C 
HETATM   14  N1  UNL     1      -2.341   8.057   7.938  1.00  0.00    -0.376 N 
HETATM   15  C8  UNL     1      -3.141   8.791   8.850  1.00  0.00     0.154 C 
HETATM   16  C9  UNL     1      -1.611   6.967   8.444  1.00  0.00     0.095 C 
HETATM   17  C10 UNL     1      -0.107   7.133   8.359  1.00  0.00     0.171 C 
BRANCH  17  18
HETATM   18  O2  UNL     1       0.266   8.245   9.145  1.00  0.00    -0.389 OA
ATOM     19  H2  UNL     1       0.090   8.038  10.055  1.00  0.00     0.210 HD
ENDBRANCH  17  18
ENDBRANCH  10  11
ENDBRANCH   9  10
ENDBRANCH   8   9
ENDBRANCH   4   8
BRANCH   6  20
HETATM   20  N3  UNL     1      -1.838   3.637   7.436  1.00  0.00    -0.341 N 
ATOM     21  H32 UNL     1      -1.828   4.615   7.724  1.00  0.00     0.177 HD
ATOM     22  H31 UNL     1      -2.672   3.231   7.012  1.00  0.00     0.177 HD
ENDBRANCH   6  20
BRANCH   7  23
HETATM   23  O3  UNL     1      -0.479   0.906   7.849  1.00  0.00    -0.372 OA
ATOM     24  H3  UNL     1      -0.889   0.569   8.637  1.00  0.00     0.212 HD
ENDBRANCH   7  23
TORSDOF 7
ENDMDL
MODEL 5
REMARK VINA RESULT: -5.781234670      8.335      9.544
REMARK  7 active torsions:
REMARK  status: ('A' for Active; 'I' for Inactive)
REMARK    1  A    between atoms: C3_4  and  C4_5 
REMARK    2  A    between atoms: C4_5  and  S1_6 
REMARK    3  A    between atoms: S1_6  and  S2_7 
REMARK    4  A    between atoms: S2_7  and  C5_8 
REMARK    5  A    between atoms: C10_14  and  O2_15 
REMARK    6  A    between atoms: N2_18  and  N3_19 
REMARK    7  A    between atoms: C12_22  and  O3_23 
ROOT
HETATM    1  C1  UNL     1       6.637   6.209  14.879  1.00  0.00     0.044 C 
HETATM    2  C2  UNL     1       5.385   7.009  15.175  1.00  0.00     0.168 C 
HETATM    3  O1  UNL     1       4.474   6.740  14.173  1.00  0.00    -0.370 OA
HETATM    4  C3  UNL     1       3.227   7.349  14.428  1.00  0.00     0.172 C 
HETATM    5  C11 UNL     1       2.655   6.632  15.614  1.00  0.00     0.118 C 
HETATM    6  N2  UNL     1       3.521   6.551  16.719  1.00  0.00    -0.279 N 
HETATM    7  C12 UNL     1       4.909   6.636  16.542  1.00  0.00     0.267 C 
ENDROOT
BRANCH   4   8
HETATM    8  C4  UNL     1       2.424   7.128  13.187  1.00  0.00     0.123 C 
BRANCH   8   9
HETATM    9  S1  UNL     1       2.841   8.132  11.783  1.00  0.00    -0.094 SA
BRANCH   9  10
HETATM   10  S2  UNL     1       4.188   7.241  10.446  1.00  0.00    -0.089 SA
BRANCH  10  11
HETATM   11  C5  UNL     1       5.875   7.842  10.645  1.00  0.00     0.097 C 
HETATM   12  C6  UNL     1       6.482   8.310   9.344  1.00  0.00     0.063 C 
HETATM   13  C7  UNL     1       7.803   8.948   9.660  1.00  0.00     0.064 C 
HETATM   14  N1  UNL     1       8.650   8.232  10.514  1.00  0.00    -0.376 N 
HETATM   15  C8  UNL     1       9.913   7.825  10.015  1.00  0.00     0.154 C 
HETATM   16  C9  UNL     1       8.087   7.473  11.557  1.00  0.00     0.095 C 
HETATM   17  C10 UNL     1       6.798   6.770  11.186  1.00  0.00     0.171 C 
BRANCH  17  18
HETATM   18  O2  UNL     1       7.068   5.854  10.147  1.00  0.00    -0.389 OA
ATOM     19  H2  UNL     1       6.259   5.687   9.680  1.00  0.00     0.210 HD
ENDBRANCH  17  18
ENDBRANCH  10  11
ENDBRANCH   9  10
ENDBRANCH   8   9
ENDBRANCH   4   8
BRANCH   6  20
HETATM   20  N3  UNL     1       3.013   6.940  17.936  1.00  0.00    -0.341 N 
ATOM     21  H32 UNL     1       3.167   7.906  18.221  1.00  0.00     0.177 HD
ATOM     22  H31 UNL     1       2.209   6.419  18.287  1.00  0.00     0.177 HD
ENDBRANCH   6  20
BRANCH   7  23
HETATM   23  O3  UNL     1       5.484   5.403  16.933  1.00  0.00    -0.372 OA
ATOM     24  H3  UNL     1       5.053   4.688  16.480  1.00  0.00     0.212 HD
ENDBRANCH   7  23
TORSDOF 7
ENDMDL
