MODEL 1
REMARK VINA RESULT: -6.008768125      0.000      0.000
REMARK  9 active torsions:
REMARK  status: ('A' for Active; 'I' for Inactive)
REMARK    1  A    between atoms: O1_2  and  S1_3 
REMARK    2  A    between atoms: S1_3  and  S2_4 
REMARK    3  A    between atoms: S2_4  and  C2_5 
REMARK    4  A    between atoms: C3_6  and  O2_7 
REMARK    5  A    between atoms: C4_9  and  O3_10 
REMARK    6  A    between atoms: C5_12  and  O4_13 
REMARK    7  A    between atoms: C6_15  and  C7_16 
REMARK    8  A    between atoms: C7_16  and  O5_17 
REMARK    9  A    between atoms: C8_19  and  C9_20 
ROOT
HETATM    1  C2  UNL     1       0.314   3.598   7.840  1.00  0.00     0.097 C 
HETATM    2  C3  UNL     1      -0.721   2.886   7.030  1.00  0.00     0.164 C 
HETATM    3  C4  UNL     1      -2.036   3.603   7.183  1.00  0.00     0.177 C 
HETATM    4  C5  UNL     1      -1.836   4.893   6.444  1.00  0.00     0.156 C 
HETATM    5  C6  UNL     1      -0.823   5.733   7.124  1.00  0.00     0.046 C 
HETATM    6  C8  UNL     1       0.389   5.081   7.677  1.00  0.00     0.019 C 
ENDROOT
BRANCH   1   7
HETATM    7  S2  UNL     1       1.870   2.721   7.459  1.00  0.00    -0.060 SA
BRANCH   7   8
HETATM    8  S1  UNL     1       2.181   1.177   8.878  1.00  0.00     0.063 SA
BRANCH   8   9
HETATM    9  O1  UNL     1       0.868   1.042   9.979  1.00  0.00    -0.315 OA
HETATM   10  C1  UNL     1       1.266   0.359  11.136  1.00  0.00     0.221 C 
ENDBRANCH   8   9
ENDBRANCH   7   8
ENDBRANCH   1   7
BRANCH   2  11
HETATM   11  O2  UNL     1      -0.807   1.571   7.494  1.00  0.00    -0.392 OA
ATOM     12  H2  UNL     1      -1.553   1.158   7.075  1.00  0.00     0.210 HD
ENDBRANCH   2  11
BRANCH   6  13
HETATM   13  C9  UNL     1       1.700   5.549   7.071  1.00  0.00    -0.046 C 
HETATM   14  C10 UNL     1       2.177   4.704   5.922  1.00  0.00     0.015 C 
HETATM   15  C11 UNL     1       1.538   6.952   6.526  1.00  0.00     0.015 C 
HETATM   16  C12 UNL     1       2.776   5.682   8.148  1.00  0.00     0.015 C 
ENDBRANCH   6  13
BRANCH   3  17
HETATM   17  O3  UNL     1      -3.086   2.850   6.628  1.00  0.00    -0.390 OA
ATOM     18  H3  UNL     1      -3.930   3.183   6.912  1.00  0.00     0.210 HD
ENDBRANCH   3  17
BRANCH   5  19
HETATM   19  C7  UNL     1      -1.546   6.660   8.086  1.00  0.00     0.172 C 
BRANCH  19  20
HETATM   20  O5  UNL     1      -1.787   7.920   7.612  1.00  0.00    -0.400 OA
ATOM     21  H5  UNL     1      -2.263   8.492   8.203  1.00  0.00     0.209 HD
ENDBRANCH  19  20
ENDBRANCH   5  19
BRANCH   4  22
HETATM   22  O4  UNL     1      -3.050   5.592   6.435  1.00  0.00    -0.392 OA
ATOM     23  H4  UNL     1      -2.866   6.514   6.297  1.00  0.00     0.210 HD
ENDBRANCH   4  22
TORSDOF 9
ENDMDL
MODEL 2
REMARK VINA RESULT: -5.759512182      2.893      4.972
REMARK  9 active torsions:
REMARK  status: ('A' for Active; 'I' for Inactive)
REMARK    1  A    between atoms: O1_2  and  S1_3 
REMARK    2  A    between atoms: S1_3  and  S2_4 
REMARK    3  A    between atoms: S2_4  and  C2_5 
REMARK    4  A    between atoms: C3_6  and  O2_7 
REMARK    5  A    between atoms: C4_9  and  O3_10 
REMARK    6  A    between atoms: C5_12  and  O4_13 
REMARK    7  A    between atoms: C6_15  and  C7_16 
REMARK    8  A    between atoms: C7_16  and  O5_17 
REMARK    9  A    between atoms: C8_19  and  C9_20 
ROOT
HETATM    1  C2  UNL     1      -0.124   4.956   5.097  1.00  0.00     0.097 C 
HETATM    2  C3  UNL     1      -0.594   6.342   4.794  1.00  0.00     0.164 C 
HETATM    3  C4  UNL     1      -2.061   6.438   5.115  1.00  0.00     0.177 C 
HETATM    4  C5  UNL     1      -2.113   6.368   6.613  1.00  0.00     0.156 C 
HETATM    5  C6  UNL     1      -1.670   5.037   7.088  1.00  0.00     0.046 C 
HETATM    6  C8  UNL     1      -0.509   4.392   6.424  1.00  0.00     0.019 C 
ENDROOT
BRANCH   1   7
HETATM    7  S2  UNL     1       1.678   5.014   4.801  1.00  0.00    -0.060 SA
BRANCH   7   8
HETATM    8  S1  UNL     1       2.108   4.239   2.876  1.00  0.00     0.063 SA
BRANCH   8   9
HETATM    9  O1  UNL     1       1.416   5.199   1.628  1.00  0.00    -0.315 OA
HETATM   10  C1  UNL     1       2.404   5.621   0.728  1.00  0.00     0.221 C 
ENDBRANCH   8   9
ENDBRANCH   7   8
ENDBRANCH   1   7
BRANCH   2  11
HETATM   11  O2  UNL     1      -0.356   6.596   3.441  1.00  0.00    -0.392 OA
ATOM     12  H2  UNL     1      -0.681   7.466   3.242  1.00  0.00     0.210 HD
ENDBRANCH   2  11
BRANCH   6  13
HETATM   13  C9  UNL     1       0.679   4.128   7.330  1.00  0.00    -0.046 C 
HETATM   14  C10 UNL     1       1.398   5.374   7.771  1.00  0.00     0.015 C 
HETATM   15  C11 UNL     1       0.215   3.438   8.595  1.00  0.00     0.015 C 
HETATM   16  C12 UNL     1       1.641   3.131   6.684  1.00  0.00     0.015 C 
ENDBRANCH   6  13
BRANCH   3  17
HETATM   17  O3  UNL     1      -2.602   7.646   4.638  1.00  0.00    -0.390 OA
ATOM     18  H3  UNL     1      -3.254   7.484   3.966  1.00  0.00     0.210 HD
ENDBRANCH   3  17
BRANCH   5  19
HETATM   19  C7  UNL     1      -2.897   4.153   7.232  1.00  0.00     0.172 C 
BRANCH  19  20
HETATM   20  O5  UNL     1      -2.819   2.940   6.604  1.00  0.00    -0.400 OA
ATOM     21  H5  UNL     1      -3.449   2.805   5.904  1.00  0.00     0.209 HD
ENDBRANCH  19  20
ENDBRANCH   5  19
BRANCH   4  22
HETATM   22  O4  UNL     1      -3.440   6.559   7.020  1.00  0.00    -0.392 OA
ATOM     23  H4  UNL     1      -3.591   6.044   7.804  1.00  0.00     0.210 HD
ENDBRANCH   4  22
TORSDOF 9
ENDMDL
MODEL 3
REMARK VINA RESULT: -5.598149695      3.192      5.337
REMARK  9 active torsions:
REMARK  status: ('A' for Active; 'I' for Inactive)
REMARK    1  A    between atoms: O1_2  and  S1_3 
REMARK    2  A    between atoms: S1_3  and  S2_4 
REMARK    3  A    between atoms: S2_4  and  C2_5 
REMARK    4  A    between atoms: C3_6  and  O2_7 
REMARK    5  A    between atoms: C4_9  and  O3_10 
REMARK    6  A    between atoms: C5_12  and  O4_13 
REMARK    7  A    between atoms: C6_15  and  C7_16 
REMARK    8  A    between atoms: C7_16  and  O5_17 
REMARK    9  A    between atoms: C8_19  and  C9_20 
ROOT
HETATM    1  C2  UNL     1      -0.294   5.652   4.700  1.00  0.00     0.097 C 
HETATM    2  C3  UNL     1      -1.205   6.616   5.390  1.00  0.00     0.164 C 
HETATM    3  C4  UNL     1      -2.269   5.841   6.120  1.00  0.00     0.177 C 
HETATM    4  C5  UNL     1      -1.532   5.184   7.250  1.00  0.00     0.156 C 
HETATM    5  C6  UNL     1      -0.570   4.183   6.732  1.00  0.00     0.046 C 
HETATM    6  C8  UNL     1       0.216   4.510   5.517  1.00  0.00     0.019 C 
ENDROOT
BRANCH   1   7
HETATM    7  S2  UNL     1       1.015   6.702   3.980  1.00  0.00    -0.060 SA
BRANCH   7   8
HETATM    8  S1  UNL     1       0.863   6.677   1.866  1.00  0.00     0.063 SA
BRANCH   8   9
HETATM    9  O1  UNL     1       1.596   5.279   1.185  1.00  0.00    -0.315 OA
HETATM   10  C1  UNL     1       2.865   5.588   0.677  1.00  0.00     0.221 C 
ENDBRANCH   8   9
ENDBRANCH   7   8
ENDBRANCH   1   7
BRANCH   2  11
HETATM   11  O2  UNL     1      -1.766   7.452   4.422  1.00  0.00    -0.392 OA
ATOM     12  H2  UNL     1      -2.621   7.728   4.729  1.00  0.00     0.210 HD
ENDBRANCH   2  11
BRANCH   6  13
HETATM   13  C9  UNL     1       1.720   4.544   5.718  1.00  0.00    -0.046 C 
HETATM   14  C10 UNL     1       2.225   5.820   6.333  1.00  0.00     0.015 C 
HETATM   15  C11 UNL     1       2.135   3.430   6.655  1.00  0.00     0.015 C 
HETATM   16  C12 UNL     1       2.447   4.232   4.411  1.00  0.00     0.015 C 
ENDBRANCH   6  13
BRANCH   3  17
HETATM   17  O3  UNL     1      -3.278   6.698   6.595  1.00  0.00    -0.390 OA
ATOM     18  H3  UNL     1      -2.910   7.516   6.909  1.00  0.00     0.210 HD
ENDBRANCH   3  17
BRANCH   5  19
HETATM   19  C7  UNL     1      -1.264   2.832   6.701  1.00  0.00     0.172 C 
BRANCH  19  20
HETATM   20  O5  UNL     1      -0.872   1.952   7.672  1.00  0.00    -0.400 OA
ATOM     21  H5  UNL     1      -1.576   1.582   8.192  1.00  0.00     0.209 HD
ENDBRANCH  19  20
ENDBRANCH   5  19
BRANCH   4  22
HETATM   22  O4  UNL     1      -2.462   4.520   8.060  1.00  0.00    -0.392 OA
ATOM     23  H4  UNL     1      -3.162   5.126   8.273  1.00  0.00     0.210 HD
ENDBRANCH   4  22
TORSDOF 9
ENDMDL
MODEL 4
REMARK VINA RESULT: -5.577717242      2.601      4.839
REMARK  9 active torsions:
REMARK  status: ('A' for Active; 'I' for Inactive)
REMARK    1  A    between atoms: O1_2  and  S1_3 
REMARK    2  A    between atoms: S1_3  and  S2_4 
REMARK    3  A    between atoms: S2_4  and  C2_5 
REMARK    4  A    between atoms: C3_6  and  O2_7 
REMARK    5  A    between atoms: C4_9  and  O3_10 
REMARK    6  A    between atoms: C5_12  and  O4_13 
REMARK    7  A    between atoms: C6_15  and  C7_16 
REMARK    8  A    between atoms: C7_16  and  O5_17 
REMARK    9  A    between atoms: C8_19  and  C9_20 
ROOT
HETATM    1  C2  UNL     1      -0.057   4.595   5.213  1.00  0.00     0.097 C 
HETATM    2  C3  UNL     1      -0.432   5.990   4.829  1.00  0.00     0.164 C 
HETATM    3  C4  UNL     1      -1.905   6.182   5.073  1.00  0.00     0.177 C 
HETATM    4  C5  UNL     1      -2.030   6.183   6.568  1.00  0.00     0.156 C 
HETATM    5  C6  UNL     1      -1.686   4.853   7.121  1.00  0.00     0.046 C 
HETATM    6  C8  UNL     1      -0.536   4.115   6.544  1.00  0.00     0.019 C 
ENDROOT
BRANCH   1   7
HETATM    7  S2  UNL     1       1.756   4.540   5.003  1.00  0.00    -0.060 SA
BRANCH   7   8
HETATM    8  S1  UNL     1       2.548   6.501   5.146  1.00  0.00     0.063 SA
BRANCH   8   9
HETATM    9  O1  UNL     1       2.730   7.235   3.601  1.00  0.00    -0.315 OA
HETATM   10  C1  UNL     1       2.474   8.610   3.678  1.00  0.00     0.221 C 
ENDBRANCH   8   9
ENDBRANCH   7   8
ENDBRANCH   1   7
BRANCH   2  11
HETATM   11  O2  UNL     1      -0.118   6.168   3.479  1.00  0.00    -0.392 OA
ATOM     12  H2  UNL     1       0.198   7.056   3.364  1.00  0.00     0.210 HD
ENDBRANCH   2  11
BRANCH   6  13
HETATM   13  C9  UNL     1       0.593   3.828   7.517  1.00  0.00    -0.046 C 
HETATM   14  C10 UNL     1       1.193   5.060   8.137  1.00  0.00     0.015 C 
HETATM   15  C11 UNL     1       0.077   2.986   8.664  1.00  0.00     0.015 C 
HETATM   16  C12 UNL     1       1.665   2.959   6.860  1.00  0.00     0.015 C 
ENDBRANCH   6  13
BRANCH   3  17
HETATM   17  O3  UNL     1      -2.353   7.394   4.519  1.00  0.00    -0.390 OA
ATOM     18  H3  UNL     1      -3.302   7.422   4.483  1.00  0.00     0.210 HD
ENDBRANCH   3  17
BRANCH   5  19
HETATM   19  C7  UNL     1      -2.967   4.046   7.244  1.00  0.00     0.172 C 
BRANCH  19  20
HETATM   20  O5  UNL     1      -2.954   2.831   6.615  1.00  0.00    -0.400 OA
ATOM     21  H5  UNL     1      -3.691   2.665   6.039  1.00  0.00     0.209 HD
ENDBRANCH  19  20
ENDBRANCH   5  19
BRANCH   4  22
HETATM   22  O4  UNL     1      -3.361   6.466   6.902  1.00  0.00    -0.392 OA
ATOM     23  H4  UNL     1      -3.406   7.357   7.230  1.00  0.00     0.210 HD
ENDBRANCH   4  22
TORSDOF 9
ENDMDL
MODEL 5
REMARK VINA RESULT: -5.570205580      2.866      5.042
REMARK  9 active torsions:
REMARK  status: ('A' for Active; 'I' for Inactive)
REMARK    1  A    between atoms: O1_2  and  S1_3 
REMARK    2  A    between atoms: S1_3  and  S2_4 
REMARK    3  A    between atoms: S2_4  and  C2_5 
REMARK    4  A    between atoms: C3_6  and  O2_7 
REMARK    5  A    between atoms: C4_9  and  O3_10 
REMARK    6  A    between atoms: C5_12  and  O4_13 
REMARK    7  A    between atoms: C6_15  and  C7_16 
REMARK    8  A    between atoms: C7_16  and  O5_17 
REMARK    9  A    between atoms: C8_19  and  C9_20 
ROOT
HETATM    1  C2  UNL     1       0.266   6.061   7.275  1.00  0.00     0.097 C 
HETATM    2  C3  UNL     1      -0.409   5.578   6.032  1.00  0.00     0.164 C 
HETATM    3  C4  UNL     1      -0.254   4.084   5.944  1.00  0.00     0.177 C 
HETATM    4  C5  UNL     1      -1.127   3.560   7.046  1.00  0.00     0.156 C 
HETATM    5  C6  UNL     1      -0.592   3.957   8.369  1.00  0.00     0.046 C 
HETATM    6  C8  UNL     1      -0.048   5.327   8.537  1.00  0.00     0.019 C 
ENDROOT
BRANCH   1   7
HETATM    7  S2  UNL     1      -0.114   7.847   7.332  1.00  0.00    -0.060 SA
BRANCH   7   8
HETATM    8  S1  UNL     1       1.592   8.956   6.741  1.00  0.00     0.063 SA
BRANCH   8   9
HETATM    9  O1  UNL     1       2.396   8.235   5.403  1.00  0.00    -0.315 OA
HETATM   10  C1  UNL     1       3.459   7.434   5.842  1.00  0.00     0.221 C 
ENDBRANCH   8   9
ENDBRANCH   7   8
ENDBRANCH   1   7
BRANCH   2  11
HETATM   11  O2  UNL     1       0.187   6.212   4.939  1.00  0.00    -0.392 OA
ATOM     12  H2  UNL     1       1.064   5.863   4.838  1.00  0.00     0.210 HD
ENDBRANCH   2  11
BRANCH   6  13
HETATM   13  C9  UNL     1      -0.770   6.181   9.562  1.00  0.00    -0.046 C 
HETATM   14  C10 UNL     1      -1.961   6.917   9.012  1.00  0.00     0.015 C 
HETATM   15  C11 UNL     1      -1.295   5.304  10.679  1.00  0.00     0.015 C 
HETATM   16  C12 UNL     1       0.203   7.136  10.253  1.00  0.00     0.015 C 
ENDBRANCH   6  13
BRANCH   3  17
HETATM   17  O3  UNL     1      -0.670   3.608   4.688  1.00  0.00    -0.390 OA
ATOM     18  H3  UNL     1       0.015   3.096   4.274  1.00  0.00     0.210 HD
ENDBRANCH   3  17
BRANCH   5  19
HETATM   19  C7  UNL     1       0.313   2.843   8.867  1.00  0.00     0.172 C 
BRANCH  19  20
HETATM   20  O5  UNL     1      -0.279   1.944   9.711  1.00  0.00    -0.400 OA
ATOM     21  H5  UNL     1       0.118   1.874  10.572  1.00  0.00     0.209 HD
ENDBRANCH  19  20
ENDBRANCH   5  19
BRANCH   4  22
HETATM   22  O4  UNL     1      -1.136   2.161   6.978  1.00  0.00    -0.392 OA
ATOM     23  H4  UNL     1      -1.969   1.882   6.617  1.00  0.00     0.210 HD
ENDBRANCH   4  22
TORSDOF 9
ENDMDL
