MODEL 1
REMARK VINA RESULT: -6.535628722      0.000      0.000
REMARK  7 active torsions:
REMARK  status: ('A' for Active; 'I' for Inactive)
REMARK    1  A    between atoms: C5_5  and  O1_6 
REMARK    2  A    between atoms: C6_8  and  O2_9 
REMARK    3  A    between atoms: N1_11  and  C7_12 
REMARK    4  A    between atoms: N2_14  and  C9_15 
REMARK    5  A    between atoms: C9_15  and  C10_16 
REMARK    6  A    between atoms: C10_16  and  O3_17 
REMARK    7  A    between atoms: N3_21  and  C12_22 
ROOT
HETATM    1  C7  UNL     1      -0.645   5.571   5.954  1.00  0.00     0.126 A 
HETATM    2  C8  UNL     1      -1.596   6.578   5.932  1.00  0.00     0.142 A 
HETATM    3  N2  UNL     1      -1.286   7.474   4.980  1.00  0.00    -0.328 N 
HETATM    4  C11 UNL     1      -0.155   7.016   4.423  1.00  0.00     0.182 A 
HETATM    5  S1  UNL     1       0.594   7.816   3.181  1.00  0.00    -0.040 SA
HETATM    6  N3  UNL     1       0.239   5.868   5.006  1.00  0.00    -0.304 N 
ENDROOT
BRANCH   1   7
HETATM    7  N1  UNL     1      -0.720   4.479   6.852  1.00  0.00    -0.328 N 
HETATM    8  C2  UNL     1      -0.484   4.579   8.276  1.00  0.00     0.032 C 
HETATM    9  C1  UNL     1      -1.650   5.156   9.007  1.00  0.00     0.038 C 
HETATM   10  C3  UNL     1       0.726   5.454   8.576  1.00  0.00     0.038 C 
HETATM   11  C4  UNL     1      -0.190   3.210   8.794  1.00  0.00     0.066 C 
HETATM   12  C5  UNL     1      -0.080   2.332   7.576  1.00  0.00     0.169 C 
HETATM   13  C6  UNL     1      -1.005   3.078   6.600  1.00  0.00     0.251 C 
BRANCH  12  14
HETATM   14  O1  UNL     1      -0.586   1.086   7.897  1.00  0.00    -0.391 OA
ATOM     15  H1  UNL     1      -0.027   0.429   7.500  1.00  0.00     0.210 HD
ENDBRANCH  12  14
BRANCH  13  16
HETATM   16  O2  UNL     1      -2.299   2.766   7.037  1.00  0.00    -0.374 OA
ATOM     17  H2  UNL     1      -2.864   3.345   6.538  1.00  0.00     0.212 HD
ENDBRANCH  13  16
ENDBRANCH   1   7
BRANCH   6  18
HETATM   18  C12 UNL     1       1.406   5.141   4.625  1.00  0.00     0.094 A 
HETATM   19  C13 UNL     1       2.200   4.277   5.488  1.00  0.00     0.028 A 
HETATM   20  C14 UNL     1       2.669   5.655   5.344  1.00  0.00     0.028 A 
ENDBRANCH   6  18
BRANCH   3  21
HETATM   21  C9  UNL     1      -2.006   8.668   4.623  1.00  0.00     0.156 C 
BRANCH  21  22
HETATM   22  C10 UNL     1      -1.709   9.823   5.556  1.00  0.00     0.184 C 
BRANCH  22  23
HETATM   23  O3  UNL     1      -2.383  10.949   5.122  1.00  0.00    -0.399 OA
ATOM     24  H3  UNL     1      -2.446  11.573   5.835  1.00  0.00     0.209 HD
ENDBRANCH  22  23
ENDBRANCH  21  22
ENDBRANCH   3  21
TORSDOF 7
ENDMDL
MODEL 2
REMARK VINA RESULT: -5.987388050      2.184      3.475
REMARK  7 active torsions:
REMARK  status: ('A' for Active; 'I' for Inactive)
REMARK    1  A    between atoms: C5_5  and  O1_6 
REMARK    2  A    between atoms: C6_8  and  O2_9 
REMARK    3  A    between atoms: N1_11  and  C7_12 
REMARK    4  A    between atoms: N2_14  and  C9_15 
REMARK    5  A    between atoms: C9_15  and  C10_16 
REMARK    6  A    between atoms: C10_16  and  O3_17 
REMARK    7  A    between atoms: N3_21  and  C12_22 
ROOT
HETATM    1  C7  UNL     1       0.276   5.077   5.735  1.00  0.00     0.126 A 
HETATM    2  C8  UNL     1       1.335   4.995   4.846  1.00  0.00     0.142 A 
HETATM    3  N2  UNL     1       1.337   6.071   4.042  1.00  0.00    -0.328 N 
HETATM    4  C11 UNL     1       0.288   6.807   4.438  1.00  0.00     0.182 A 
HETATM    5  S1  UNL     1      -0.091   8.249   3.716  1.00  0.00    -0.040 SA
HETATM    6  N3  UNL     1      -0.358   6.213   5.459  1.00  0.00    -0.304 N 
ENDROOT
BRANCH   1   7
HETATM    7  N1  UNL     1       0.030   4.084   6.713  1.00  0.00    -0.328 N 
HETATM    8  C2  UNL     1       0.511   4.147   8.076  1.00  0.00     0.032 C 
HETATM    9  C1  UNL     1      -0.299   5.069   8.924  1.00  0.00     0.038 C 
HETATM   10  C3  UNL     1       1.957   4.622   8.129  1.00  0.00     0.038 C 
HETATM   11  C4  UNL     1       0.468   2.767   8.646  1.00  0.00     0.066 C 
HETATM   12  C5  UNL     1       0.117   1.865   7.494  1.00  0.00     0.169 C 
HETATM   13  C6  UNL     1      -0.693   2.828   6.611  1.00  0.00     0.251 C 
BRANCH  12  14
HETATM   14  O1  UNL     1      -0.676   0.839   7.978  1.00  0.00    -0.391 OA
ATOM     15  H1  UNL     1      -0.441   0.688   8.885  1.00  0.00     0.210 HD
ENDBRANCH  12  14
BRANCH  13  16
HETATM   16  O2  UNL     1      -1.933   2.935   7.253  1.00  0.00    -0.374 OA
ATOM     17  H2  UNL     1      -2.241   3.807   7.034  1.00  0.00     0.212 HD
ENDBRANCH  13  16
ENDBRANCH   1   7
BRANCH   6  18
HETATM   18  C12 UNL     1      -1.512   6.760   6.096  1.00  0.00     0.094 A 
HETATM   19  C13 UNL     1      -2.640   6.005   6.627  1.00  0.00     0.028 A 
HETATM   20  C14 UNL     1      -2.793   6.531   5.270  1.00  0.00     0.028 A 
ENDBRANCH   6  18
BRANCH   3  21
HETATM   21  C9  UNL     1       2.262   6.380   2.983  1.00  0.00     0.156 C 
BRANCH  21  22
HETATM   22  C10 UNL     1       1.908   5.688   1.685  1.00  0.00     0.184 C 
BRANCH  22  23
HETATM   23  O3  UNL     1       2.479   4.429   1.664  1.00  0.00    -0.399 OA
ATOM     24  H3  UNL     1       2.351   4.039   0.807  1.00  0.00     0.209 HD
ENDBRANCH  22  23
ENDBRANCH  21  22
ENDBRANCH   3  21
TORSDOF 7
ENDMDL
MODEL 3
REMARK VINA RESULT: -5.888111443      3.161      3.919
REMARK  7 active torsions:
REMARK  status: ('A' for Active; 'I' for Inactive)
REMARK    1  A    between atoms: C5_5  and  O1_6 
REMARK    2  A    between atoms: C6_8  and  O2_9 
REMARK    3  A    between atoms: N1_11  and  C7_12 
REMARK    4  A    between atoms: N2_14  and  C9_15 
REMARK    5  A    between atoms: C9_15  and  C10_16 
REMARK    6  A    between atoms: C10_16  and  O3_17 
REMARK    7  A    between atoms: N3_21  and  C12_22 
ROOT
HETATM    1  C7  UNL     1      -0.694   6.462   7.816  1.00  0.00     0.126 A 
HETATM    2  C8  UNL     1      -1.780   6.808   8.604  1.00  0.00     0.142 A 
HETATM    3  N2  UNL     1      -1.406   7.720   9.516  1.00  0.00    -0.328 N 
HETATM    4  C11 UNL     1      -0.101   7.931   9.287  1.00  0.00     0.182 A 
HETATM    5  S1  UNL     1       0.782   9.003  10.188  1.00  0.00    -0.040 SA
HETATM    6  N3  UNL     1       0.336   7.175   8.263  1.00  0.00    -0.304 N 
ENDROOT
BRANCH   1   7
HETATM    7  N1  UNL     1      -0.793   5.526   6.759  1.00  0.00    -0.328 N 
HETATM    8  C2  UNL     1      -1.083   4.120   6.941  1.00  0.00     0.032 C 
HETATM    9  C1  UNL     1      -2.531   3.865   7.195  1.00  0.00     0.038 C 
HETATM   10  C3  UNL     1      -0.301   3.542   8.113  1.00  0.00     0.038 C 
HETATM   11  C4  UNL     1      -0.651   3.394   5.709  1.00  0.00     0.066 C 
HETATM   12  C5  UNL     1       0.076   4.414   4.874  1.00  0.00     0.169 C 
HETATM   13  C6  UNL     1      -0.620   5.707   5.328  1.00  0.00     0.251 C 
BRANCH  12  14
HETATM   14  O1  UNL     1      -0.183   4.144   3.543  1.00  0.00    -0.391 OA
ATOM     15  H1  UNL     1      -0.326   4.970   3.096  1.00  0.00     0.210 HD
ENDBRANCH  12  14
BRANCH  13  16
HETATM   16  O2  UNL     1      -1.866   5.678   4.688  1.00  0.00    -0.374 OA
ATOM     17  H2  UNL     1      -2.082   6.592   4.544  1.00  0.00     0.212 HD
ENDBRANCH  13  16
ENDBRANCH   1   7
BRANCH   6  18
HETATM   18  C12 UNL     1       1.680   7.186   7.782  1.00  0.00     0.094 A 
HETATM   19  C13 UNL     1       2.397   6.054   7.210  1.00  0.00     0.028 A 
HETATM   20  C14 UNL     1       2.607   6.299   8.636  1.00  0.00     0.028 A 
ENDBRANCH   6  18
BRANCH   3  21
HETATM   21  C9  UNL     1      -2.221   8.344  10.526  1.00  0.00     0.156 C 
BRANCH  21  22
HETATM   22  C10 UNL     1      -3.149   9.393   9.953  1.00  0.00     0.184 C 
BRANCH  22  23
HETATM   23  O3  UNL     1      -2.748  10.645  10.381  1.00  0.00    -0.399 OA
ATOM     24  H3  UNL     1      -3.330  10.944  11.070  1.00  0.00     0.209 HD
ENDBRANCH  22  23
ENDBRANCH  21  22
ENDBRANCH   3  21
TORSDOF 7
ENDMDL
MODEL 4
REMARK VINA RESULT: -5.887504847      3.629      5.297
REMARK  7 active torsions:
REMARK  status: ('A' for Active; 'I' for Inactive)
REMARK    1  A    between atoms: C5_5  and  O1_6 
REMARK    2  A    between atoms: C6_8  and  O2_9 
REMARK    3  A    between atoms: N1_11  and  C7_12 
REMARK    4  A    between atoms: N2_14  and  C9_15 
REMARK    5  A    between atoms: C9_15  and  C10_16 
REMARK    6  A    between atoms: C10_16  and  O3_17 
REMARK    7  A    between atoms: N3_21  and  C12_22 
ROOT
HETATM    1  C7  UNL     1      -0.203   6.498   9.206  1.00  0.00     0.126 A 
HETATM    2  C8  UNL     1       0.846   6.735  10.079  1.00  0.00     0.142 A 
HETATM    3  N2  UNL     1       0.657   7.906  10.709  1.00  0.00    -0.328 N 
HETATM    4  C11 UNL     1      -0.500   8.382  10.225  1.00  0.00     0.182 A 
HETATM    5  S1  UNL     1      -1.133   9.825  10.736  1.00  0.00    -0.040 SA
HETATM    6  N3  UNL     1      -1.025   7.539   9.317  1.00  0.00    -0.304 N 
ENDROOT
BRANCH   1   7
HETATM    7  N1  UNL     1      -0.279   5.329   8.412  1.00  0.00    -0.328 N 
HETATM    8  C2  UNL     1       0.577   5.059   7.277  1.00  0.00     0.032 C 
HETATM    9  C1  UNL     1       1.935   4.595   7.687  1.00  0.00     0.038 C 
HETATM   10  C3  UNL     1       0.755   6.299   6.412  1.00  0.00     0.038 C 
HETATM   11  C4  UNL     1      -0.081   4.013   6.439  1.00  0.00     0.066 C 
HETATM   12  C5  UNL     1      -1.450   3.820   7.035  1.00  0.00     0.169 C 
HETATM   13  C6  UNL     1      -1.180   4.193   8.502  1.00  0.00     0.251 C 
BRANCH  12  14
HETATM   14  O1  UNL     1      -1.789   2.485   6.910  1.00  0.00    -0.391 OA
ATOM     15  H1  UNL     1      -1.029   2.017   6.585  1.00  0.00     0.210 HD
ENDBRANCH  12  14
BRANCH  13  16
HETATM   16  O2  UNL     1      -0.502   3.085   9.026  1.00  0.00    -0.374 OA
ATOM     17  H2  UNL     1       0.169   2.890   8.383  1.00  0.00     0.212 HD
ENDBRANCH  13  16
ENDBRANCH   1   7
BRANCH   6  18
HETATM   18  C12 UNL     1      -2.255   7.772   8.632  1.00  0.00     0.094 A 
HETATM   19  C13 UNL     1      -2.599   7.297   7.298  1.00  0.00     0.028 A 
HETATM   20  C14 UNL     1      -2.063   8.655   7.383  1.00  0.00     0.028 A 
ENDBRANCH   6  18
BRANCH   3  21
HETATM   21  C9  UNL     1       1.505   8.525  11.694  1.00  0.00     0.156 C 
BRANCH  21  22
HETATM   22  C10 UNL     1       2.610   7.606  12.168  1.00  0.00     0.184 C 
BRANCH  22  23
HETATM   23  O3  UNL     1       2.236   7.015  13.361  1.00  0.00    -0.399 OA
ATOM     24  H3  UNL     1       2.511   6.106  13.362  1.00  0.00     0.209 HD
ENDBRANCH  22  23
ENDBRANCH  21  22
ENDBRANCH   3  21
TORSDOF 7
ENDMDL
MODEL 5
REMARK VINA RESULT: -5.740328325      2.248      3.418
REMARK  7 active torsions:
REMARK  status: ('A' for Active; 'I' for Inactive)
REMARK    1  A    between atoms: C5_5  and  O1_6 
REMARK    2  A    between atoms: C6_8  and  O2_9 
REMARK    3  A    between atoms: N1_11  and  C7_12 
REMARK    4  A    between atoms: N2_14  and  C9_15 
REMARK    5  A    between atoms: C9_15  and  C10_16 
REMARK    6  A    between atoms: C10_16  and  O3_17 
REMARK    7  A    between atoms: N3_21  and  C12_22 
ROOT
HETATM    1  C7  UNL     1      -0.798   6.687   7.324  1.00  0.00     0.126 A 
HETATM    2  C8  UNL     1      -1.305   7.281   6.180  1.00  0.00     0.142 A 
HETATM    3  N2  UNL     1      -1.508   8.590   6.399  1.00  0.00    -0.328 N 
HETATM    4  C11 UNL     1      -1.127   8.796   7.669  1.00  0.00     0.182 A 
HETATM    5  S1  UNL     1      -1.202  10.294   8.371  1.00  0.00    -0.040 SA
HETATM    6  N3  UNL     1      -0.699   7.652   8.234  1.00  0.00    -0.304 N 
ENDROOT
BRANCH   1   7
HETATM    7  N1  UNL     1      -0.475   5.311   7.384  1.00  0.00    -0.328 N 
HETATM    8  C2  UNL     1       0.813   4.760   7.024  1.00  0.00     0.032 C 
HETATM    9  C1  UNL     1       1.838   4.965   8.089  1.00  0.00     0.038 C 
HETATM   10  C3  UNL     1       1.346   5.393   5.745  1.00  0.00     0.038 C 
HETATM   11  C4  UNL     1       0.638   3.300   6.766  1.00  0.00     0.066 C 
HETATM   12  C5  UNL     1      -0.847   3.058   6.809  1.00  0.00     0.169 C 
HETATM   13  C6  UNL     1      -1.292   4.173   7.769  1.00  0.00     0.251 C 
BRANCH  12  14
HETATM   14  O1  UNL     1      -1.063   1.806   7.357  1.00  0.00    -0.391 OA
ATOM     15  H1  UNL     1      -1.966   1.763   7.647  1.00  0.00     0.210 HD
ENDBRANCH  12  14
BRANCH  13  16
HETATM   16  O2  UNL     1      -0.911   3.717   9.038  1.00  0.00    -0.374 OA
ATOM     17  H2  UNL     1       0.035   3.802   9.047  1.00  0.00     0.212 HD
ENDBRANCH  13  16
ENDBRANCH   1   7
BRANCH   6  18
HETATM   18  C12 UNL     1      -0.225   7.557   9.577  1.00  0.00     0.094 A 
HETATM   19  C13 UNL     1      -0.498   6.471  10.510  1.00  0.00     0.028 A 
HETATM   20  C14 UNL     1      -1.373   7.640  10.603  1.00  0.00     0.028 A 
ENDBRANCH   6  18
BRANCH   3  21
HETATM   21  C9  UNL     1      -2.021   9.570   5.478  1.00  0.00     0.156 C 
BRANCH  21  22
HETATM   22  C10 UNL     1      -1.964   9.100   4.041  1.00  0.00     0.184 C 
BRANCH  22  23
HETATM   23  O3  UNL     1      -3.250   8.939   3.559  1.00  0.00    -0.399 OA
ATOM     24  H3  UNL     1      -3.727   8.343   4.125  1.00  0.00     0.209 HD
ENDBRANCH  22  23
ENDBRANCH  21  22
ENDBRANCH   3  21
TORSDOF 7
ENDMDL
