MODEL 1
REMARK VINA RESULT: -5.473044604      0.000      0.000
REMARK  9 active torsions:
REMARK  status: ('A' for Active; 'I' for Inactive)
REMARK    1  A    between atoms: C2_2  and  N1_3 
REMARK       I    between atoms: N1_3  and  C3_5 
REMARK       I    between atoms: C3_5  and  N3_10 
REMARK    2  A    between atoms: N2_6  and  O1_8 
REMARK    3  A    between atoms: N3_10  and  C4_12 
REMARK    4  A    between atoms: C4_12  and  C5_13 
REMARK    5  A    between atoms: C5_13  and  C6_14 
REMARK    6  A    between atoms: C6_14  and  N4_15 
REMARK       I    between atoms: N4_15  and  C7_17 
REMARK       I    between atoms: C7_17  and  N7_23 
REMARK    7  A    between atoms: N5_18  and  N6_20 
REMARK    8  A    between atoms: N7_23  and  N8_25 
REMARK    9  A    between atoms: N8_25  and  C8_27 
ROOT
HETATM    1  N4  UNL     1      -1.615  56.555  27.833  1.00  0.00    -0.224 N 
ATOM      2  H4  UNL     1      -1.951  57.148  28.591  1.00  0.00     0.177 HD
HETATM    3  C7  UNL     1      -0.598  57.008  26.923  1.00  0.00     0.706 C 
HETATM    4  N5  UNL     1      -0.988  57.761  25.956  1.00  0.00    -0.138 N 
ATOM      5  H5  UNL     1      -0.289  58.099  25.293  1.00  0.00     0.205 HD
HETATM    6  N7  UNL     1       0.755  56.624  27.112  1.00  0.00    -0.129 N 
ATOM      7  H7  UNL     1       1.239  56.153  26.348  1.00  0.00     0.205 HD
ENDROOT
BRANCH   1   8
HETATM    8  C6  UNL     1      -2.136  55.235  27.630  1.00  0.00     0.140 C 
BRANCH   8   9
HETATM    9  C5  UNL     1      -2.068  54.463  28.916  1.00  0.00     0.040 C 
BRANCH   9  10
HETATM   10  C4  UNL     1      -2.868  53.208  28.812  1.00  0.00     0.139 C 
BRANCH  10  11
HETATM   11  N3  UNL     1      -2.357  52.406  27.730  1.00  0.00    -0.225 N 
HETATM   12  C3  UNL     1      -3.198  51.952  26.705  1.00  0.00     0.693 C 
HETATM   13  N1  UNL     1      -4.468  52.590  26.470  1.00  0.00    -0.225 N 
HETATM   14  N2  UNL     1      -2.878  50.975  25.954  1.00  0.00    -0.099 N 
ATOM     15  H1  UNL     1      -4.806  53.286  27.135  1.00  0.00     0.177 HD
ATOM     16  H2  UNL     1      -3.549  50.709  25.233  1.00  0.00     0.213 HD
ATOM     17  H3  UNL     1      -1.366  52.165  27.709  1.00  0.00     0.177 HD
BRANCH  13  18
HETATM   18  C2  UNL     1      -5.273  52.267  25.316  1.00  0.00     0.134 C 
HETATM   19  C1  UNL     1      -6.585  53.012  25.381  1.00  0.00     0.027 C 
ENDBRANCH  13  18
BRANCH  14  20
HETATM   20  O1  UNL     1      -1.735  50.255  26.021  1.00  0.00    -0.276 OA
ATOM     21  H1  UNL     1      -1.646  49.324  25.856  1.00  0.00     0.245 HD
ENDBRANCH  14  20
ENDBRANCH  10  11
ENDBRANCH   9  10
ENDBRANCH   8   9
ENDBRANCH   1   8
BRANCH   4  22
HETATM   22  N6  UNL     1      -2.311  58.138  25.770  1.00  0.00    -0.331 N 
ATOM     23  H62 UNL     1      -2.866  57.588  25.114  1.00  0.00     0.177 HD
ATOM     24  H61 UNL     1      -2.741  58.927  26.253  1.00  0.00     0.177 HD
ENDBRANCH   4  22
BRANCH   6  25
HETATM   25  N8  UNL     1       1.457  56.866  28.302  1.00  0.00    -0.265 N 
ATOM     26  H8  UNL     1       1.160  57.615  28.927  1.00  0.00     0.189 HD
BRANCH  25  27
HETATM   27  C8  UNL     1       2.496  56.125  28.609  1.00  0.00     0.166 A 
HETATM   28  N9  UNL     1       3.761  56.510  28.761  1.00  0.00    -0.320 N 
HETATM   29  C9  UNL     1       4.653  55.603  29.071  1.00  0.00     0.136 A 
ATOM     30  H9  UNL     1       4.029  57.487  28.640  1.00  0.00     0.169 HD
HETATM   31  C10 UNL     1       4.231  54.312  29.221  1.00  0.00     0.120 A 
HETATM   32  N11 UNL     1       6.002  55.793  29.272  1.00  0.00    -0.288 N 
HETATM   33  S1  UNL     1       2.551  54.447  28.907  1.00  0.00    -0.043 SA
HETATM   34  C11 UNL     1       5.098  53.256  29.552  1.00  0.00     0.270 A 
HETATM   35  O2  UNL     1       4.578  52.135  29.655  1.00  0.00    -0.266 OA
HETATM   36  N10 UNL     1       6.417  53.490  29.741  1.00  0.00    -0.274 N 
HETATM   37  C12 UNL     1       6.788  54.759  29.586  1.00  0.00     0.330 A 
ATOM     38  H10 UNL     1       7.077  52.750  29.983  1.00  0.00     0.173 HD
HETATM   39  O3  UNL     1       8.029  54.996  29.761  1.00  0.00    -0.246 OA
HETATM   40  C13 UNL     1       6.596  57.115  29.147  1.00  0.00     0.163 C 
ENDBRANCH  25  27
ENDBRANCH   6  25
TORSDOF 9
ENDMDL
MODEL 2
REMARK VINA RESULT: -5.369958727      4.845      6.431
REMARK  9 active torsions:
REMARK  status: ('A' for Active; 'I' for Inactive)
REMARK    1  A    between atoms: C2_2  and  N1_3 
REMARK       I    between atoms: N1_3  and  C3_5 
REMARK       I    between atoms: C3_5  and  N3_10 
REMARK    2  A    between atoms: N2_6  and  O1_8 
REMARK    3  A    between atoms: N3_10  and  C4_12 
REMARK    4  A    between atoms: C4_12  and  C5_13 
REMARK    5  A    between atoms: C5_13  and  C6_14 
REMARK    6  A    between atoms: C6_14  and  N4_15 
REMARK       I    between atoms: N4_15  and  C7_17 
REMARK       I    between atoms: C7_17  and  N7_23 
REMARK    7  A    between atoms: N5_18  and  N6_20 
REMARK    8  A    between atoms: N7_23  and  N8_25 
REMARK    9  A    between atoms: N8_25  and  C8_27 
ROOT
HETATM    1  N4  UNL     1      -2.124  52.690  27.570  1.00  0.00    -0.224 N 
ATOM      2  H4  UNL     1      -1.485  52.178  26.962  1.00  0.00     0.177 HD
HETATM    3  C7  UNL     1      -1.669  53.295  28.793  1.00  0.00     0.706 C 
HETATM    4  N5  UNL     1      -1.562  52.518  29.813  1.00  0.00    -0.138 N 
ATOM      5  H5  UNL     1      -1.242  52.918  30.695  1.00  0.00     0.205 HD
HETATM    6  N7  UNL     1      -1.363  54.680  28.836  1.00  0.00    -0.129 N 
ATOM      7  H7  UNL     1      -1.842  55.263  29.522  1.00  0.00     0.205 HD
ENDROOT
BRANCH   1   8
HETATM    8  C6  UNL     1      -3.512  52.836  27.243  1.00  0.00     0.140 C 
BRANCH   8   9
HETATM    9  C5  UNL     1      -3.755  52.342  25.846  1.00  0.00     0.040 C 
BRANCH   9  10
HETATM   10  C4  UNL     1      -4.467  51.031  25.875  1.00  0.00     0.139 C 
BRANCH  10  11
HETATM   11  N3  UNL     1      -3.769  50.091  25.036  1.00  0.00    -0.225 N 
HETATM   12  C3  UNL     1      -4.369  49.563  23.886  1.00  0.00     0.693 C 
HETATM   13  N1  UNL     1      -5.496  50.227  23.283  1.00  0.00    -0.225 N 
HETATM   14  N2  UNL     1      -3.948  48.494  23.337  1.00  0.00    -0.099 N 
ATOM     15  H1  UNL     1      -5.934  51.007  23.772  1.00  0.00     0.177 HD
ATOM     16  H2  UNL     1      -4.442  48.179  22.501  1.00  0.00     0.213 HD
ATOM     17  H3  UNL     1      -2.822  49.805  25.285  1.00  0.00     0.177 HD
BRANCH  13  18
HETATM   18  C2  UNL     1      -6.021  49.812  22.003  1.00  0.00     0.134 C 
HETATM   19  C1  UNL     1      -5.456  50.688  20.909  1.00  0.00     0.027 C 
ENDBRANCH  13  18
BRANCH  14  20
HETATM   20  O1  UNL     1      -2.909  47.735  23.754  1.00  0.00    -0.276 OA
ATOM     21  H1  UNL     1      -2.645  46.896  23.395  1.00  0.00     0.245 HD
ENDBRANCH  14  20
ENDBRANCH  10  11
ENDBRANCH   9  10
ENDBRANCH   8   9
ENDBRANCH   1   8
BRANCH   4  22
HETATM   22  N6  UNL     1      -1.861  51.163  29.772  1.00  0.00    -0.331 N 
ATOM     23  H62 UNL     1      -1.371  50.596  29.080  1.00  0.00     0.177 HD
ATOM     24  H61 UNL     1      -2.537  50.720  30.395  1.00  0.00     0.177 HD
ENDBRANCH   4  22
BRANCH   6  25
HETATM   25  N8  UNL     1      -0.430  55.282  27.979  1.00  0.00    -0.265 N 
ATOM     26  H8  UNL     1       0.416  54.779  27.710  1.00  0.00     0.189 HD
BRANCH  25  27
HETATM   27  C8  UNL     1      -0.649  56.494  27.524  1.00  0.00     0.166 A 
HETATM   28  N9  UNL     1       0.004  57.614  27.828  1.00  0.00    -0.320 N 
HETATM   29  C9  UNL     1      -0.377  58.728  27.257  1.00  0.00     0.136 A 
ATOM     30  H9  UNL     1       0.781  57.603  28.488  1.00  0.00     0.169 HD
HETATM   31  C10 UNL     1      -1.424  58.676  26.380  1.00  0.00     0.120 A 
HETATM   32  N11 UNL     1       0.161  59.983  27.433  1.00  0.00    -0.288 N 
HETATM   33  S1  UNL     1      -1.829  57.010  26.408  1.00  0.00    -0.043 SA
HETATM   34  C11 UNL     1      -1.919  59.807  25.709  1.00  0.00     0.270 A 
HETATM   35  O2  UNL     1      -2.874  59.613  24.942  1.00  0.00    -0.266 OA
HETATM   36  N10 UNL     1      -1.357  61.022  25.913  1.00  0.00    -0.274 N 
HETATM   37  C12 UNL     1      -0.341  61.030  26.773  1.00  0.00     0.330 A 
ATOM     38  H10 UNL     1      -1.688  61.865  25.444  1.00  0.00     0.173 HD
HETATM   39  O3  UNL     1       0.199  62.168  26.976  1.00  0.00    -0.246 OA
HETATM   40  C13 UNL     1       1.283  60.194  28.337  1.00  0.00     0.163 C 
ENDBRANCH  25  27
ENDBRANCH   6  25
TORSDOF 9
ENDMDL
MODEL 3
REMARK VINA RESULT: -5.355618656      3.865      7.794
REMARK  9 active torsions:
REMARK  status: ('A' for Active; 'I' for Inactive)
REMARK    1  A    between atoms: C2_2  and  N1_3 
REMARK       I    between atoms: N1_3  and  C3_5 
REMARK       I    between atoms: C3_5  and  N3_10 
REMARK    2  A    between atoms: N2_6  and  O1_8 
REMARK    3  A    between atoms: N3_10  and  C4_12 
REMARK    4  A    between atoms: C4_12  and  C5_13 
REMARK    5  A    between atoms: C5_13  and  C6_14 
REMARK    6  A    between atoms: C6_14  and  N4_15 
REMARK       I    between atoms: N4_15  and  C7_17 
REMARK       I    between atoms: C7_17  and  N7_23 
REMARK    7  A    between atoms: N5_18  and  N6_20 
REMARK    8  A    between atoms: N7_23  and  N8_25 
REMARK    9  A    between atoms: N8_25  and  C8_27 
ROOT
HETATM    1  N4  UNL     1       5.612  56.237  28.655  1.00  0.00    -0.224 N 
ATOM      2  H4  UNL     1       5.968  55.959  27.740  1.00  0.00     0.177 HD
HETATM    3  C7  UNL     1       5.043  57.538  28.872  1.00  0.00     0.706 C 
HETATM    4  N5  UNL     1       5.871  58.502  29.071  1.00  0.00    -0.138 N 
ATOM      5  H5  UNL     1       5.498  59.438  29.228  1.00  0.00     0.205 HD
HETATM    6  N7  UNL     1       3.635  57.715  28.862  1.00  0.00    -0.129 N 
ATOM      7  H7  UNL     1       3.190  58.132  29.680  1.00  0.00     0.205 HD
ENDROOT
BRANCH   1   8
HETATM    8  C6  UNL     1       5.661  55.346  29.778  1.00  0.00     0.140 C 
BRANCH   8   9
HETATM    9  C5  UNL     1       5.338  53.950  29.327  1.00  0.00     0.040 C 
BRANCH   9  10
HETATM   10  C4  UNL     1       3.977  53.555  29.794  1.00  0.00     0.139 C 
BRANCH  10  11
HETATM   11  N3  UNL     1       2.986  54.239  29.004  1.00  0.00    -0.225 N 
HETATM   12  C3  UNL     1       1.618  54.020  29.211  1.00  0.00     0.693 C 
HETATM   13  N1  UNL     1       1.152  53.450  30.449  1.00  0.00    -0.225 N 
HETATM   14  N2  UNL     1       0.748  54.312  28.328  1.00  0.00    -0.099 N 
ATOM     15  H1  UNL     1       1.831  53.087  31.117  1.00  0.00     0.177 HD
ATOM     16  H2  UNL     1      -0.227  54.120  28.561  1.00  0.00     0.213 HD
ATOM     17  H3  UNL     1       3.285  54.894  28.281  1.00  0.00     0.177 HD
BRANCH  13  18
HETATM   18  C2  UNL     1      -0.256  53.379  30.765  1.00  0.00     0.134 C 
HETATM   19  C1  UNL     1      -0.687  51.934  30.864  1.00  0.00     0.027 C 
ENDBRANCH  13  18
BRANCH  14  20
HETATM   20  O1  UNL     1       0.991  54.852  27.112  1.00  0.00    -0.276 OA
ATOM     21  H1  UNL     1       1.322  55.725  26.941  1.00  0.00     0.245 HD
ENDBRANCH  14  20
ENDBRANCH  10  11
ENDBRANCH   9  10
ENDBRANCH   8   9
ENDBRANCH   1   8
BRANCH   4  22
HETATM   22  N6  UNL     1       7.249  58.331  29.080  1.00  0.00    -0.331 N 
ATOM     23  H62 UNL     1       7.740  58.434  28.192  1.00  0.00     0.177 HD
ATOM     24  H61 UNL     1       7.780  58.112  29.924  1.00  0.00     0.177 HD
ENDBRANCH   4  22
BRANCH   6  25
HETATM   25  N8  UNL     1       2.828  57.343  27.777  1.00  0.00    -0.265 N 
ATOM     26  H8  UNL     1       2.984  56.452  27.305  1.00  0.00     0.189 HD
BRANCH  25  27
HETATM   27  C8  UNL     1       1.871  58.145  27.370  1.00  0.00     0.166 A 
HETATM   28  N9  UNL     1       0.657  57.818  26.933  1.00  0.00    -0.320 N 
HETATM   29  C9  UNL     1      -0.153  58.779  26.571  1.00  0.00     0.136 A 
ATOM     30  H9  UNL     1       0.366  56.841  26.881  1.00  0.00     0.169 HD
HETATM   31  C10 UNL     1       0.297  60.067  26.665  1.00  0.00     0.120 A 
HETATM   32  N11 UNL     1      -1.439  58.654  26.096  1.00  0.00    -0.288 N 
HETATM   33  S1  UNL     1       1.883  59.847  27.274  1.00  0.00    -0.043 SA
HETATM   34  C11 UNL     1      -0.484  61.179  26.305  1.00  0.00     0.270 A 
HETATM   35  O2  UNL     1       0.051  62.290  26.441  1.00  0.00    -0.266 OA
HETATM   36  N10 UNL     1      -1.744  61.008  25.843  1.00  0.00    -0.274 N 
HETATM   37  C12 UNL     1      -2.144  59.740  25.767  1.00  0.00     0.330 A 
ATOM     38  H10 UNL     1      -2.341  61.790  25.573  1.00  0.00     0.173 HD
HETATM   39  O3  UNL     1      -3.330  59.562  25.332  1.00  0.00    -0.246 OA
HETATM   40  C13 UNL     1      -2.054  57.344  25.942  1.00  0.00     0.163 C 
ENDBRANCH  25  27
ENDBRANCH   6  25
TORSDOF 9
ENDMDL
MODEL 4
REMARK VINA RESULT: -5.294007255      3.115     10.397
REMARK  9 active torsions:
REMARK  status: ('A' for Active; 'I' for Inactive)
REMARK    1  A    between atoms: C2_2  and  N1_3 
REMARK       I    between atoms: N1_3  and  C3_5 
REMARK       I    between atoms: C3_5  and  N3_10 
REMARK    2  A    between atoms: N2_6  and  O1_8 
REMARK    3  A    between atoms: N3_10  and  C4_12 
REMARK    4  A    between atoms: C4_12  and  C5_13 
REMARK    5  A    between atoms: C5_13  and  C6_14 
REMARK    6  A    between atoms: C6_14  and  N4_15 
REMARK       I    between atoms: N4_15  and  C7_17 
REMARK       I    between atoms: C7_17  and  N7_23 
REMARK    7  A    between atoms: N5_18  and  N6_20 
REMARK    8  A    between atoms: N7_23  and  N8_25 
REMARK    9  A    between atoms: N8_25  and  C8_27 
ROOT
HETATM    1  N4  UNL     1      -0.867  54.205  28.200  1.00  0.00    -0.224 N 
ATOM      2  H4  UNL     1      -0.793  54.862  27.423  1.00  0.00     0.177 HD
HETATM    3  C7  UNL     1      -2.108  53.550  28.511  1.00  0.00     0.706 C 
HETATM    4  N5  UNL     1      -2.957  54.226  29.201  1.00  0.00    -0.138 N 
ATOM      5  H5  UNL     1      -3.848  53.788  29.438  1.00  0.00     0.205 HD
HETATM    6  N7  UNL     1      -2.351  52.225  28.064  1.00  0.00    -0.129 N 
ATOM      7  H7  UNL     1      -2.586  51.513  28.755  1.00  0.00     0.205 HD
ENDROOT
BRANCH   1   8
HETATM    8  C6  UNL     1       0.263  53.897  29.028  1.00  0.00     0.140 C 
BRANCH   8   9
HETATM    9  C5  UNL     1       1.526  54.317  28.333  1.00  0.00     0.040 C 
BRANCH   9  10
HETATM   10  C4  UNL     1       2.588  54.634  29.332  1.00  0.00     0.139 C 
BRANCH  10  11
HETATM   11  N3  UNL     1       3.480  53.510  29.451  1.00  0.00    -0.225 N 
HETATM   12  C3  UNL     1       4.868  53.671  29.339  1.00  0.00     0.693 C 
HETATM   13  N1  UNL     1       5.465  54.970  29.517  1.00  0.00    -0.225 N 
HETATM   14  N2  UNL     1       5.641  52.693  29.082  1.00  0.00    -0.099 N 
ATOM     15  H1  UNL     1       4.862  55.789  29.594  1.00  0.00     0.177 HD
ATOM     16  H2  UNL     1       6.639  52.899  29.018  1.00  0.00     0.213 HD
ATOM     17  H3  UNL     1       3.096  52.580  29.618  1.00  0.00     0.177 HD
BRANCH  13  18
HETATM   18  C2  UNL     1       6.898  55.138  29.588  1.00  0.00     0.134 C 
HETATM   19  C1  UNL     1       7.388  55.881  28.367  1.00  0.00     0.027 C 
ENDBRANCH  13  18
BRANCH  14  20
HETATM   20  O1  UNL     1       5.268  51.408  28.884  1.00  0.00    -0.276 OA
ATOM     21  H1  UNL     1       5.601  50.823  28.213  1.00  0.00     0.245 HD
ENDBRANCH  14  20
ENDBRANCH  10  11
ENDBRANCH   9  10
ENDBRANCH   8   9
ENDBRANCH   1   8
BRANCH   4  22
HETATM   22  N6  UNL     1      -2.722  55.523  29.640  1.00  0.00    -0.331 N 
ATOM     23  H62 UNL     1      -3.449  56.216  29.462  1.00  0.00     0.177 HD
ATOM     24  H61 UNL     1      -1.868  55.803  30.123  1.00  0.00     0.177 HD
ENDBRANCH   4  22
BRANCH   6  25
HETATM   25  N8  UNL     1      -2.282  51.852  26.713  1.00  0.00    -0.265 N 
ATOM     26  H8  UNL     1      -1.376  51.743  26.258  1.00  0.00     0.189 HD
BRANCH  25  27
HETATM   27  C8  UNL     1      -3.388  51.644  26.037  1.00  0.00     0.166 A 
HETATM   28  N9  UNL     1      -3.722  50.572  25.321  1.00  0.00    -0.320 N 
HETATM   29  C9  UNL     1      -4.884  50.565  24.718  1.00  0.00     0.136 A 
ATOM     30  H9  UNL     1      -3.089  49.776  25.245  1.00  0.00     0.169 HD
HETATM   31  C10 UNL     1      -5.687  51.663  24.860  1.00  0.00     0.120 A 
HETATM   32  N11 UNL     1      -5.414  49.564  23.937  1.00  0.00    -0.288 N 
HETATM   33  S1  UNL     1      -4.735  52.674  25.864  1.00  0.00    -0.043 SA
HETATM   34  C11 UNL     1      -6.953  51.767  24.260  1.00  0.00     0.270 A 
HETATM   35  O2  UNL     1      -7.574  52.820  24.473  1.00  0.00    -0.266 OA
HETATM   36  N10 UNL     1      -7.434  50.756  23.500  1.00  0.00    -0.274 N 
HETATM   37  C12 UNL     1      -6.622  49.707  23.386  1.00  0.00     0.330 A 
ATOM     38  H10 UNL     1      -8.348  50.795  23.049  1.00  0.00     0.173 HD
HETATM   39  O3  UNL     1      -7.062  48.745  22.673  1.00  0.00    -0.246 OA
HETATM   40  C13 UNL     1      -4.673  48.334  23.696  1.00  0.00     0.163 C 
ENDBRANCH  25  27
ENDBRANCH   6  25
TORSDOF 9
ENDMDL
MODEL 5
REMARK VINA RESULT: -5.278726876      2.556      4.211
REMARK  9 active torsions:
REMARK  status: ('A' for Active; 'I' for Inactive)
REMARK    1  A    between atoms: C2_2  and  N1_3 
REMARK       I    between atoms: N1_3  and  C3_5 
REMARK       I    between atoms: C3_5  and  N3_10 
REMARK    2  A    between atoms: N2_6  and  O1_8 
REMARK    3  A    between atoms: N3_10  and  C4_12 
REMARK    4  A    between atoms: C4_12  and  C5_13 
REMARK    5  A    between atoms: C5_13  and  C6_14 
REMARK    6  A    between atoms: C6_14  and  N4_15 
REMARK       I    between atoms: N4_15  and  C7_17 
REMARK       I    between atoms: C7_17  and  N7_23 
REMARK    7  A    between atoms: N5_18  and  N6_20 
REMARK    8  A    between atoms: N7_23  and  N8_25 
REMARK    9  A    between atoms: N8_25  and  C8_27 
ROOT
HETATM    1  N4  UNL     1      -2.898  52.636  27.015  1.00  0.00    -0.224 N 
ATOM      2  H4  UNL     1      -2.195  52.276  26.370  1.00  0.00     0.177 HD
HETATM    3  C7  UNL     1      -2.536  53.132  28.315  1.00  0.00     0.706 C 
HETATM    4  N5  UNL     1      -2.360  52.252  29.237  1.00  0.00    -0.138 N 
ATOM      5  H5  UNL     1      -2.103  52.572  30.170  1.00  0.00     0.205 HD
HETATM    6  N7  UNL     1      -2.388  54.526  28.535  1.00  0.00    -0.129 N 
ATOM      7  H7  UNL     1      -2.941  54.965  29.270  1.00  0.00     0.205 HD
ENDROOT
BRANCH   1   8
HETATM    8  C6  UNL     1      -4.287  52.669  26.665  1.00  0.00     0.140 C 
BRANCH   8   9
HETATM    9  C5  UNL     1      -4.439  52.448  25.187  1.00  0.00     0.040 C 
BRANCH   9  10
HETATM   10  C4  UNL     1      -5.183  51.182  24.924  1.00  0.00     0.139 C 
BRANCH  10  11
HETATM   11  N3  UNL     1      -4.254  50.159  24.518  1.00  0.00    -0.225 N 
HETATM   12  C3  UNL     1      -4.398  49.495  23.293  1.00  0.00     0.693 C 
HETATM   13  N1  UNL     1      -5.197  50.071  22.243  1.00  0.00    -0.225 N 
HETATM   14  N2  UNL     1      -3.838  48.374  23.065  1.00  0.00    -0.099 N 
ATOM     15  H1  UNL     1      -5.760  50.898  22.442  1.00  0.00     0.177 HD
ATOM     16  H2  UNL     1      -3.995  47.959  22.146  1.00  0.00     0.213 HD
ATOM     17  H3  UNL     1      -3.477  49.915  25.133  1.00  0.00     0.177 HD
BRANCH  13  18
HETATM   18  C2  UNL     1      -5.219  49.505  20.914  1.00  0.00     0.134 C 
HETATM   19  C1  UNL     1      -5.280  50.611  19.886  1.00  0.00     0.027 C 
ENDBRANCH  13  18
BRANCH  14  20
HETATM   20  O1  UNL     1      -3.054  47.681  23.923  1.00  0.00    -0.276 OA
ATOM     21  H1  UNL     1      -2.398  48.046  24.504  1.00  0.00     0.245 HD
ENDBRANCH  14  20
ENDBRANCH  10  11
ENDBRANCH   9  10
ENDBRANCH   8   9
ENDBRANCH   1   8
BRANCH   4  22
HETATM   22  N6  UNL     1      -2.504  50.887  29.024  1.00  0.00    -0.331 N 
ATOM     23  H62 UNL     1      -1.657  50.352  28.831  1.00  0.00     0.177 HD
ATOM     24  H61 UNL     1      -3.404  50.408  29.053  1.00  0.00     0.177 HD
ENDBRANCH   4  22
BRANCH   6  25
HETATM   25  N8  UNL     1      -1.514  55.328  27.786  1.00  0.00    -0.265 N 
ATOM     26  H8  UNL     1      -1.877  55.919  27.037  1.00  0.00     0.189 HD
BRANCH  25  27
HETATM   27  C8  UNL     1      -0.228  55.315  28.050  1.00  0.00     0.166 A 
HETATM   28  N9  UNL     1       0.633  56.328  27.984  1.00  0.00    -0.320 N 
HETATM   29  C9  UNL     1       1.884  56.102  28.292  1.00  0.00     0.136 A 
ATOM     30  H9  UNL     1       0.324  57.259  27.700  1.00  0.00     0.169 HD
HETATM   31  C10 UNL     1       2.234  54.833  28.665  1.00  0.00     0.120 A 
HETATM   32  N11 UNL     1       2.922  57.005  28.289  1.00  0.00    -0.288 N 
HETATM   33  S1  UNL     1       0.737  54.005  28.558  1.00  0.00    -0.043 SA
HETATM   34  C11 UNL     1       3.545  54.473  29.018  1.00  0.00     0.270 A 
HETATM   35  O2  UNL     1       3.720  53.287  29.336  1.00  0.00    -0.266 OA
HETATM   36  N10 UNL     1       4.535  55.396  29.000  1.00  0.00    -0.274 N 
HETATM   37  C12 UNL     1       4.154  56.618  28.632  1.00  0.00     0.330 A 
ATOM     38  H10 UNL     1       5.499  55.173  29.250  1.00  0.00     0.173 HD
HETATM   39  O3  UNL     1       5.076  57.499  28.610  1.00  0.00    -0.246 OA
HETATM   40  C13 UNL     1       2.702  58.394  27.914  1.00  0.00     0.163 C 
ENDBRANCH  25  27
ENDBRANCH   6  25
TORSDOF 9
ENDMDL
