MODEL 1
REMARK VINA RESULT: -5.237361020      0.000      0.000
REMARK  10 active torsions:
REMARK  status: ('A' for Active; 'I' for Inactive)
REMARK    1  A    between atoms: N1_1  and  C1_4 
REMARK    2  A    between atoms: C5_11  and  N4_12 
REMARK    3  A    between atoms: N4_12  and  C6_14 
REMARK    4  A    between atoms: C6_14  and  C7_15 
REMARK    5  A    between atoms: C7_15  and  N5_16 
REMARK    6  A    between atoms: N5_16  and  C8_18 
REMARK    7  A    between atoms: C10_24  and  S1_25 
REMARK    8  A    between atoms: S1_25  and  C11_27 
REMARK    9  A    between atoms: C11_27  and  C12_28 
REMARK   10  A    between atoms: C12_28  and  N8_29 
ROOT
HETATM    1  N4  UNL     1      -5.309  51.718  24.039  1.00  0.00    -0.224 N 
ATOM      2  H4  UNL     1      -4.717  52.130  23.317  1.00  0.00     0.177 HD
ENDROOT
BRANCH   1   3
HETATM    3  C5  UNL     1      -4.857  51.568  25.225  1.00  0.00     0.681 A 
HETATM    4  N3  UNL     1      -5.483  51.933  26.341  1.00  0.00    -0.189 N 
HETATM    5  C4  UNL     1      -4.939  51.740  27.573  1.00  0.00     0.094 A 
ATOM      6  H3  UNL     1      -6.400  52.373  26.271  1.00  0.00     0.184 HD
HETATM    7  C3  UNL     1      -5.758  52.194  28.585  1.00  0.00     0.078 C 
HETATM    8  C14 UNL     1      -3.699  51.145  27.657  1.00  0.00     0.129 A 
HETATM    9  C2  UNL     1      -5.467  52.316  29.950  1.00  0.00     0.077 C 
HETATM   10  N2  UNL     1      -7.066  52.592  28.229  1.00  0.00    -0.100 NA
HETATM   11  C1  UNL     1      -4.407  51.761  30.634  1.00  0.00     0.103 C 
HETATM   12  N10 UNL     1      -3.343  51.125  30.096  1.00  0.00    -0.309 N 
HETATM   13  C15 UNL     1      -3.007  50.876  28.824  1.00  0.00     0.265 C 
ATOM     14  H10 UNL     1      -2.676  50.772  30.783  1.00  0.00     0.170 HD
HETATM   15  O3  UNL     1      -1.902  50.316  28.640  1.00  0.00    -0.267 OA
HETATM   16  C13 UNL     1      -3.027  50.755  26.507  1.00  0.00     0.277 A 
HETATM   17  N9  UNL     1      -3.628  50.978  25.322  1.00  0.00    -0.155 N 
HETATM   18  O2  UNL     1      -1.907  50.219  26.627  1.00  0.00    -0.266 OA
ATOM     19  H9  UNL     1      -3.149  50.697  24.467  1.00  0.00     0.187 HD
BRANCH  11  20
HETATM   20  N1  UNL     1      -4.411  51.847  31.939  1.00  0.00    -0.385 N 
ATOM     21  H12 UNL     1      -5.282  51.575  32.395  1.00  0.00     0.157 HD
ATOM     22  H11 UNL     1      -3.559  52.174  32.397  1.00  0.00     0.157 HD
ENDBRANCH  11  20
ENDBRANCH   1   3
BRANCH   1  23
HETATM   23  C6  UNL     1      -6.651  51.308  23.718  1.00  0.00     0.157 C 
BRANCH  23  24
HETATM   24  C7  UNL     1      -6.602  50.633  22.345  1.00  0.00     0.141 C 
BRANCH  24  25
HETATM   25  N5  UNL     1      -5.315  50.065  22.102  1.00  0.00    -0.372 N 
ATOM     26  H5  UNL     1      -4.493  50.534  22.481  1.00  0.00     0.161 HD
BRANCH  25  27
HETATM   27  C8  UNL     1      -5.157  48.999  21.433  1.00  0.00     0.136 A 
HETATM   28  N6  UNL     1      -5.157  48.898  20.093  1.00  0.00    -0.285 N 
HETATM   29  N7  UNL     1      -4.961  47.628  19.729  1.00  0.00    -0.309 N 
ATOM     30  H6  UNL     1      -5.288  49.678  19.449  1.00  0.00     0.188 HD
HETATM   31  C9  UNL     1      -4.831  46.882  20.838  1.00  0.00     0.132 A 
ATOM     32  H7  UNL     1      -4.918  47.282  18.770  1.00  0.00     0.186 HD
HETATM   33  C10 UNL     1      -4.946  47.702  21.935  1.00  0.00     0.093 A 
BRANCH  33  34
HETATM   34  S1  UNL     1      -4.893  47.387  23.628  1.00  0.00     0.056 S 
HETATM   35  O1  UNL     1      -3.626  48.211  24.328  1.00  0.00    -0.253 OA
BRANCH  34  36
HETATM   36  C11 UNL     1      -6.358  47.618  24.521  1.00  0.00     0.141 C 
BRANCH  36  37
HETATM   37  C12 UNL     1      -6.237  48.219  25.881  1.00  0.00     0.242 C 
BRANCH  37  38
HETATM   38  N8  UNL     1      -7.543  48.846  26.177  1.00  0.00    -0.079 N 
ATOM     39  H83 UNL     1      -8.338  48.246  25.960  1.00  0.00     0.274 HD
ATOM     40  H82 UNL     1      -7.728  48.943  27.176  1.00  0.00     0.274 HD
ATOM     41  H81 UNL     1      -7.556  49.734  25.675  1.00  0.00     0.274 HD
ENDBRANCH  37  38
ENDBRANCH  36  37
ENDBRANCH  34  36
ENDBRANCH  33  34
ENDBRANCH  25  27
ENDBRANCH  24  25
ENDBRANCH  23  24
ENDBRANCH   1  23
TORSDOF 10
ENDMDL
MODEL 2
REMARK VINA RESULT: -5.179461430      2.325      6.819
REMARK  10 active torsions:
REMARK  status: ('A' for Active; 'I' for Inactive)
REMARK    1  A    between atoms: N1_1  and  C1_4 
REMARK    2  A    between atoms: C5_11  and  N4_12 
REMARK    3  A    between atoms: N4_12  and  C6_14 
REMARK    4  A    between atoms: C6_14  and  C7_15 
REMARK    5  A    between atoms: C7_15  and  N5_16 
REMARK    6  A    between atoms: N5_16  and  C8_18 
REMARK    7  A    between atoms: C10_24  and  S1_25 
REMARK    8  A    between atoms: S1_25  and  C11_27 
REMARK    9  A    between atoms: C11_27  and  C12_28 
REMARK   10  A    between atoms: C12_28  and  N8_29 
ROOT
HETATM    1  N4  UNL     1      -6.081  48.487  27.191  1.00  0.00    -0.224 N 
ATOM      2  H4  UNL     1      -6.896  47.914  27.411  1.00  0.00     0.177 HD
ENDROOT
BRANCH   1   3
HETATM    3  C5  UNL     1      -5.709  48.629  25.976  1.00  0.00     0.681 A 
HETATM    4  N3  UNL     1      -6.242  49.476  25.099  1.00  0.00    -0.189 N 
HETATM    5  C4  UNL     1      -5.793  49.572  23.820  1.00  0.00     0.094 A 
ATOM      6  H3  UNL     1      -7.013  50.073  25.397  1.00  0.00     0.184 HD
HETATM    7  C3  UNL     1      -6.487  50.511  23.088  1.00  0.00     0.078 C 
HETATM    8  C14 UNL     1      -4.750  48.762  23.428  1.00  0.00     0.129 A 
HETATM    9  C2  UNL     1      -6.421  50.765  21.712  1.00  0.00     0.077 C 
HETATM   10  N2  UNL     1      -7.390  51.341  23.792  1.00  0.00    -0.100 NA
HETATM   11  C1  UNL     1      -5.459  50.332  20.826  1.00  0.00     0.103 C 
HETATM   12  N10 UNL     1      -4.478  49.437  21.073  1.00  0.00    -0.309 N 
HETATM   13  C15 UNL     1      -4.174  48.733  22.170  1.00  0.00     0.265 C 
ATOM     14  H10 UNL     1      -3.857  49.268  20.281  1.00  0.00     0.170 HD
HETATM   15  O3  UNL     1      -3.229  47.917  22.065  1.00  0.00    -0.267 OA
HETATM   16  C13 UNL     1      -4.177  47.870  24.324  1.00  0.00     0.277 A 
HETATM   17  N9  UNL     1      -4.675  47.830  25.575  1.00  0.00    -0.155 N 
HETATM   18  O2  UNL     1      -3.235  47.155  23.930  1.00  0.00    -0.266 OA
ATOM     19  H9  UNL     1      -4.266  47.181  26.248  1.00  0.00     0.187 HD
BRANCH  11  20
HETATM   20  N1  UNL     1      -5.480  50.824  19.614  1.00  0.00    -0.385 N 
ATOM     21  H12 UNL     1      -6.202  51.522  19.436  1.00  0.00     0.157 HD
ATOM     22  H11 UNL     1      -4.786  50.482  18.949  1.00  0.00     0.157 HD
ENDBRANCH  11  20
ENDBRANCH   1   3
BRANCH   1  23
HETATM   23  C6  UNL     1      -5.354  49.136  28.251  1.00  0.00     0.157 C 
BRANCH  23  24
HETATM   24  C7  UNL     1      -6.231  50.276  28.770  1.00  0.00     0.141 C 
BRANCH  24  25
HETATM   25  N5  UNL     1      -5.572  51.534  28.624  1.00  0.00    -0.372 N 
ATOM     26  H5  UNL     1      -5.239  52.013  29.460  1.00  0.00     0.161 HD
BRANCH  25  27
HETATM   27  C8  UNL     1      -5.386  52.078  27.493  1.00  0.00     0.136 A 
HETATM   28  N6  UNL     1      -6.343  52.476  26.639  1.00  0.00    -0.285 N 
HETATM   29  N7  UNL     1      -5.789  53.008  25.546  1.00  0.00    -0.309 N 
ATOM     30  H6  UNL     1      -7.345  52.385  26.802  1.00  0.00     0.188 HD
HETATM   31  C9  UNL     1      -4.454  52.961  25.678  1.00  0.00     0.132 A 
ATOM     32  H7  UNL     1      -6.295  53.387  24.745  1.00  0.00     0.186 HD
HETATM   33  C10 UNL     1      -4.152  52.384  26.889  1.00  0.00     0.093 A 
BRANCH  33  34
HETATM   34  S1  UNL     1      -2.655  52.016  27.657  1.00  0.00     0.056 S 
HETATM   35  O1  UNL     1      -1.403  52.129  26.564  1.00  0.00    -0.253 OA
BRANCH  34  36
HETATM   36  C11 UNL     1      -2.287  52.867  29.120  1.00  0.00     0.141 C 
BRANCH  36  37
HETATM   37  C12 UNL     1      -2.546  54.336  29.132  1.00  0.00     0.242 C 
BRANCH  37  38
HETATM   38  N8  UNL     1      -1.817  54.898  27.975  1.00  0.00    -0.079 N 
ATOM     39  H83 UNL     1      -1.865  54.310  27.143  1.00  0.00     0.274 HD
ATOM     40  H82 UNL     1      -2.268  55.721  27.574  1.00  0.00     0.274 HD
ATOM     41  H81 UNL     1      -0.864  55.074  28.294  1.00  0.00     0.274 HD
ENDBRANCH  37  38
ENDBRANCH  36  37
ENDBRANCH  34  36
ENDBRANCH  33  34
ENDBRANCH  25  27
ENDBRANCH  24  25
ENDBRANCH  23  24
ENDBRANCH   1  23
TORSDOF 10
ENDMDL
MODEL 3
REMARK VINA RESULT: -5.091489448      3.960      5.198
REMARK  10 active torsions:
REMARK  status: ('A' for Active; 'I' for Inactive)
REMARK    1  A    between atoms: N1_1  and  C1_4 
REMARK    2  A    between atoms: C5_11  and  N4_12 
REMARK    3  A    between atoms: N4_12  and  C6_14 
REMARK    4  A    between atoms: C6_14  and  C7_15 
REMARK    5  A    between atoms: C7_15  and  N5_16 
REMARK    6  A    between atoms: N5_16  and  C8_18 
REMARK    7  A    between atoms: C10_24  and  S1_25 
REMARK    8  A    between atoms: S1_25  and  C11_27 
REMARK    9  A    between atoms: C11_27  and  C12_28 
REMARK   10  A    between atoms: C12_28  and  N8_29 
ROOT
HETATM    1  N4  UNL     1      -4.131  52.615  28.169  1.00  0.00    -0.224 N 
ATOM      2  H4  UNL     1      -4.747  52.363  28.943  1.00  0.00     0.177 HD
ENDROOT
BRANCH   1   3
HETATM    3  C5  UNL     1      -2.947  53.033  28.407  1.00  0.00     0.681 A 
HETATM    4  N3  UNL     1      -2.399  54.133  27.897  1.00  0.00    -0.189 N 
HETATM    5  C4  UNL     1      -1.129  54.516  28.197  1.00  0.00     0.094 A 
ATOM      6  H3  UNL     1      -2.949  54.707  27.259  1.00  0.00     0.184 HD
HETATM    7  C3  UNL     1      -0.768  55.683  27.558  1.00  0.00     0.078 C 
HETATM    8  C14 UNL     1      -0.394  53.734  29.060  1.00  0.00     0.129 A 
HETATM    9  C2  UNL     1       0.496  56.282  27.492  1.00  0.00     0.077 C 
HETATM   10  N2  UNL     1      -1.785  56.386  26.873  1.00  0.00    -0.100 NA
HETATM   11  C1  UNL     1       1.599  56.001  28.269  1.00  0.00     0.103 C 
HETATM   12  N10 UNL     1       1.734  54.976  29.138  1.00  0.00    -0.309 N 
HETATM   13  C15 UNL     1       0.904  53.979  29.470  1.00  0.00     0.265 C 
ATOM     14  H10 UNL     1       2.628  54.958  29.628  1.00  0.00     0.170 HD
HETATM   15  O3  UNL     1       1.352  53.125  30.271  1.00  0.00    -0.267 OA
HETATM   16  C13 UNL     1      -0.944  52.582  29.607  1.00  0.00     0.277 A 
HETATM   17  N9  UNL     1      -2.207  52.265  29.263  1.00  0.00    -0.155 N 
HETATM   18  O2  UNL     1      -0.245  51.902  30.384  1.00  0.00    -0.266 OA
ATOM     19  H9  UNL     1      -2.628  51.423  29.655  1.00  0.00     0.187 HD
BRANCH  11  20
HETATM   20  N1  UNL     1       2.634  56.796  28.171  1.00  0.00    -0.385 N 
ATOM     21  H12 UNL     1       2.426  57.794  28.210  1.00  0.00     0.157 HD
ATOM     22  H11 UNL     1       3.554  56.368  28.065  1.00  0.00     0.157 HD
ENDBRANCH  11  20
ENDBRANCH   1   3
BRANCH   1  23
HETATM   23  C6  UNL     1      -4.599  52.498  26.813  1.00  0.00     0.157 C 
BRANCH  23  24
HETATM   24  C7  UNL     1      -3.747  51.425  26.132  1.00  0.00     0.141 C 
BRANCH  24  25
HETATM   25  N5  UNL     1      -4.392  50.931  24.959  1.00  0.00    -0.372 N 
ATOM     26  H5  UNL     1      -5.040  51.541  24.461  1.00  0.00     0.161 HD
BRANCH  25  27
HETATM   27  C8  UNL     1      -4.190  49.761  24.511  1.00  0.00     0.136 A 
HETATM   28  N6  UNL     1      -3.327  48.861  25.010  1.00  0.00    -0.285 N 
HETATM   29  N7  UNL     1      -3.374  47.734  24.293  1.00  0.00    -0.309 N 
ATOM     30  H6  UNL     1      -2.724  49.015  25.818  1.00  0.00     0.188 HD
HETATM   31  C9  UNL     1      -4.276  47.892  23.311  1.00  0.00     0.132 A 
ATOM     32  H7  UNL     1      -2.818  46.896  24.463  1.00  0.00     0.186 HD
HETATM   33  C10 UNL     1      -4.817  49.152  23.408  1.00  0.00     0.093 A 
BRANCH  33  34
HETATM   34  S1  UNL     1      -5.996  49.984  22.467  1.00  0.00     0.056 S 
HETATM   35  O1  UNL     1      -6.675  51.220  23.353  1.00  0.00    -0.253 OA
BRANCH  34  36
HETATM   36  C11 UNL     1      -5.510  50.532  20.898  1.00  0.00     0.141 C 
BRANCH  36  37
HETATM   37  C12 UNL     1      -4.392  49.797  20.239  1.00  0.00     0.242 C 
BRANCH  37  38
HETATM   38  N8  UNL     1      -4.943  48.493  19.813  1.00  0.00    -0.079 N 
ATOM     39  H83 UNL     1      -4.534  47.700  20.307  1.00  0.00     0.274 HD
ATOM     40  H82 UNL     1      -5.907  48.343  20.113  1.00  0.00     0.274 HD
ATOM     41  H81 UNL     1      -4.822  48.446  18.801  1.00  0.00     0.274 HD
ENDBRANCH  37  38
ENDBRANCH  36  37
ENDBRANCH  34  36
ENDBRANCH  33  34
ENDBRANCH  25  27
ENDBRANCH  24  25
ENDBRANCH  23  24
ENDBRANCH   1  23
TORSDOF 10
ENDMDL
MODEL 4
REMARK VINA RESULT: -5.078900380      9.429     12.250
REMARK  10 active torsions:
REMARK  status: ('A' for Active; 'I' for Inactive)
REMARK    1  A    between atoms: N1_1  and  C1_4 
REMARK    2  A    between atoms: C5_11  and  N4_12 
REMARK    3  A    between atoms: N4_12  and  C6_14 
REMARK    4  A    between atoms: C6_14  and  C7_15 
REMARK    5  A    between atoms: C7_15  and  N5_16 
REMARK    6  A    between atoms: N5_16  and  C8_18 
REMARK    7  A    between atoms: C10_24  and  S1_25 
REMARK    8  A    between atoms: S1_25  and  C11_27 
REMARK    9  A    between atoms: C11_27  and  C12_28 
REMARK   10  A    between atoms: C12_28  and  N8_29 
ROOT
HETATM    1  N4  UNL     1       2.979  55.457  28.405  1.00  0.00    -0.224 N 
ATOM      2  H4  UNL     1       3.991  55.527  28.300  1.00  0.00     0.177 HD
ENDROOT
BRANCH   1   3
HETATM    3  C5  UNL     1       2.225  56.390  27.962  1.00  0.00     0.681 A 
HETATM    4  N3  UNL     1       0.954  56.247  27.595  1.00  0.00    -0.189 N 
HETATM    5  C4  UNL     1       0.212  57.289  27.133  1.00  0.00     0.094 A 
ATOM      6  H3  UNL     1       0.522  55.326  27.662  1.00  0.00     0.184 HD
HETATM    7  C3  UNL     1      -1.075  56.915  26.811  1.00  0.00     0.078 C 
HETATM    8  C14 UNL     1       0.805  58.529  27.046  1.00  0.00     0.129 A 
HETATM    9  C2  UNL     1      -2.061  57.665  26.158  1.00  0.00     0.077 C 
HETATM   10  N2  UNL     1      -1.480  55.610  27.177  1.00  0.00    -0.100 NA
HETATM   11  C1  UNL     1      -2.069  59.025  25.935  1.00  0.00     0.103 C 
HETATM   12  N10 UNL     1      -1.050  59.885  26.153  1.00  0.00    -0.309 N 
HETATM   13  C15 UNL     1       0.196  59.689  26.601  1.00  0.00     0.265 C 
ATOM     14  H10 UNL     1      -1.270  60.857  25.937  1.00  0.00     0.170 HD
HETATM   15  O3  UNL     1       0.942  60.695  26.629  1.00  0.00    -0.267 OA
HETATM   16  C13 UNL     1       2.129  58.704  27.424  1.00  0.00     0.277 A 
HETATM   17  N9  UNL     1       2.801  57.626  27.872  1.00  0.00    -0.155 N 
HETATM   18  O2  UNL     1       2.628  59.843  27.331  1.00  0.00    -0.266 OA
ATOM     19  H9  UNL     1       3.775  57.736  28.155  1.00  0.00     0.187 HD
BRANCH  11  20
HETATM   20  N1  UNL     1      -3.166  59.560  25.462  1.00  0.00    -0.385 N 
ATOM     21  H12 UNL     1      -3.993  58.963  25.492  1.00  0.00     0.157 HD
ATOM     22  H11 UNL     1      -3.115  60.515  25.107  1.00  0.00     0.157 HD
ENDBRANCH  11  20
ENDBRANCH   1   3
BRANCH   1  23
HETATM   23  C6  UNL     1       2.403  54.307  29.052  1.00  0.00     0.157 C 
BRANCH  23  24
HETATM   24  C7  UNL     1       3.497  53.678  29.915  1.00  0.00     0.141 C 
BRANCH  24  25
HETATM   25  N5  UNL     1       4.755  53.700  29.241  1.00  0.00    -0.372 N 
ATOM     26  H5  UNL     1       4.765  53.739  28.222  1.00  0.00     0.161 HD
BRANCH  25  27
HETATM   27  C8  UNL     1       5.862  53.675  29.861  1.00  0.00     0.136 A 
HETATM   28  N6  UNL     1       6.426  52.596  30.430  1.00  0.00    -0.285 N 
HETATM   29  N7  UNL     1       7.589  52.931  30.995  1.00  0.00    -0.309 N 
ATOM     30  H6  UNL     1       6.024  51.659  30.430  1.00  0.00     0.188 HD
HETATM   31  C9  UNL     1       7.796  54.243  30.798  1.00  0.00     0.132 A 
ATOM     32  H7  UNL     1       8.215  52.297  31.492  1.00  0.00     0.186 HD
HETATM   33  C10 UNL     1       6.735  54.754  30.088  1.00  0.00     0.093 A 
BRANCH  33  34
HETATM   34  S1  UNL     1       6.372  56.343  29.529  1.00  0.00     0.056 S 
HETATM   35  O1  UNL     1       5.815  56.289  27.960  1.00  0.00    -0.253 OA
BRANCH  34  36
HETATM   36  C11 UNL     1       5.342  57.314  30.526  1.00  0.00     0.141 C 
BRANCH  36  37
HETATM   37  C12 UNL     1       5.285  58.774  30.223  1.00  0.00     0.242 C 
BRANCH  37  38
HETATM   38  N8  UNL     1       6.237  59.008  29.116  1.00  0.00    -0.079 N 
ATOM     39  H83 UNL     1       7.196  59.154  29.432  1.00  0.00     0.274 HD
ATOM     40  H82 UNL     1       6.416  58.176  28.553  1.00  0.00     0.274 HD
ATOM     41  H81 UNL     1       5.865  59.789  28.577  1.00  0.00     0.274 HD
ENDBRANCH  37  38
ENDBRANCH  36  37
ENDBRANCH  34  36
ENDBRANCH  33  34
ENDBRANCH  25  27
ENDBRANCH  24  25
ENDBRANCH  23  24
ENDBRANCH   1  23
TORSDOF 10
ENDMDL
MODEL 5
REMARK VINA RESULT: -5.051149490      1.793      2.050
REMARK  10 active torsions:
REMARK  status: ('A' for Active; 'I' for Inactive)
REMARK    1  A    between atoms: N1_1  and  C1_4 
REMARK    2  A    between atoms: C5_11  and  N4_12 
REMARK    3  A    between atoms: N4_12  and  C6_14 
REMARK    4  A    between atoms: C6_14  and  C7_15 
REMARK    5  A    between atoms: C7_15  and  N5_16 
REMARK    6  A    between atoms: N5_16  and  C8_18 
REMARK    7  A    between atoms: C10_24  and  S1_25 
REMARK    8  A    between atoms: S1_25  and  C11_27 
REMARK    9  A    between atoms: C11_27  and  C12_28 
REMARK   10  A    between atoms: C12_28  and  N8_29 
ROOT
HETATM    1  N4  UNL     1      -4.516  51.486  24.232  1.00  0.00    -0.224 N 
ATOM      2  H4  UNL     1      -3.929  51.993  23.571  1.00  0.00     0.177 HD
ENDROOT
BRANCH   1   3
HETATM    3  C5  UNL     1      -4.080  51.230  25.407  1.00  0.00     0.681 A 
HETATM    4  N3  UNL     1      -4.539  50.274  26.210  1.00  0.00    -0.189 N 
HETATM    5  C4  UNL     1      -4.024  50.059  27.450  1.00  0.00     0.094 A 
ATOM      6  H3  UNL     1      -5.303  49.682  25.885  1.00  0.00     0.184 HD
HETATM    7  C3  UNL     1      -4.649  49.021  28.106  1.00  0.00     0.078 C 
HETATM    8  C14 UNL     1      -2.991  50.864  27.879  1.00  0.00     0.129 A 
HETATM    9  C2  UNL     1      -4.506  48.625  29.442  1.00  0.00     0.077 C 
HETATM   10  N2  UNL     1      -5.556  48.236  27.358  1.00  0.00    -0.100 NA
HETATM   11  C1  UNL     1      -3.516  48.998  30.325  1.00  0.00     0.103 C 
HETATM   12  N10 UNL     1      -2.580  49.952  30.132  1.00  0.00    -0.309 N 
HETATM   13  C15 UNL     1      -2.355  50.781  29.105  1.00  0.00     0.265 C 
ATOM     14  H10 UNL     1      -1.927  50.061  30.909  1.00  0.00     0.170 HD
HETATM   15  O3  UNL     1      -1.435  51.618  29.255  1.00  0.00    -0.267 OA
HETATM   16  C13 UNL     1      -2.494  51.868  27.060  1.00  0.00     0.277 A 
HETATM   17  N9  UNL     1      -3.055  52.021  25.845  1.00  0.00    -0.155 N 
HETATM   18  O2  UNL     1      -1.559  52.574  27.486  1.00  0.00    -0.266 OA
ATOM     19  H9  UNL     1      -2.703  52.754  25.228  1.00  0.00     0.187 HD
BRANCH  11  20
HETATM   20  N1  UNL     1      -3.460  48.379  31.476  1.00  0.00    -0.385 N 
ATOM     21  H12 UNL     1      -2.618  48.550  32.026  1.00  0.00     0.157 HD
ATOM     22  H11 UNL     1      -4.246  47.782  31.735  1.00  0.00     0.157 HD
ENDBRANCH  11  20
ENDBRANCH   1   3
BRANCH   1  23
HETATM   23  C6  UNL     1      -5.834  51.060  23.841  1.00  0.00     0.157 C 
BRANCH  23  24
HETATM   24  C7  UNL     1      -5.793  50.783  22.337  1.00  0.00     0.141 C 
BRANCH  24  25
HETATM   25  N5  UNL     1      -4.656  49.991  21.996  1.00  0.00    -0.372 N 
ATOM     26  H5  UNL     1      -3.744  50.256  22.368  1.00  0.00     0.161 HD
BRANCH  25  27
HETATM   27  C8  UNL     1      -4.736  48.970  21.247  1.00  0.00     0.136 A 
HETATM   28  N6  UNL     1      -4.781  48.974  19.905  1.00  0.00    -0.285 N 
HETATM   29  N7  UNL     1      -4.863  47.722  19.445  1.00  0.00    -0.309 N 
ATOM     30  H6  UNL     1      -4.757  49.811  19.322  1.00  0.00     0.188 HD
HETATM   31  C9  UNL     1      -4.872  46.883  20.493  1.00  0.00     0.132 A 
ATOM     32  H7  UNL     1      -4.910  47.450  18.463  1.00  0.00     0.186 HD
HETATM   33  C10 UNL     1      -4.793  47.623  21.649  1.00  0.00     0.093 A 
BRANCH  33  34
HETATM   34  S1  UNL     1      -4.776  47.175  23.313  1.00  0.00     0.056 S 
HETATM   35  O1  UNL     1      -3.836  48.236  24.186  1.00  0.00    -0.253 OA
BRANCH  34  36
HETATM   36  C11 UNL     1      -6.308  46.921  24.077  1.00  0.00     0.141 C 
BRANCH  36  37
HETATM   37  C12 UNL     1      -7.456  47.735  23.583  1.00  0.00     0.242 C 
BRANCH  37  38
HETATM   38  N8  UNL     1      -8.126  46.924  22.543  1.00  0.00    -0.079 N 
ATOM     39  H83 UNL     1      -8.907  46.375  22.900  1.00  0.00     0.274 HD
ATOM     40  H82 UNL     1      -8.658  47.482  21.875  1.00  0.00     0.274 HD
ATOM     41  H81 UNL     1      -7.398  46.357  22.108  1.00  0.00     0.274 HD
ENDBRANCH  37  38
ENDBRANCH  36  37
ENDBRANCH  34  36
ENDBRANCH  33  34
ENDBRANCH  25  27
ENDBRANCH  24  25
ENDBRANCH  23  24
ENDBRANCH   1  23
TORSDOF 10
ENDMDL
