MODEL 1
REMARK VINA RESULT: -5.553073331      0.000      0.000
REMARK  10 active torsions:
REMARK  status: ('A' for Active; 'I' for Inactive)
REMARK       I    between atoms: N1_2  and  C2_4 
REMARK    1  A    between atoms: N3_6  and  C3_8 
REMARK    2  A    between atoms: C4_9  and  C5_10 
REMARK    3  A    between atoms: C5_10  and  N4_11 
REMARK    4  A    between atoms: N4_11  and  C6_14 
REMARK    5  A    between atoms: C6_14  and  C7_15 
REMARK    6  A    between atoms: C7_15  and  O1_16 
REMARK    7  A    between atoms: C7_15  and  N5_18 
REMARK       I    between atoms: N5_18  and  C9_20 
REMARK    8  A    between atoms: C10_23  and  C11_24 
REMARK    9  A    between atoms: C13_27  and  N8_28 
REMARK   10  A    between atoms: C14_33  and  N10_34 
ROOT
HETATM    1  C3  UNL     1      -0.584  56.288  28.199  1.00  0.00     0.119 A 
HETATM    2  C4  UNL     1      -0.939  55.166  29.006  1.00  0.00     0.024 A 
HETATM    3  C10 UNL     1       0.036  54.377  29.611  1.00  0.00     0.006 A 
HETATM    4  C12 UNL     1       1.340  54.782  29.345  1.00  0.00     0.065 A 
HETATM    5  C13 UNL     1       2.434  54.159  29.877  1.00  0.00     0.129 A 
HETATM    6  N9  UNL     1       3.699  54.575  29.591  1.00  0.00    -0.176 N 
ATOM      7  H9  UNL     1       4.485  54.079  30.009  1.00  0.00     0.186 HD
HETATM    8  C14 UNL     1       3.946  55.606  28.785  1.00  0.00     0.679 A 
HETATM    9  N11 UNL     1       2.886  56.265  28.255  1.00  0.00    -0.176 N 
ATOM     10  H11 UNL     1       3.051  57.061  27.639  1.00  0.00     0.186 HD
HETATM   11  C15 UNL     1       1.618  55.893  28.523  1.00  0.00     0.139 A 
HETATM   12  N12 UNL     1       0.654  56.625  27.984  1.00  0.00    -0.322 N 
HETATM   13  C16 UNL     1       1.056  57.854  27.279  1.00  0.00     0.159 C 
ENDROOT
BRANCH   2  14
HETATM   14  C5  UNL     1      -2.380  55.013  29.126  1.00  0.00     0.275 C 
BRANCH  14  15
HETATM   15  N4  UNL     1      -2.918  53.642  28.945  1.00  0.00    -0.067 N 
ATOM     16  H42 UNL     1      -2.464  52.931  29.518  1.00  0.00     0.277 HD
ATOM     17  H41 UNL     1      -3.855  53.501  29.323  1.00  0.00     0.277 HD
BRANCH  15  18
HETATM   18  C6  UNL     1      -2.805  53.425  27.509  1.00  0.00     0.286 C 
BRANCH  18  19
HETATM   19  C7  UNL     1      -2.860  52.046  27.013  1.00  0.00     0.249 C 
BRANCH  19  20
HETATM   20  O1  UNL     1      -1.599  51.935  26.261  1.00  0.00    -0.375 OA
ATOM     21  H1  UNL     1      -1.560  51.005  26.071  1.00  0.00     0.212 HD
ENDBRANCH  19  20
BRANCH  19  22
HETATM   22  N5  UNL     1      -3.782  51.650  26.013  1.00  0.00    -0.312 N 
HETATM   23  C8  UNL     1      -4.695  52.598  25.422  1.00  0.00     0.157 C 
HETATM   24  C9  UNL     1      -3.790  50.309  25.545  1.00  0.00     0.332 C 
HETATM   25  N6  UNL     1      -4.530  49.865  24.404  1.00  0.00    -0.040 NA
HETATM   26  O2  UNL     1      -3.072  49.464  26.193  1.00  0.00    -0.251 OA
ENDBRANCH  19  22
ENDBRANCH  18  19
ENDBRANCH  15  18
ENDBRANCH  14  15
ENDBRANCH   2  14
BRANCH   1  27
HETATM   27  N3  UNL     1      -1.530  56.813  27.560  1.00  0.00    -0.316 N 
HETATM   28  C2  UNL     1      -1.896  57.550  26.494  1.00  0.00     0.189 C 
HETATM   29  N1  UNL     1      -2.446  58.695  26.590  1.00  0.00    -0.369 N 
HETATM   30  N2  UNL     1      -1.736  57.038  25.126  1.00  0.00    -0.064 NA
HETATM   31  C1  UNL     1      -2.915  59.516  25.504  1.00  0.00     0.148 C 
ATOM     32  H1  UNL     1      -2.566  59.068  27.532  1.00  0.00     0.161 HD
ATOM     33  H3  UNL     1      -2.386  56.582  28.063  1.00  0.00     0.170 HD
ENDBRANCH   1  27
BRANCH   3  34
HETATM   34  C11 UNL     1      -0.369  53.291  30.462  1.00  0.00     0.113 C 
HETATM   35  N7  UNL     1      -0.519  51.936  30.044  1.00  0.00    -0.114 NA
ENDBRANCH   3  34
BRANCH   5  36
HETATM   36  N8  UNL     1       2.349  53.313  30.797  1.00  0.00    -0.384 N 
ATOM     37  H82 UNL     1       1.471  52.795  30.829  1.00  0.00     0.157 HD
ATOM     38  H81 UNL     1       3.147  53.043  31.372  1.00  0.00     0.157 HD
ENDBRANCH   5  36
BRANCH   8  39
HETATM   39  N10 UNL     1       5.071  55.937  28.483  1.00  0.00    -0.234 N 
ATOM     40 2H10 UNL     1       5.354  56.912  28.581  1.00  0.00     0.174 HD
ATOM     41 1H10 UNL     1       5.748  55.280  28.095  1.00  0.00     0.174 HD
ENDBRANCH   8  39
TORSDOF 10
ENDMDL
MODEL 2
REMARK VINA RESULT: -5.493506395      3.873      5.513
REMARK  10 active torsions:
REMARK  status: ('A' for Active; 'I' for Inactive)
REMARK       I    between atoms: N1_2  and  C2_4 
REMARK    1  A    between atoms: N3_6  and  C3_8 
REMARK    2  A    between atoms: C4_9  and  C5_10 
REMARK    3  A    between atoms: C5_10  and  N4_11 
REMARK    4  A    between atoms: N4_11  and  C6_14 
REMARK    5  A    between atoms: C6_14  and  C7_15 
REMARK    6  A    between atoms: C7_15  and  O1_16 
REMARK    7  A    between atoms: C7_15  and  N5_18 
REMARK       I    between atoms: N5_18  and  C9_20 
REMARK    8  A    between atoms: C10_23  and  C11_24 
REMARK    9  A    between atoms: C13_27  and  N8_28 
REMARK   10  A    between atoms: C14_33  and  N10_34 
ROOT
HETATM    1  C3  UNL     1       3.598  57.750  28.785  1.00  0.00     0.119 A 
HETATM    2  C4  UNL     1       3.030  56.441  28.787  1.00  0.00     0.024 A 
HETATM    3  C10 UNL     1       3.832  55.309  28.892  1.00  0.00     0.006 A 
HETATM    4  C12 UNL     1       5.193  55.582  28.983  1.00  0.00     0.065 A 
HETATM    5  C13 UNL     1       6.139  54.606  29.130  1.00  0.00     0.129 A 
HETATM    6  N9  UNL     1       7.465  54.907  29.209  1.00  0.00    -0.176 N 
ATOM      7  H9  UNL     1       8.136  54.146  29.316  1.00  0.00     0.186 HD
HETATM    8  C14 UNL     1       7.919  56.158  29.149  1.00  0.00     0.679 A 
HETATM    9  N11 UNL     1       7.009  57.157  29.027  1.00  0.00    -0.176 N 
ATOM     10  H11 UNL     1       7.333  58.123  28.985  1.00  0.00     0.186 HD
HETATM   11  C15 UNL     1       5.687  56.902  28.958  1.00  0.00     0.139 A 
HETATM   12  N12 UNL     1       4.881  57.951  28.875  1.00  0.00    -0.322 N 
HETATM   13  C16 UNL     1       5.492  59.283  29.021  1.00  0.00     0.159 C 
ENDROOT
BRANCH   2  14
HETATM   14  C5  UNL     1       1.578  56.475  28.711  1.00  0.00     0.275 C 
BRANCH  14  15
HETATM   15  N4  UNL     1       0.977  56.161  27.392  1.00  0.00    -0.067 N 
ATOM     16  H42 UNL     1       1.307  56.747  26.626  1.00  0.00     0.277 HD
ATOM     17  H41 UNL     1       1.281  55.276  26.987  1.00  0.00     0.277 HD
BRANCH  15  18
HETATM   18  C6  UNL     1      -0.455  56.249  27.648  1.00  0.00     0.286 C 
BRANCH  18  19
HETATM   19  C7  UNL     1      -1.262  57.104  26.772  1.00  0.00     0.249 C 
BRANCH  19  20
HETATM   20  O1  UNL     1      -0.384  57.267  25.601  1.00  0.00    -0.375 OA
ATOM     21  H1  UNL     1      -0.896  56.866  24.909  1.00  0.00     0.212 HD
ENDBRANCH  19  20
BRANCH  19  22
HETATM   22  N5  UNL     1      -1.517  58.463  27.083  1.00  0.00    -0.312 N 
HETATM   23  C8  UNL     1      -1.142  59.018  28.361  1.00  0.00     0.157 C 
HETATM   24  C9  UNL     1      -2.114  59.314  26.116  1.00  0.00     0.332 C 
HETATM   25  N6  UNL     1      -2.219  60.733  26.257  1.00  0.00    -0.040 NA
HETATM   26  O2  UNL     1      -2.567  58.755  25.053  1.00  0.00    -0.251 OA
ENDBRANCH  19  22
ENDBRANCH  18  19
ENDBRANCH  15  18
ENDBRANCH  14  15
ENDBRANCH   2  14
BRANCH   1  27
HETATM   27  N3  UNL     1       2.804  58.682  28.503  1.00  0.00    -0.316 N 
HETATM   28  C2  UNL     1       2.417  59.593  27.590  1.00  0.00     0.189 C 
HETATM   29  N1  UNL     1       2.491  60.850  27.781  1.00  0.00    -0.369 N 
HETATM   30  N2  UNL     1       1.814  59.181  26.315  1.00  0.00    -0.064 NA
HETATM   31  C1  UNL     1       2.046  61.883  26.880  1.00  0.00     0.148 C 
ATOM     32  H1  UNL     1       2.907  61.157  28.660  1.00  0.00     0.161 HD
ATOM     33  H3  UNL     1       2.192  58.799  29.310  1.00  0.00     0.170 HD
ENDBRANCH   1  27
BRANCH   3  34
HETATM   34  C11 UNL     1       3.212  54.012  28.947  1.00  0.00     0.113 C 
HETATM   35  N7  UNL     1       2.836  53.334  30.144  1.00  0.00    -0.114 NA
ENDBRANCH   3  34
BRANCH   5  36
HETATM   36  N8  UNL     1       5.847  53.418  29.398  1.00  0.00    -0.384 N 
ATOM     37  H82 UNL     1       4.986  53.294  29.929  1.00  0.00     0.157 HD
ATOM     38  H81 UNL     1       6.337  52.625  28.984  1.00  0.00     0.157 HD
ENDBRANCH   5  36
BRANCH   8  39
HETATM   39  N10 UNL     1       9.100  56.420  29.159  1.00  0.00    -0.234 N 
ATOM     40 2H10 UNL     1       9.762  55.759  29.566  1.00  0.00     0.174 HD
ATOM     41 1H10 UNL     1       9.467  57.304  28.804  1.00  0.00     0.174 HD
ENDBRANCH   8  39
TORSDOF 10
ENDMDL
MODEL 3
REMARK VINA RESULT: -5.365644959      3.651      7.698
REMARK  10 active torsions:
REMARK  status: ('A' for Active; 'I' for Inactive)
REMARK       I    between atoms: N1_2  and  C2_4 
REMARK    1  A    between atoms: N3_6  and  C3_8 
REMARK    2  A    between atoms: C4_9  and  C5_10 
REMARK    3  A    between atoms: C5_10  and  N4_11 
REMARK    4  A    between atoms: N4_11  and  C6_14 
REMARK    5  A    between atoms: C6_14  and  C7_15 
REMARK    6  A    between atoms: C7_15  and  O1_16 
REMARK    7  A    between atoms: C7_15  and  N5_18 
REMARK       I    between atoms: N5_18  and  C9_20 
REMARK    8  A    between atoms: C10_23  and  C11_24 
REMARK    9  A    between atoms: C13_27  and  N8_28 
REMARK   10  A    between atoms: C14_33  and  N10_34 
ROOT
HETATM    1  C3  UNL     1       2.619  57.400  28.146  1.00  0.00     0.119 A 
HETATM    2  C4  UNL     1       2.033  56.125  28.409  1.00  0.00     0.024 A 
HETATM    3  C10 UNL     1       0.662  55.924  28.286  1.00  0.00     0.006 A 
HETATM    4  C12 UNL     1      -0.047  57.058  27.903  1.00  0.00     0.065 A 
HETATM    5  C13 UNL     1      -1.398  57.053  27.693  1.00  0.00     0.129 A 
HETATM    6  N9  UNL     1      -2.064  58.183  27.326  1.00  0.00    -0.176 N 
ATOM      7  H9  UNL     1      -3.073  58.133  27.182  1.00  0.00     0.186 HD
HETATM    8  C14 UNL     1      -1.447  59.350  27.148  1.00  0.00     0.679 A 
HETATM    9  N11 UNL     1      -0.103  59.390  27.325  1.00  0.00    -0.176 N 
ATOM     10  H11 UNL     1       0.391  60.272  27.189  1.00  0.00     0.186 HD
HETATM   11  C15 UNL     1       0.595  58.292  27.676  1.00  0.00     0.139 A 
HETATM   12  N12 UNL     1       1.908  58.430  27.789  1.00  0.00    -0.322 N 
HETATM   13  C16 UNL     1       2.488  59.718  27.371  1.00  0.00     0.159 C 
ENDROOT
BRANCH   2  14
HETATM   14  C5  UNL     1       3.032  55.127  28.759  1.00  0.00     0.275 C 
BRANCH  14  15
HETATM   15  N4  UNL     1       3.186  54.821  30.202  1.00  0.00    -0.067 N 
ATOM     16  H42 UNL     1       3.166  55.638  30.812  1.00  0.00     0.277 HD
ATOM     17  H41 UNL     1       2.383  54.355  30.624  1.00  0.00     0.277 HD
BRANCH  15  18
HETATM   18  C6  UNL     1       4.426  54.057  30.251  1.00  0.00     0.286 C 
BRANCH  18  19
HETATM   19  C7  UNL     1       5.428  54.299  29.208  1.00  0.00     0.249 C 
BRANCH  19  20
HETATM   20  O1  UNL     1       5.744  52.933  28.758  1.00  0.00    -0.375 OA
ATOM     21  H1  UNL     1       6.167  53.090  27.922  1.00  0.00     0.212 HD
ENDBRANCH  19  20
BRANCH  19  22
HETATM   22  N5  UNL     1       6.728  54.767  29.518  1.00  0.00    -0.312 N 
HETATM   23  C8  UNL     1       7.420  54.319  30.702  1.00  0.00     0.157 C 
HETATM   24  C9  UNL     1       7.391  55.661  28.635  1.00  0.00     0.332 C 
HETATM   25  N6  UNL     1       8.769  56.023  28.750  1.00  0.00    -0.040 NA
HETATM   26  O2  UNL     1       6.692  56.151  27.675  1.00  0.00    -0.251 OA
ENDBRANCH  19  22
ENDBRANCH  18  19
ENDBRANCH  15  18
ENDBRANCH  14  15
ENDBRANCH   2  14
BRANCH   1  27
HETATM   27  N3  UNL     1       3.829  57.514  28.464  1.00  0.00    -0.316 N 
HETATM   28  C2  UNL     1       4.723  58.046  29.318  1.00  0.00     0.189 C 
HETATM   29  N1  UNL     1       5.612  58.888  28.966  1.00  0.00    -0.369 N 
HETATM   30  N2  UNL     1       4.769  57.631  30.727  1.00  0.00    -0.064 NA
HETATM   31  C1  UNL     1       6.635  59.458  29.805  1.00  0.00     0.148 C 
ATOM     32  H1  UNL     1       5.598  59.190  27.992  1.00  0.00     0.161 HD
ATOM     33  H3  UNL     1       4.362  56.971  27.785  1.00  0.00     0.170 HD
ENDBRANCH   1  27
BRANCH   3  34
HETATM   34  C11 UNL     1       0.123  54.608  28.505  1.00  0.00     0.113 C 
HETATM   35  N7  UNL     1      -0.013  53.602  27.504  1.00  0.00    -0.114 NA
ENDBRANCH   3  34
BRANCH   5  36
HETATM   36  N8  UNL     1      -2.068  55.997  27.629  1.00  0.00    -0.384 N 
ATOM     37  H82 UNL     1      -1.632  55.182  28.059  1.00  0.00     0.157 HD
ATOM     38  H81 UNL     1      -3.040  55.980  27.319  1.00  0.00     0.157 HD
ENDBRANCH   5  36
BRANCH   8  39
HETATM   39  N10 UNL     1      -2.048  60.366  26.881  1.00  0.00    -0.234 N 
ATOM     40 2H10 UNL     1      -2.840  60.331  26.239  1.00  0.00     0.174 HD
ATOM     41 1H10 UNL     1      -1.770  61.278  27.247  1.00  0.00     0.174 HD
ENDBRANCH   8  39
TORSDOF 10
ENDMDL
MODEL 4
REMARK VINA RESULT: -5.364550498      1.024      1.040
REMARK  10 active torsions:
REMARK  status: ('A' for Active; 'I' for Inactive)
REMARK       I    between atoms: N1_2  and  C2_4 
REMARK    1  A    between atoms: N3_6  and  C3_8 
REMARK    2  A    between atoms: C4_9  and  C5_10 
REMARK    3  A    between atoms: C5_10  and  N4_11 
REMARK    4  A    between atoms: N4_11  and  C6_14 
REMARK    5  A    between atoms: C6_14  and  C7_15 
REMARK    6  A    between atoms: C7_15  and  O1_16 
REMARK    7  A    between atoms: C7_15  and  N5_18 
REMARK       I    between atoms: N5_18  and  C9_20 
REMARK    8  A    between atoms: C10_23  and  C11_24 
REMARK    9  A    between atoms: C13_27  and  N8_28 
REMARK   10  A    between atoms: C14_33  and  N10_34 
ROOT
HETATM    1  C3  UNL     1       0.077  56.929  28.246  1.00  0.00     0.119 A 
HETATM    2  C4  UNL     1      -0.212  55.637  28.778  1.00  0.00     0.024 A 
HETATM    3  C10 UNL     1       0.808  54.774  29.168  1.00  0.00     0.006 A 
HETATM    4  C12 UNL     1       2.088  55.286  28.980  1.00  0.00     0.065 A 
HETATM    5  C13 UNL     1       3.220  54.606  29.335  1.00  0.00     0.129 A 
HETATM    6  N9  UNL     1       4.459  55.132  29.131  1.00  0.00    -0.176 N 
ATOM      7  H9  UNL     1       5.275  54.588  29.410  1.00  0.00     0.186 HD
HETATM    8  C14 UNL     1       4.644  56.331  28.580  1.00  0.00     0.679 A 
HETATM    9  N11 UNL     1       3.545  57.047  28.235  1.00  0.00    -0.176 N 
ATOM     10  H11 UNL     1       3.663  57.969  27.817  1.00  0.00     0.186 HD
HETATM   11  C15 UNL     1       2.301  56.567  28.432  1.00  0.00     0.139 A 
HETATM   12  N12 UNL     1       1.295  57.361  28.093  1.00  0.00    -0.322 N 
HETATM   13  C16 UNL     1       1.630  58.735  27.684  1.00  0.00     0.159 C 
ENDROOT
BRANCH   2  14
HETATM   14  C5  UNL     1      -1.643  55.397  28.884  1.00  0.00     0.275 C 
BRANCH  14  15
HETATM   15  N4  UNL     1      -2.283  54.696  27.745  1.00  0.00    -0.067 N 
ATOM     16  H42 UNL     1      -2.929  55.270  27.203  1.00  0.00     0.277 HD
ATOM     17  H41 UNL     1      -1.654  54.485  26.969  1.00  0.00     0.277 HD
BRANCH  15  18
HETATM   18  C6  UNL     1      -2.888  53.526  28.369  1.00  0.00     0.286 C 
BRANCH  18  19
HETATM   19  C7  UNL     1      -2.652  52.216  27.753  1.00  0.00     0.249 C 
BRANCH  19  20
HETATM   20  O1  UNL     1      -1.554  52.505  26.816  1.00  0.00    -0.375 OA
ATOM     21  H1  UNL     1      -1.565  51.741  26.252  1.00  0.00     0.212 HD
ENDBRANCH  19  20
BRANCH  19  22
HETATM   22  N5  UNL     1      -3.588  51.629  26.867  1.00  0.00    -0.312 N 
HETATM   23  C8  UNL     1      -4.892  52.214  26.665  1.00  0.00     0.157 C 
HETATM   24  C9  UNL     1      -3.236  50.469  26.127  1.00  0.00     0.332 C 
HETATM   25  N6  UNL     1      -4.026  49.929  25.064  1.00  0.00    -0.040 NA
HETATM   26  O2  UNL     1      -2.132  49.894  26.442  1.00  0.00    -0.251 OA
ENDBRANCH  19  22
ENDBRANCH  18  19
ENDBRANCH  15  18
ENDBRANCH  14  15
ENDBRANCH   2  14
BRANCH   1  27
HETATM   27  N3  UNL     1      -0.905  57.545  27.761  1.00  0.00    -0.316 N 
HETATM   28  C2  UNL     1      -1.464  58.085  26.662  1.00  0.00     0.189 C 
HETATM   29  N1  UNL     1      -1.700  59.330  26.536  1.00  0.00    -0.369 N 
HETATM   30  N2  UNL     1      -1.903  57.242  25.541  1.00  0.00    -0.064 NA
HETATM   31  C1  UNL     1      -2.343  59.974  25.420  1.00  0.00     0.148 C 
ATOM     32  H1  UNL     1      -1.403  59.933  27.304  1.00  0.00     0.161 HD
ATOM     33  H3  UNL     1      -1.558  57.704  28.528  1.00  0.00     0.170 HD
ENDBRANCH   1  27
BRANCH   3  34
HETATM   34  C11 UNL     1       0.469  53.504  29.752  1.00  0.00     0.113 C 
HETATM   35  N7  UNL     1       0.339  53.255  31.150  1.00  0.00    -0.114 NA
ENDBRANCH   3  34
BRANCH   5  36
HETATM   36  N8  UNL     1       3.192  53.569  30.036  1.00  0.00    -0.384 N 
ATOM     37  H82 UNL     1       3.267  53.724  31.041  1.00  0.00     0.157 HD
ATOM     38  H81 UNL     1       2.950  52.653  29.655  1.00  0.00     0.157 HD
ENDBRANCH   5  36
BRANCH   8  39
HETATM   39  N10 UNL     1       5.747  56.771  28.344  1.00  0.00    -0.234 N 
ATOM     40 2H10 UNL     1       6.571  56.293  28.706  1.00  0.00     0.174 HD
ATOM     41 1H10 UNL     1       5.889  57.636  27.820  1.00  0.00     0.174 HD
ENDBRANCH   8  39
TORSDOF 10
ENDMDL
MODEL 5
REMARK VINA RESULT: -5.255235007      5.314      8.757
REMARK  10 active torsions:
REMARK  status: ('A' for Active; 'I' for Inactive)
REMARK       I    between atoms: N1_2  and  C2_4 
REMARK    1  A    between atoms: N3_6  and  C3_8 
REMARK    2  A    between atoms: C4_9  and  C5_10 
REMARK    3  A    between atoms: C5_10  and  N4_11 
REMARK    4  A    between atoms: N4_11  and  C6_14 
REMARK    5  A    between atoms: C6_14  and  C7_15 
REMARK    6  A    between atoms: C7_15  and  O1_16 
REMARK    7  A    between atoms: C7_15  and  N5_18 
REMARK       I    between atoms: N5_18  and  C9_20 
REMARK    8  A    between atoms: C10_23  and  C11_24 
REMARK    9  A    between atoms: C13_27  and  N8_28 
REMARK   10  A    between atoms: C14_33  and  N10_34 
ROOT
HETATM    1  C3  UNL     1       1.426  60.180  27.161  1.00  0.00     0.119 A 
HETATM    2  C4  UNL     1       0.075  60.312  26.720  1.00  0.00     0.024 A 
HETATM    3  C10 UNL     1      -0.778  59.214  26.678  1.00  0.00     0.006 A 
HETATM    4  C12 UNL     1      -0.191  58.021  27.087  1.00  0.00     0.065 A 
HETATM    5  C13 UNL     1      -0.876  56.839  27.151  1.00  0.00     0.129 A 
HETATM    6  N9  UNL     1      -0.269  55.687  27.549  1.00  0.00    -0.176 N 
ATOM      7  H9  UNL     1      -0.819  54.828  27.580  1.00  0.00     0.186 HD
HETATM    8  C14 UNL     1       1.016  55.639  27.898  1.00  0.00     0.679 A 
HETATM    9  N11 UNL     1       1.723  56.796  27.870  1.00  0.00    -0.176 N 
ATOM     10  H11 UNL     1       2.707  56.785  28.139  1.00  0.00     0.186 HD
HETATM   11  C15 UNL     1       1.157  57.960  27.494  1.00  0.00     0.139 A 
HETATM   12  N12 UNL     1       1.926  59.039  27.535  1.00  0.00    -0.322 N 
HETATM   13  C16 UNL     1       3.266  58.888  28.129  1.00  0.00     0.159 C 
ENDROOT
BRANCH   2  14
HETATM   14  C5  UNL     1      -0.259  61.688  26.387  1.00  0.00     0.275 C 
BRANCH  14  15
HETATM   15  N4  UNL     1      -0.707  61.943  24.997  1.00  0.00    -0.067 N 
ATOM     16  H42 UNL     1      -0.628  61.140  24.373  1.00  0.00     0.277 HD
ATOM     17  H41 UNL     1      -1.715  62.060  24.891  1.00  0.00     0.277 HD
BRANCH  15  18
HETATM   18  C6  UNL     1       0.083  63.100  24.598  1.00  0.00     0.286 C 
BRANCH  18  19
HETATM   19  C7  UNL     1       0.372  63.280  23.171  1.00  0.00     0.249 C 
BRANCH  19  20
HETATM   20  O1  UNL     1       1.770  63.743  23.193  1.00  0.00    -0.375 OA
ATOM     21  H1  UNL     1       2.120  63.289  23.950  1.00  0.00     0.212 HD
ENDBRANCH  19  20
BRANCH  19  22
HETATM   22  N5  UNL     1      -0.223  64.319  22.414  1.00  0.00    -0.312 N 
HETATM   23  C8  UNL     1      -0.488  65.610  23.000  1.00  0.00     0.157 C 
HETATM   24  C9  UNL     1      -0.531  64.112  21.043  1.00  0.00     0.332 C 
HETATM   25  N6  UNL     1      -0.936  65.153  20.150  1.00  0.00    -0.040 NA
HETATM   26  O2  UNL     1      -0.421  62.912  20.599  1.00  0.00    -0.251 OA
ENDBRANCH  19  22
ENDBRANCH  18  19
ENDBRANCH  15  18
ENDBRANCH  14  15
ENDBRANCH   2  14
BRANCH   1  27
HETATM   27  N3  UNL     1       2.152  61.191  26.985  1.00  0.00    -0.316 N 
HETATM   28  C2  UNL     1       3.258  61.696  26.407  1.00  0.00     0.189 C 
HETATM   29  N1  UNL     1       4.249  62.147  27.068  1.00  0.00    -0.369 N 
HETATM   30  N2  UNL     1       3.365  61.816  24.947  1.00  0.00    -0.064 NA
HETATM   31  C1  UNL     1       5.439  62.751  26.526  1.00  0.00     0.148 C 
ATOM     32  H1  UNL     1       4.195  62.072  28.084  1.00  0.00     0.161 HD
ATOM     33  H3  UNL     1       1.717  61.955  27.501  1.00  0.00     0.170 HD
ENDBRANCH   1  27
BRANCH   3  34
HETATM   34  C11 UNL     1      -2.148  59.404  26.281  1.00  0.00     0.113 C 
HETATM   35  N7  UNL     1      -2.633  59.315  24.943  1.00  0.00    -0.114 NA
ENDBRANCH   3  34
BRANCH   5  36
HETATM   36  N8  UNL     1      -2.122  56.775  27.045  1.00  0.00    -0.384 N 
ATOM     37  H82 UNL     1      -2.576  57.636  26.743  1.00  0.00     0.157 HD
ATOM     38  H81 UNL     1      -2.633  55.893  27.098  1.00  0.00     0.157 HD
ENDBRANCH   5  36
BRANCH   8  39
HETATM   39  N10 UNL     1       1.569  54.604  28.194  1.00  0.00    -0.234 N 
ATOM     40 2H10 UNL     1       2.034  54.519  29.097  1.00  0.00     0.174 HD
ATOM     41 1H10 UNL     1       1.622  53.811  27.553  1.00  0.00     0.174 HD
ENDBRANCH   8  39
TORSDOF 10
ENDMDL
