MODEL 1
REMARK VINA RESULT: -3.981235622      0.000      0.000
REMARK  1 active torsions:
REMARK  status: ('A' for Active; 'I' for Inactive)
REMARK    1  A    between atoms: C2_2  and  N1_3 
ROOT
HETATM    1  N1  UNL     1      29.094  14.389  17.216  1.00  0.00    -0.034 N 
HETATM    2  C3  UNL     1      28.773  15.702  17.742  1.00  0.00     0.468 C 
HETATM    3  N2  UNL     1      28.102  16.313  16.583  1.00  0.00    -0.049 N 
ATOM      4  H21 UNL     1      27.837  17.293  16.679  1.00  0.00     0.279 HD
ATOM      5  H22 UNL     1      27.151  15.999  16.394  1.00  0.00     0.279 HD
HETATM    6  C4  UNL     1      29.108  16.006  15.553  1.00  0.00     0.269 C 
HETATM    7  C5  UNL     1      29.307  14.516  15.813  1.00  0.00     0.244 A 
HETATM    8  C6  UNL     1      30.401  14.132  16.675  1.00  0.00     0.275 A 
ENDROOT
BRANCH   1   9
HETATM    9  C2  UNL     1      28.326  13.328  17.782  1.00  0.00     0.236 C 
HETATM   10  C1  UNL     1      28.007  13.464  19.222  1.00  0.00     0.035 C 
ENDBRANCH   1   9
TORSDOF 1
ENDMDL
MODEL 2
REMARK VINA RESULT: -3.775486081      0.933      3.245
REMARK  1 active torsions:
REMARK  status: ('A' for Active; 'I' for Inactive)
REMARK    1  A    between atoms: C2_2  and  N1_3 
ROOT
HETATM    1  N1  UNL     1      29.045  15.203  17.066  1.00  0.00    -0.034 N 
HETATM    2  C3  UNL     1      29.794  13.973  16.896  1.00  0.00     0.468 C 
HETATM    3  N2  UNL     1      28.732  12.970  17.084  1.00  0.00    -0.049 N 
ATOM      4  H21 UNL     1      29.027  11.994  17.084  1.00  0.00     0.279 HD
ATOM      5  H22 UNL     1      28.082  12.849  16.308  1.00  0.00     0.279 HD
HETATM    6  C4  UNL     1      28.162  13.479  18.342  1.00  0.00     0.269 C 
HETATM    7  C5  UNL     1      27.976  14.948  17.972  1.00  0.00     0.244 A 
HETATM    8  C6  UNL     1      29.030  15.864  18.342  1.00  0.00     0.275 A 
ENDROOT
BRANCH   1   9
HETATM    9  C2  UNL     1      28.868  15.952  15.863  1.00  0.00     0.236 C 
HETATM   10  C1  UNL     1      29.496  15.377  14.651  1.00  0.00     0.035 C 
ENDBRANCH   1   9
TORSDOF 1
ENDMDL
MODEL 3
REMARK VINA RESULT: -3.600627607      1.256      2.132
REMARK  1 active torsions:
REMARK  status: ('A' for Active; 'I' for Inactive)
REMARK    1  A    between atoms: C2_2  and  N1_3 
ROOT
HETATM    1  N1  UNL     1      28.614  14.307  17.918  1.00  0.00    -0.034 N 
HETATM    2  C3  UNL     1      28.694  13.257  16.921  1.00  0.00     0.468 C 
HETATM    3  N2  UNL     1      29.992  13.562  16.296  1.00  0.00    -0.049 N 
ATOM      4  H21 UNL     1      30.251  12.992  15.492  1.00  0.00     0.279 HD
ATOM      5  H22 UNL     1      30.822  13.313  16.833  1.00  0.00     0.279 HD
HETATM    6  C4  UNL     1      29.786  14.997  16.040  1.00  0.00     0.269 C 
HETATM    7  C5  UNL     1      29.307  15.445  17.418  1.00  0.00     0.244 A 
HETATM    8  C6  UNL     1      27.881  15.511  17.636  1.00  0.00     0.275 A 
ENDROOT
BRANCH   1   9
HETATM    9  C2  UNL     1      28.760  13.849  19.263  1.00  0.00     0.236 C 
HETATM   10  C1  UNL     1      27.924  12.686  19.639  1.00  0.00     0.035 C 
ENDBRANCH   1   9
TORSDOF 1
ENDMDL
MODEL 4
REMARK VINA RESULT: -3.494639687      1.324      3.006
REMARK  1 active torsions:
REMARK  status: ('A' for Active; 'I' for Inactive)
REMARK    1  A    between atoms: C2_2  and  N1_3 
ROOT
HETATM    1  N1  UNL     1      28.700  14.728  17.343  1.00  0.00    -0.034 N 
HETATM    2  C3  UNL     1      27.724  15.181  18.315  1.00  0.00     0.468 C 
HETATM    3  N2  UNL     1      28.515  15.120  19.556  1.00  0.00    -0.049 N 
ATOM      4  H21 UNL     1      28.016  15.327  20.420  1.00  0.00     0.279 HD
ATOM      5  H22 UNL     1      29.203  15.860  19.689  1.00  0.00     0.279 HD
HETATM    6  C4  UNL     1      29.044  13.753  19.419  1.00  0.00     0.269 C 
HETATM    7  C5  UNL     1      29.583  13.820  17.993  1.00  0.00     0.244 A 
HETATM    8  C6  UNL     1      28.721  13.350  16.934  1.00  0.00     0.275 A 
ENDROOT
BRANCH   1   9
HETATM    9  C2  UNL     1      29.164  15.750  16.460  1.00  0.00     0.236 C 
HETATM   10  C1  UNL     1      29.496  15.309  15.086  1.00  0.00     0.035 C 
ENDBRANCH   1   9
TORSDOF 1
ENDMDL
MODEL 5
REMARK VINA RESULT: -3.372455733      1.188      2.832
REMARK  1 active torsions:
REMARK  status: ('A' for Active; 'I' for Inactive)
REMARK    1  A    between atoms: C2_2  and  N1_3 
ROOT
HETATM    1  N1  UNL     1      28.769  14.340  17.249  1.00  0.00    -0.034 N 
HETATM    2  C3  UNL     1      28.211  15.675  17.356  1.00  0.00     0.468 C 
HETATM    3  N2  UNL     1      28.975  16.208  18.496  1.00  0.00    -0.049 N 
ATOM      4  H21 UNL     1      28.709  17.136  18.824  1.00  0.00     0.279 HD
ATOM      5  H22 UNL     1      29.942  16.471  18.308  1.00  0.00     0.279 HD
HETATM    6  C4  UNL     1      28.773  15.098  19.441  1.00  0.00     0.269 C 
HETATM    7  C5  UNL     1      29.160  13.919  18.553  1.00  0.00     0.244 A 
HETATM    8  C6  UNL     1      28.094  13.229  17.864  1.00  0.00     0.275 A 
ENDROOT
BRANCH   1   9
HETATM    9  C2  UNL     1      29.591  14.139  16.100  1.00  0.00     0.236 C 
HETATM   10  C1  UNL     1      29.584  15.237  15.106  1.00  0.00     0.035 C 
ENDBRANCH   1   9
TORSDOF 1
ENDMDL
