MODEL 1
REMARK VINA RESULT: -4.345826574      0.000      0.000
REMARK  3 active torsions:
REMARK  status: ('A' for Active; 'I' for Inactive)
REMARK    1  A    between atoms: N1_1  and  N2_4 
REMARK    2  A    between atoms: N2_4  and  C1_5 
REMARK    3  A    between atoms: C1_5  and  S1_6 
ROOT
HETATM    1  S1  UNL     1      29.187  15.345  17.259  1.00  0.00    -0.115 SA
HETATM    2  C2  UNL     1      29.305  13.709  16.618  1.00  0.00     0.304 C 
HETATM    3  N3  UNL     1      29.790  14.236  15.340  1.00  0.00    -0.059 N 
ATOM      4  H31 UNL     1      29.505  13.738  14.497  1.00  0.00     0.278 HD
ATOM      5  H32 UNL     1      30.785  14.126  15.141  1.00  0.00     0.278 HD
HETATM    6  C3  UNL     1      29.296  15.593  15.501  1.00  0.00     0.304 C 
ENDROOT
BRANCH   1   7
HETATM    7  C1  UNL     1      27.634  15.826  17.846  1.00  0.00     0.246 C 
BRANCH   7   8
HETATM    8  N2  UNL     1      27.039  16.768  17.285  1.00  0.00    -0.340 NA
BRANCH   8   9
HETATM    9  N1  UNL     1      26.468  17.594  16.539  1.00  0.00    -0.280 N 
ATOM     10  H12 UNL     1      26.571  16.934  15.769  1.00  0.00     0.191 HD
ATOM     11  H11 UNL     1      25.993  18.370  16.079  1.00  0.00     0.191 HD
ENDBRANCH   8   9
ENDBRANCH   7   8
ENDBRANCH   1   7
TORSDOF 3
ENDMDL
MODEL 2
REMARK VINA RESULT: -4.067773907      1.877      2.646
REMARK  3 active torsions:
REMARK  status: ('A' for Active; 'I' for Inactive)
REMARK    1  A    between atoms: N1_1  and  N2_4 
REMARK    2  A    between atoms: N2_4  and  C1_5 
REMARK    3  A    between atoms: C1_5  and  S1_6 
ROOT
HETATM    1  S1  UNL     1      29.107  14.776  17.968  1.00  0.00    -0.115 SA
HETATM    2  C2  UNL     1      27.911  14.956  19.248  1.00  0.00     0.304 C 
HETATM    3  N3  UNL     1      27.678  13.509  19.246  1.00  0.00    -0.059 N 
ATOM      4  H31 UNL     1      26.727  13.194  19.434  1.00  0.00     0.278 HD
ATOM      5  H32 UNL     1      28.072  12.976  20.021  1.00  0.00     0.278 HD
HETATM    6  C3  UNL     1      28.211  13.240  17.922  1.00  0.00     0.304 C 
ENDROOT
BRANCH   1   7
HETATM    7  C1  UNL     1      28.827  15.687  16.527  1.00  0.00     0.246 C 
BRANCH   7   8
HETATM    8  N2  UNL     1      27.951  16.576  16.532  1.00  0.00    -0.340 NA
BRANCH   8   9
HETATM    9  N1  UNL     1      26.960  17.329  16.408  1.00  0.00    -0.280 N 
ATOM     10  H12 UNL     1      27.594  18.075  16.119  1.00  0.00     0.191 HD
ATOM     11  H11 UNL     1      26.058  17.801  16.359  1.00  0.00     0.191 HD
ENDBRANCH   8   9
ENDBRANCH   7   8
ENDBRANCH   1   7
TORSDOF 3
ENDMDL
MODEL 3
REMARK VINA RESULT: -4.059669092      2.080      3.276
REMARK  3 active torsions:
REMARK  status: ('A' for Active; 'I' for Inactive)
REMARK    1  A    between atoms: N1_1  and  N2_4 
REMARK    2  A    between atoms: N2_4  and  C1_5 
REMARK    3  A    between atoms: C1_5  and  S1_6 
ROOT
HETATM    1  S1  UNL     1      29.260  14.106  17.904  1.00  0.00    -0.115 SA
HETATM    2  C2  UNL     1      28.051  15.067  18.748  1.00  0.00     0.304 C 
HETATM    3  N3  UNL     1      27.465  13.850  19.314  1.00  0.00    -0.059 N 
ATOM      4  H31 UNL     1      26.454  13.839  19.443  1.00  0.00     0.278 HD
ATOM      5  H32 UNL     1      27.652  13.661  20.300  1.00  0.00     0.278 HD
HETATM    6  C3  UNL     1      28.016  12.915  18.349  1.00  0.00     0.304 C 
ENDROOT
BRANCH   1   7
HETATM    7  C1  UNL     1      29.330  14.301  16.188  1.00  0.00     0.246 C 
BRANCH   7   8
HETATM    8  N2  UNL     1      29.283  15.450  15.706  1.00  0.00    -0.340 NA
BRANCH   8   9
HETATM    9  N1  UNL     1      29.232  16.670  15.432  1.00  0.00    -0.280 N 
ATOM     10  H12 UNL     1      30.252  16.680  15.399  1.00  0.00     0.191 HD
ATOM     11  H11 UNL     1      29.014  17.643  15.219  1.00  0.00     0.191 HD
ENDBRANCH   8   9
ENDBRANCH   7   8
ENDBRANCH   1   7
TORSDOF 3
ENDMDL
MODEL 4
REMARK VINA RESULT: -4.059667703      2.383      3.075
REMARK  3 active torsions:
REMARK  status: ('A' for Active; 'I' for Inactive)
REMARK    1  A    between atoms: N1_1  and  N2_4 
REMARK    2  A    between atoms: N2_4  and  C1_5 
REMARK    3  A    between atoms: C1_5  and  S1_6 
ROOT
HETATM    1  S1  UNL     1      29.694  14.572  16.784  1.00  0.00    -0.115 SA
HETATM    2  C2  UNL     1      29.549  15.167  15.133  1.00  0.00     0.304 C 
HETATM    3  N3  UNL     1      29.163  16.489  15.633  1.00  0.00    -0.059 N 
ATOM      4  H31 UNL     1      28.484  17.012  15.081  1.00  0.00     0.278 HD
ATOM      5  H32 UNL     1      29.866  17.227  15.581  1.00  0.00     0.278 HD
HETATM    6  C3  UNL     1      28.748  16.068  16.961  1.00  0.00     0.304 C 
ENDROOT
BRANCH   1   7
HETATM    7  C1  UNL     1      28.734  13.193  17.186  1.00  0.00     0.246 C 
BRANCH   7   8
HETATM    8  N2  UNL     1      28.209  13.129  18.316  1.00  0.00    -0.340 NA
BRANCH   8   9
HETATM    9  N1  UNL     1      27.568  13.240  19.385  1.00  0.00    -0.280 N 
ATOM     10  H12 UNL     1      26.739  12.908  18.894  1.00  0.00     0.191 HD
ATOM     11  H11 UNL     1      27.202  13.388  20.325  1.00  0.00     0.191 HD
ENDBRANCH   8   9
ENDBRANCH   7   8
ENDBRANCH   1   7
TORSDOF 3
ENDMDL
MODEL 5
REMARK VINA RESULT: -3.910593695      2.084      3.275
REMARK  3 active torsions:
REMARK  status: ('A' for Active; 'I' for Inactive)
REMARK    1  A    between atoms: N1_1  and  N2_4 
REMARK    2  A    between atoms: N2_4  and  C1_5 
REMARK    3  A    between atoms: C1_5  and  S1_6 
ROOT
HETATM    1  S1  UNL     1      28.568  13.860  17.601  1.00  0.00    -0.115 SA
HETATM    2  C2  UNL     1      28.900  13.845  19.330  1.00  0.00     0.304 C 
HETATM    3  N3  UNL     1      27.784  14.766  19.561  1.00  0.00    -0.059 N 
ATOM      4  H31 UNL     1      27.896  15.449  20.310  1.00  0.00     0.278 HD
ATOM      5  H32 UNL     1      26.935  14.371  19.966  1.00  0.00     0.278 HD
HETATM    6  C3  UNL     1      27.690  15.283  18.207  1.00  0.00     0.304 C 
ENDROOT
BRANCH   1   7
HETATM    7  C1  UNL     1      29.873  14.342  16.576  1.00  0.00     0.246 C 
BRANCH   7   8
HETATM    8  N2  UNL     1      29.711  15.306  15.800  1.00  0.00    -0.340 NA
BRANCH   8   9
HETATM    9  N1  UNL     1      29.489  16.382  15.203  1.00  0.00    -0.280 N 
ATOM     10  H12 UNL     1      30.200  16.824  15.785  1.00  0.00     0.191 HD
ATOM     11  H11 UNL     1      29.187  17.164  14.623  1.00  0.00     0.191 HD
ENDBRANCH   8   9
ENDBRANCH   7   8
ENDBRANCH   1   7
TORSDOF 3
ENDMDL
