MODEL 1
REMARK VINA RESULT: -3.516847476      0.000      0.000
REMARK  1 active torsions:
REMARK  status: ('A' for Active; 'I' for Inactive)
REMARK    1  A    between atoms: N2_4  and  C1_6 
ROOT
HETATM    1  C1  UNL     1      27.410  11.372  20.079  1.00  0.00     0.340 C 
HETATM    2  C2  UNL     1      26.628  10.440  20.972  1.00  0.00     0.043 C 
HETATM    3  C3  UNL     1      27.348   9.129  20.633  1.00  0.00     0.039 C 
HETATM    4  C4  UNL     1      27.750   9.358  19.190  1.00  0.00     0.275 C 
HETATM    5  N3  UNL     1      27.166  10.656  18.811  1.00  0.00     0.113 N 
HETATM    6  C5  UNL     1      25.724  10.402  18.808  1.00  0.00     0.275 C 
HETATM    7  C6  UNL     1      25.304  10.375  20.274  1.00  0.00     0.039 C 
ENDROOT
BRANCH   1   8
HETATM    8  N2  UNL     1      26.961  12.690  20.064  1.00  0.00    -0.310 N 
HETATM    9  N1  UNL     1      27.541  13.561  19.407  1.00  0.00    -0.347 N 
ATOM     10  H12 UNL     1      28.365  13.292  18.870  1.00  0.00     0.176 HD
ATOM     11  H11 UNL     1      27.213  14.527  19.395  1.00  0.00     0.176 HD
ATOM     12  H2  UNL     1      26.135  12.942  20.607  1.00  0.00     0.182 HD
ENDBRANCH   1   8
TORSDOF 1
ENDMDL
MODEL 2
REMARK VINA RESULT: -3.434307100      0.751      1.041
REMARK  1 active torsions:
REMARK  status: ('A' for Active; 'I' for Inactive)
REMARK    1  A    between atoms: N2_4  and  C1_6 
ROOT
HETATM    1  C1  UNL     1      27.493  11.597  19.327  1.00  0.00     0.340 C 
HETATM    2  C2  UNL     1      27.777  10.517  20.342  1.00  0.00     0.043 C 
HETATM    3  C3  UNL     1      27.945   9.331  19.383  1.00  0.00     0.039 C 
HETATM    4  C4  UNL     1      27.005   9.706  18.256  1.00  0.00     0.275 C 
HETATM    5  N3  UNL     1      26.334  10.945  18.687  1.00  0.00     0.113 N 
HETATM    6  C5  UNL     1      25.494  10.513  19.807  1.00  0.00     0.275 C 
HETATM    7  C6  UNL     1      26.439  10.336  20.990  1.00  0.00     0.039 C 
ENDROOT
BRANCH   1   8
HETATM    8  N2  UNL     1      27.195  12.848  19.864  1.00  0.00    -0.310 N 
HETATM    9  N1  UNL     1      27.570  13.890  19.317  1.00  0.00    -0.347 N 
ATOM     10  H12 UNL     1      28.109  13.815  18.454  1.00  0.00     0.176 HD
ATOM     11  H11 UNL     1      27.352  14.806  19.710  1.00  0.00     0.176 HD
ATOM     12  H2  UNL     1      26.655  12.904  20.728  1.00  0.00     0.182 HD
ENDBRANCH   1   8
TORSDOF 1
ENDMDL
MODEL 3
REMARK VINA RESULT: -3.337881887      1.165      1.899
REMARK  1 active torsions:
REMARK  status: ('A' for Active; 'I' for Inactive)
REMARK    1  A    between atoms: N2_4  and  C1_6 
ROOT
HETATM    1  C1  UNL     1      26.197  11.007  20.242  1.00  0.00     0.340 C 
HETATM    2  C2  UNL     1      24.875  10.477  19.745  1.00  0.00     0.043 C 
HETATM    3  C3  UNL     1      24.589   9.469  20.866  1.00  0.00     0.039 C 
HETATM    4  C4  UNL     1      25.986   9.039  21.263  1.00  0.00     0.275 C 
HETATM    5  N3  UNL     1      26.897   9.710  20.319  1.00  0.00     0.113 N 
HETATM    6  C5  UNL     1      26.608   9.063  19.037  1.00  0.00     0.275 C 
HETATM    7  C6  UNL     1      25.290   9.663  18.557  1.00  0.00     0.039 C 
ENDROOT
BRANCH   1   8
HETATM    8  N2  UNL     1      26.822  11.922  19.396  1.00  0.00    -0.310 N 
HETATM    9  N1  UNL     1      27.269  12.992  19.822  1.00  0.00    -0.347 N 
ATOM     10  H12 UNL     1      27.170  13.195  20.816  1.00  0.00     0.176 HD
ATOM     11  H11 UNL     1      27.726  13.662  19.203  1.00  0.00     0.176 HD
ATOM     12  H2  UNL     1      26.912  11.702  18.404  1.00  0.00     0.182 HD
ENDBRANCH   1   8
TORSDOF 1
ENDMDL
MODEL 4
REMARK VINA RESULT: -3.303555907      1.068      1.977
REMARK  1 active torsions:
REMARK  status: ('A' for Active; 'I' for Inactive)
REMARK    1  A    between atoms: N2_4  and  C1_6 
ROOT
HETATM    1  C1  UNL     1      26.548  11.459  19.337  1.00  0.00     0.340 C 
HETATM    2  C2  UNL     1      27.451  10.290  19.028  1.00  0.00     0.043 C 
HETATM    3  C3  UNL     1      26.413   9.351  18.400  1.00  0.00     0.039 C 
HETATM    4  C4  UNL     1      25.152   9.734  19.148  1.00  0.00     0.275 C 
HETATM    5  N3  UNL     1      25.569  10.721  20.159  1.00  0.00     0.113 N 
HETATM    6  C5  UNL     1      26.387   9.942  21.090  1.00  0.00     0.275 C 
HETATM    7  C6  UNL     1      27.729   9.740  20.394  1.00  0.00     0.039 C 
ENDROOT
BRANCH   1   8
HETATM    8  N2  UNL     1      27.158  12.512  20.017  1.00  0.00    -0.310 N 
HETATM    9  N1  UNL     1      27.508  13.541  19.431  1.00  0.00    -0.347 N 
ATOM     10  H12 UNL     1      27.340  13.606  18.427  1.00  0.00     0.176 HD
ATOM     11  H11 UNL     1      27.954  14.312  19.928  1.00  0.00     0.176 HD
ATOM     12  H2  UNL     1      27.318  12.430  21.021  1.00  0.00     0.182 HD
ENDBRANCH   1   8
TORSDOF 1
ENDMDL
MODEL 5
REMARK VINA RESULT: -3.260822250      1.014      1.997
REMARK  1 active torsions:
REMARK  status: ('A' for Active; 'I' for Inactive)
REMARK    1  A    between atoms: N2_4  and  C1_6 
ROOT
HETATM    1  C1  UNL     1      26.789  11.571  20.262  1.00  0.00     0.340 C 
HETATM    2  C2  UNL     1      26.090  10.880  19.116  1.00  0.00     0.043 C 
HETATM    3  C3  UNL     1      25.160   9.966  19.924  1.00  0.00     0.039 C 
HETATM    4  C4  UNL     1      25.986   9.700  21.167  1.00  0.00     0.275 C 
HETATM    5  N3  UNL     1      27.286  10.353  20.933  1.00  0.00     0.113 N 
HETATM    6  C5  UNL     1      27.884   9.562  19.856  1.00  0.00     0.275 C 
HETATM    7  C6  UNL     1      27.172   9.994  18.578  1.00  0.00     0.039 C 
ENDROOT
BRANCH   1   8
HETATM    8  N2  UNL     1      27.804  12.450  19.891  1.00  0.00    -0.310 N 
HETATM    9  N1  UNL     1      27.556  13.599  19.510  1.00  0.00    -0.347 N 
ATOM     10  H12 UNL     1      26.580  13.894  19.472  1.00  0.00     0.176 HD
ATOM     11  H11 UNL     1      28.299  14.242  19.238  1.00  0.00     0.176 HD
ATOM     12  H2  UNL     1      28.774  12.138  19.935  1.00  0.00     0.182 HD
ENDBRANCH   1   8
TORSDOF 1
ENDMDL
