MODEL 1
REMARK VINA RESULT: -10.327376477      0.000      0.000
REMARK  11 active torsions:
REMARK  status: ('A' for Active; 'I' for Inactive)
REMARK    1  A    between atoms: N1_1  and  C1_4 
REMARK    2  A    between atoms: C2_7  and  C3_8 
REMARK    3  A    between atoms: C8_13  and  C9_14 
REMARK    4  A    between atoms: C12_17  and  C13_18 
REMARK    5  A    between atoms: C13_18  and  N3_19 
REMARK    6  A    between atoms: C14_20  and  C15_21 
REMARK    7  A    between atoms: C15_21  and  C16_22 
REMARK    8  A    between atoms: C16_22  and  C17_23 
REMARK    9  A    between atoms: C19_25  and  N4_26 
REMARK   10  A    between atoms: N4_26  and  S1_28 
REMARK   11  A    between atoms: S1_28  and  C20_31 
ROOT
HETATM    1  N3  UNL     1      17.963  10.333  25.789  1.00  0.00    -0.299 N 
HETATM    2  C14 UNL     1      18.324   9.163  25.250  1.00  0.00     0.022 A 
HETATM    3  C24 UNL     1      18.010   7.964  25.897  1.00  0.00     0.099 A 
HETATM    4  C25 UNL     1      17.327   7.986  27.087  1.00  0.00     0.251 A 
HETATM    5  O4  UNL     1      17.044   6.897  27.672  1.00  0.00    -0.268 OA
HETATM    6  N9  UNL     1      16.976   9.156  27.603  1.00  0.00    -0.275 N 
ATOM      7  H9  UNL     1      16.467   9.188  28.486  1.00  0.00     0.173 HD
HETATM    8  C26 UNL     1      17.284  10.290  26.976  1.00  0.00     0.329 A 
HETATM    9  O5  UNL     1      16.949  11.417  27.462  1.00  0.00    -0.246 OA
ENDROOT
BRANCH   2  10
HETATM   10  C15 UNL     1      18.967   9.017  23.942  1.00  0.00     0.062 C 
BRANCH  10  11
HETATM   11  C16 UNL     1      17.891   8.771  22.887  1.00  0.00     0.050 C 
BRANCH  11  12
HETATM   12  C17 UNL     1      18.427   7.772  21.936  1.00  0.00     0.015 A 
HETATM   13  C18 UNL     1      19.175   8.152  20.862  1.00  0.00     0.063 A 
HETATM   14  C19 UNL     1      19.658   7.207  19.986  1.00  0.00     0.130 A 
HETATM   15  N7  UNL     1      19.372   5.912  20.221  1.00  0.00    -0.282 N 
HETATM   16  N8  UNL     1      18.665   5.519  21.232  1.00  0.00    -0.264 N 
ATOM     17  H7  UNL     1      19.728   5.209  19.574  1.00  0.00     0.188 HD
HETATM   18  C23 UNL     1      18.183   6.436  22.102  1.00  0.00     0.266 A 
ATOM     19  H8  UNL     1      18.472   4.527  21.371  1.00  0.00     0.190 HD
HETATM   20  O3  UNL     1      17.506   5.977  23.057  1.00  0.00    -0.266 OA
BRANCH  14  21
HETATM   21  N4  UNL     1      20.352   7.525  18.964  1.00  0.00    -0.263 N 
ATOM     22  H4  UNL     1      20.204   8.453  18.567  1.00  0.00     0.180 HD
BRANCH  21  23
HETATM   23  S1  UNL     1      21.509   6.523  18.210  1.00  0.00     0.281 S 
HETATM   24  O1  UNL     1      21.161   5.090  18.540  1.00  0.00    -0.199 OA
HETATM   25  O2  UNL     1      21.559   6.676  16.716  1.00  0.00    -0.199 OA
BRANCH  23  26
HETATM   26  C20 UNL     1      23.101   6.815  18.884  1.00  0.00     0.165 A 
HETATM   27  C21 UNL     1      23.969   7.831  18.611  1.00  0.00     0.132 A 
HETATM   28  N5  UNL     1      25.065   7.663  19.350  1.00  0.00    -0.359 N 
HETATM   29  C22 UNL     1      24.881   6.555  20.076  1.00  0.00     0.181 A 
ATOM     30  H5  UNL     1      25.888   8.265  19.360  1.00  0.00     0.166 HD
HETATM   31  N6  UNL     1      23.679   6.026  19.798  1.00  0.00    -0.341 N 
ATOM     32  H6  UNL     1      23.281   5.182  20.206  1.00  0.00     0.167 HD
ENDBRANCH  23  26
ENDBRANCH  21  23
ENDBRANCH  14  21
ENDBRANCH  11  12
ENDBRANCH  10  11
ENDBRANCH   2  10
BRANCH   1  33
HETATM   33  C13 UNL     1      18.318  11.596  25.215  1.00  0.00     0.172 C 
BRANCH  33  34
HETATM   34  C12 UNL     1      19.776  11.902  25.259  1.00  0.00    -0.040 A 
HETATM   35  C11 UNL     1      20.563  11.511  26.301  1.00  0.00     0.010 A 
HETATM   36  C10 UNL     1      21.918  11.819  26.257  1.00  0.00     0.013 A 
HETATM   37  C9  UNL     1      22.501  12.496  25.220  1.00  0.00    -0.025 A 
HETATM   38  C28 UNL     1      21.710  12.893  24.168  1.00  0.00     0.013 A 
HETATM   39  C27 UNL     1      20.371  12.594  24.198  1.00  0.00     0.010 A 
BRANCH  37  40
HETATM   40  C8  UNL     1      23.918  12.803  25.217  1.00  0.00    -0.013 A 
HETATM   41  C3  UNL     1      24.737  12.427  24.180  1.00  0.00     0.002 A 
HETATM   42  C4  UNL     1      26.093  12.709  24.144  1.00  0.00     0.014 A 
HETATM   43  C5  UNL     1      26.677  13.397  25.175  1.00  0.00     0.001 A 
HETATM   44  C6  UNL     1      25.854  13.781  26.225  1.00  0.00     0.001 A 
HETATM   45  C7  UNL     1      24.504  13.498  26.259  1.00  0.00     0.013 A 
BRANCH  41  46
HETATM   46  C2  UNL     1      24.230  11.676  23.000  1.00  0.00     0.051 A 
HETATM   47  N2  UNL     1      23.671  10.493  23.123  1.00  0.00    -0.336 N 
HETATM   48  C1  UNL     1      23.245   9.880  22.020  1.00  0.00     0.142 A 
ATOM     49  H2  UNL     1      23.566  10.056  24.038  1.00  0.00     0.168 HD
HETATM   50  S2  UNL     1      23.638  10.990  20.782  1.00  0.00    -0.064 SA
HETATM   51  C29 UNL     1      24.340  12.205  21.752  1.00  0.00     0.083 A 
BRANCH  48  52
HETATM   52  N1  UNL     1      22.660   8.705  21.914  1.00  0.00    -0.380 N 
ATOM     53  H12 UNL     1      22.812   7.865  22.473  1.00  0.00     0.158 HD
ATOM     54  H11 UNL     1      21.945   8.412  21.247  1.00  0.00     0.158 HD
ENDBRANCH  48  52
ENDBRANCH  41  46
ENDBRANCH  37  40
ENDBRANCH  33  34
ENDBRANCH   1  33
TORSDOF 11
ENDMDL
MODEL 2
REMARK VINA RESULT: -10.206930451      3.061      6.837
REMARK  11 active torsions:
REMARK  status: ('A' for Active; 'I' for Inactive)
REMARK    1  A    between atoms: N1_1  and  C1_4 
REMARK    2  A    between atoms: C2_7  and  C3_8 
REMARK    3  A    between atoms: C8_13  and  C9_14 
REMARK    4  A    between atoms: C12_17  and  C13_18 
REMARK    5  A    between atoms: C13_18  and  N3_19 
REMARK    6  A    between atoms: C14_20  and  C15_21 
REMARK    7  A    between atoms: C15_21  and  C16_22 
REMARK    8  A    between atoms: C16_22  and  C17_23 
REMARK    9  A    between atoms: C19_25  and  N4_26 
REMARK   10  A    between atoms: N4_26  and  S1_28 
REMARK   11  A    between atoms: S1_28  and  C20_31 
ROOT
HETATM    1  N3  UNL     1      21.476  12.297  26.071  1.00  0.00    -0.299 N 
HETATM    2  C14 UNL     1      22.720  12.463  25.609  1.00  0.00     0.022 A 
HETATM    3  C24 UNL     1      23.816  12.270  26.455  1.00  0.00     0.099 A 
HETATM    4  C25 UNL     1      23.617  11.906  27.763  1.00  0.00     0.251 A 
HETATM    5  O4  UNL     1      24.613  11.732  28.528  1.00  0.00    -0.268 OA
HETATM    6  N9  UNL     1      22.375  11.745  28.201  1.00  0.00    -0.275 N 
ATOM      7  H9  UNL     1      22.212  11.474  29.171  1.00  0.00     0.173 HD
HETATM    8  C26 UNL     1      21.342  11.934  27.383  1.00  0.00     0.329 A 
HETATM    9  O5  UNL     1      20.148  11.779  27.794  1.00  0.00    -0.246 OA
ENDROOT
BRANCH   2  10
HETATM   10  C15 UNL     1      23.053  12.753  24.212  1.00  0.00     0.062 C 
BRANCH  10  11
HETATM   11  C16 UNL     1      24.260  11.911  23.805  1.00  0.00     0.050 C 
BRANCH  11  12
HETATM   12  C17 UNL     1      23.931  11.263  22.517  1.00  0.00     0.015 A 
HETATM   13  C18 UNL     1      23.741   9.915  22.436  1.00  0.00     0.063 A 
HETATM   14  C19 UNL     1      23.443   9.330  21.226  1.00  0.00     0.130 A 
HETATM   15  N7  UNL     1      23.346  10.122  20.140  1.00  0.00    -0.282 N 
HETATM   16  N8  UNL     1      23.521  11.404  20.184  1.00  0.00    -0.264 N 
ATOM     17  H7  UNL     1      23.125   9.692  19.242  1.00  0.00     0.188 HD
HETATM   18  C23 UNL     1      23.815  11.993  21.366  1.00  0.00     0.266 A 
ATOM     19  H8  UNL     1      23.438  11.964  19.336  1.00  0.00     0.190 HD
HETATM   20  O3  UNL     1      23.970  13.241  21.329  1.00  0.00    -0.266 OA
BRANCH  14  21
HETATM   21  N4  UNL     1      23.268   8.073  21.108  1.00  0.00    -0.263 N 
ATOM     22  H4  UNL     1      22.645   7.621  21.778  1.00  0.00     0.180 HD
BRANCH  21  23
HETATM   23  S1  UNL     1      23.991   7.085  19.919  1.00  0.00     0.281 S 
HETATM   24  O1  UNL     1      25.079   7.893  19.250  1.00  0.00    -0.199 OA
HETATM   25  O2  UNL     1      24.594   5.822  20.468  1.00  0.00    -0.199 OA
BRANCH  23  26
HETATM   26  C20 UNL     1      22.828   6.686  18.669  1.00  0.00     0.165 A 
HETATM   27  C21 UNL     1      23.055   6.168  17.427  1.00  0.00     0.132 A 
HETATM   28  N5  UNL     1      21.884   6.023  16.809  1.00  0.00    -0.359 N 
HETATM   29  C22 UNL     1      20.939   6.445  17.655  1.00  0.00     0.181 A 
ATOM     30  H5  UNL     1      21.736   5.659  15.867  1.00  0.00     0.166 HD
HETATM   31  N6  UNL     1      21.507   6.854  18.800  1.00  0.00    -0.341 N 
ATOM     32  H6  UNL     1      21.023   7.224  19.618  1.00  0.00     0.167 HD
ENDBRANCH  23  26
ENDBRANCH  21  23
ENDBRANCH  14  21
ENDBRANCH  11  12
ENDBRANCH  10  11
ENDBRANCH   2  10
BRANCH   1  33
HETATM   33  C13 UNL     1      20.311  12.551  25.278  1.00  0.00     0.172 C 
BRANCH  33  34
HETATM   34  C12 UNL     1      19.770  11.349  24.581  1.00  0.00    -0.040 A 
HETATM   35  C11 UNL     1      18.453  11.242  24.246  1.00  0.00     0.010 A 
HETATM   36  C10 UNL     1      18.032  10.097  23.581  1.00  0.00     0.013 A 
HETATM   37  C9  UNL     1      18.874   9.071  23.244  1.00  0.00    -0.025 A 
HETATM   38  C28 UNL     1      20.203   9.176  23.580  1.00  0.00     0.013 A 
HETATM   39  C27 UNL     1      20.633  10.302  24.236  1.00  0.00     0.010 A 
BRANCH  37  40
HETATM   40  C8  UNL     1      18.392   7.890  22.554  1.00  0.00    -0.013 A 
HETATM   41  C3  UNL     1      17.603   6.958  23.182  1.00  0.00     0.002 A 
HETATM   42  C4  UNL     1      17.122   5.822  22.550  1.00  0.00     0.014 A 
HETATM   43  C5  UNL     1      17.429   5.588  21.236  1.00  0.00     0.001 A 
HETATM   44  C6  UNL     1      18.227   6.527  20.596  1.00  0.00     0.001 A 
HETATM   45  C7  UNL     1      18.704   7.657  21.227  1.00  0.00     0.013 A 
BRANCH  41  46
HETATM   46  C2  UNL     1      17.196   7.092  24.607  1.00  0.00     0.051 A 
HETATM   47  N2  UNL     1      16.037   7.607  24.949  1.00  0.00    -0.336 N 
HETATM   48  C1  UNL     1      15.745   7.698  26.245  1.00  0.00     0.142 A 
ATOM     49  H2  UNL     1      15.378   7.929  24.240  1.00  0.00     0.168 HD
HETATM   50  S2  UNL     1      17.131   7.044  27.002  1.00  0.00    -0.064 SA
HETATM   51  C29 UNL     1      18.031   6.681  25.599  1.00  0.00     0.083 A 
BRANCH  48  52
HETATM   52  N1  UNL     1      14.652   8.174  26.804  1.00  0.00    -0.380 N 
ATOM     53  H12 UNL     1      14.201   9.076  26.653  1.00  0.00     0.158 HD
ATOM     54  H11 UNL     1      14.051   7.729  27.498  1.00  0.00     0.158 HD
ENDBRANCH  48  52
ENDBRANCH  41  46
ENDBRANCH  37  40
ENDBRANCH  33  34
ENDBRANCH   1  33
TORSDOF 11
ENDMDL
MODEL 3
REMARK VINA RESULT: -10.170948606      3.263      8.160
REMARK  11 active torsions:
REMARK  status: ('A' for Active; 'I' for Inactive)
REMARK    1  A    between atoms: N1_1  and  C1_4 
REMARK    2  A    between atoms: C2_7  and  C3_8 
REMARK    3  A    between atoms: C8_13  and  C9_14 
REMARK    4  A    between atoms: C12_17  and  C13_18 
REMARK    5  A    between atoms: C13_18  and  N3_19 
REMARK    6  A    between atoms: C14_20  and  C15_21 
REMARK    7  A    between atoms: C15_21  and  C16_22 
REMARK    8  A    between atoms: C16_22  and  C17_23 
REMARK    9  A    between atoms: C19_25  and  N4_26 
REMARK   10  A    between atoms: N4_26  and  S1_28 
REMARK   11  A    between atoms: S1_28  and  C20_31 
ROOT
HETATM    1  N3  UNL     1      18.951   8.234  23.982  1.00  0.00    -0.299 N 
HETATM    2  C14 UNL     1      19.916   8.977  23.429  1.00  0.00     0.022 A 
HETATM    3  C24 UNL     1      19.898  10.368  23.566  1.00  0.00     0.099 A 
HETATM    4  C25 UNL     1      18.891  10.975  24.274  1.00  0.00     0.251 A 
HETATM    5  O4  UNL     1      18.877  12.237  24.396  1.00  0.00    -0.268 OA
HETATM    6  N9  UNL     1      17.945  10.220  24.817  1.00  0.00    -0.275 N 
ATOM      7  H9  UNL     1      17.190  10.657  25.346  1.00  0.00     0.173 HD
HETATM    8  C26 UNL     1      17.974   8.896  24.676  1.00  0.00     0.329 A 
HETATM    9  O5  UNL     1      17.073   8.164  25.195  1.00  0.00    -0.246 OA
ENDROOT
BRANCH   2  10
HETATM   10  C15 UNL     1      21.087   8.432  22.739  1.00  0.00     0.062 C 
BRANCH  10  11
HETATM   11  C16 UNL     1      22.187   9.491  22.719  1.00  0.00     0.050 C 
BRANCH  11  12
HETATM   12  C17 UNL     1      22.942   9.319  21.459  1.00  0.00     0.015 A 
HETATM   13  C18 UNL     1      23.224   8.078  20.971  1.00  0.00     0.063 A 
HETATM   14  C19 UNL     1      23.934   7.939  19.800  1.00  0.00     0.130 A 
HETATM   15  N7  UNL     1      24.335   9.055  19.160  1.00  0.00    -0.282 N 
HETATM   16  N8  UNL     1      24.084  10.247  19.597  1.00  0.00    -0.264 N 
ATOM     17  H7  UNL     1      24.861   8.956  18.292  1.00  0.00     0.188 HD
HETATM   18  C23 UNL     1      23.387  10.400  20.747  1.00  0.00     0.266 A 
ATOM     19  H8  UNL     1      24.408  11.064  19.080  1.00  0.00     0.190 HD
HETATM   20  O3  UNL     1      23.182  11.587  21.106  1.00  0.00    -0.266 OA
BRANCH  14  21
HETATM   21  N4  UNL     1      24.225   6.796  19.317  1.00  0.00    -0.263 N 
ATOM     22  H4  UNL     1      24.814   6.184  19.883  1.00  0.00     0.180 HD
BRANCH  21  23
HETATM   23  S1  UNL     1      23.709   6.206  17.802  1.00  0.00     0.281 S 
HETATM   24  O1  UNL     1      24.572   6.848  16.741  1.00  0.00    -0.199 OA
HETATM   25  O2  UNL     1      23.810   4.712  17.668  1.00  0.00    -0.199 OA
BRANCH  23  26
HETATM   26  C20 UNL     1      22.063   6.715  17.478  1.00  0.00     0.165 A 
HETATM   27  C21 UNL     1      21.513   7.126  16.299  1.00  0.00     0.132 A 
HETATM   28  N5  UNL     1      20.231   7.420  16.509  1.00  0.00    -0.359 N 
HETATM   29  C22 UNL     1      19.984   7.195  17.804  1.00  0.00     0.181 A 
ATOM     30  H5  UNL     1      19.563   7.754  15.814  1.00  0.00     0.166 HD
HETATM   31  N6  UNL     1      21.102   6.762  18.409  1.00  0.00    -0.341 N 
ATOM     32  H6  UNL     1      21.200   6.515  19.393  1.00  0.00     0.167 HD
ENDBRANCH  23  26
ENDBRANCH  21  23
ENDBRANCH  14  21
ENDBRANCH  11  12
ENDBRANCH  10  11
ENDBRANCH   2  10
BRANCH   1  33
HETATM   33  C13 UNL     1      18.871   6.814  23.816  1.00  0.00     0.172 C 
BRANCH  33  34
HETATM   34  C12 UNL     1      18.084   6.379  22.627  1.00  0.00    -0.040 A 
HETATM   35  C11 UNL     1      18.280   6.926  21.394  1.00  0.00     0.010 A 
HETATM   36  C10 UNL     1      17.519   6.451  20.333  1.00  0.00     0.013 A 
HETATM   37  C9  UNL     1      16.582   5.461  20.463  1.00  0.00    -0.025 A 
HETATM   38  C28 UNL     1      16.382   4.907  21.705  1.00  0.00     0.013 A 
HETATM   39  C27 UNL     1      17.128   5.366  22.762  1.00  0.00     0.010 A 
BRANCH  37  40
HETATM   40  C8  UNL     1      15.804   4.999  19.330  1.00  0.00    -0.013 A 
HETATM   41  C3  UNL     1      16.256   4.000  18.503  1.00  0.00     0.002 A 
HETATM   42  C4  UNL     1      15.536   3.532  17.416  1.00  0.00     0.014 A 
HETATM   43  C5  UNL     1      14.309   4.069  17.125  1.00  0.00     0.001 A 
HETATM   44  C6  UNL     1      13.847   5.078  17.959  1.00  0.00     0.001 A 
HETATM   45  C7  UNL     1      14.567   5.543  19.040  1.00  0.00     0.013 A 
BRANCH  41  46
HETATM   46  C2  UNL     1      17.570   3.333  18.707  1.00  0.00     0.051 A 
HETATM   47  N2  UNL     1      18.666   3.775  18.131  1.00  0.00    -0.336 N 
HETATM   48  C1  UNL     1      19.804   3.123  18.358  1.00  0.00     0.142 A 
ATOM     49  H2  UNL     1      18.644   4.595  17.526  1.00  0.00     0.168 HD
HETATM   50  S2  UNL     1      19.326   1.860  19.406  1.00  0.00    -0.064 SA
HETATM   51  C29 UNL     1      17.665   2.235  19.503  1.00  0.00     0.083 A 
BRANCH  48  52
HETATM   52  N1  UNL     1      21.006   3.390  17.890  1.00  0.00    -0.380 N 
ATOM     53  H12 UNL     1      21.830   3.710  18.398  1.00  0.00     0.158 HD
ATOM     54  H11 UNL     1      21.337   3.329  16.927  1.00  0.00     0.158 HD
ENDBRANCH  48  52
ENDBRANCH  41  46
ENDBRANCH  37  40
ENDBRANCH  33  34
ENDBRANCH   1  33
TORSDOF 11
ENDMDL
MODEL 4
REMARK VINA RESULT: -10.145903149      2.996      4.628
REMARK  11 active torsions:
REMARK  status: ('A' for Active; 'I' for Inactive)
REMARK    1  A    between atoms: N1_1  and  C1_4 
REMARK    2  A    between atoms: C2_7  and  C3_8 
REMARK    3  A    between atoms: C8_13  and  C9_14 
REMARK    4  A    between atoms: C12_17  and  C13_18 
REMARK    5  A    between atoms: C13_18  and  N3_19 
REMARK    6  A    between atoms: C14_20  and  C15_21 
REMARK    7  A    between atoms: C15_21  and  C16_22 
REMARK    8  A    between atoms: C16_22  and  C17_23 
REMARK    9  A    between atoms: C19_25  and  N4_26 
REMARK   10  A    between atoms: N4_26  and  S1_28 
REMARK   11  A    between atoms: S1_28  and  C20_31 
ROOT
HETATM    1  N3  UNL     1      19.089  11.659  25.745  1.00  0.00    -0.299 N 
HETATM    2  C14 UNL     1      19.888  11.260  24.748  1.00  0.00     0.022 A 
HETATM    3  C24 UNL     1      19.905   9.918  24.356  1.00  0.00     0.099 A 
HETATM    4  C25 UNL     1      19.099   9.007  24.991  1.00  0.00     0.251 A 
HETATM    5  O4  UNL     1      19.118   7.791  24.634  1.00  0.00    -0.268 OA
HETATM    6  N9  UNL     1      18.313   9.424  25.975  1.00  0.00    -0.275 N 
ATOM      7  H9  UNL     1      17.708   8.759  26.456  1.00  0.00     0.173 HD
HETATM    8  C26 UNL     1      18.308  10.705  26.338  1.00  0.00     0.329 A 
HETATM    9  O5  UNL     1      17.556  11.114  27.279  1.00  0.00    -0.246 OA
ENDROOT
BRANCH   2  10
HETATM   10  C15 UNL     1      20.713  12.159  23.938  1.00  0.00     0.062 C 
BRANCH  10  11
HETATM   11  C16 UNL     1      22.177  11.748  24.079  1.00  0.00     0.050 C 
BRANCH  11  12
HETATM   12  C17 UNL     1      22.713  11.552  22.715  1.00  0.00     0.015 A 
HETATM   13  C18 UNL     1      22.636  10.339  22.096  1.00  0.00     0.063 A 
HETATM   14  C19 UNL     1      23.148  10.176  20.828  1.00  0.00     0.130 A 
HETATM   15  N7  UNL     1      23.718  11.238  20.227  1.00  0.00    -0.282 N 
HETATM   16  N8  UNL     1      23.806  12.402  20.788  1.00  0.00    -0.264 N 
ATOM     17  H7  UNL     1      24.097  11.120  19.288  1.00  0.00     0.188 HD
HETATM   18  C23 UNL     1      23.309  12.578  22.033  1.00  0.00     0.266 A 
ATOM     19  H8  UNL     1      24.247  13.178  20.295  1.00  0.00     0.190 HD
HETATM   20  O3  UNL     1      23.432  13.735  22.510  1.00  0.00    -0.266 OA
BRANCH  14  21
HETATM   21  N4  UNL     1      23.103   9.055  20.221  1.00  0.00    -0.263 N 
ATOM     22  H4  UNL     1      22.318   8.439  20.432  1.00  0.00     0.180 HD
BRANCH  21  23
HETATM   23  S1  UNL     1      24.251   8.505  19.085  1.00  0.00     0.281 S 
HETATM   24  O1  UNL     1      24.547   9.647  18.141  1.00  0.00    -0.199 OA
HETATM   25  O2  UNL     1      25.540   8.043  19.704  1.00  0.00    -0.199 OA
BRANCH  23  26
HETATM   26  C20 UNL     1      23.572   7.216  18.109  1.00  0.00     0.165 A 
HETATM   27  C21 UNL     1      24.208   6.148  17.546  1.00  0.00     0.132 A 
HETATM   28  N5  UNL     1      23.308   5.419  16.887  1.00  0.00    -0.359 N 
HETATM   29  C22 UNL     1      22.126   6.025  17.038  1.00  0.00     0.181 A 
ATOM     30  H5  UNL     1      23.487   4.560  16.366  1.00  0.00     0.166 HD
HETATM   31  N6  UNL     1      22.277   7.130  17.786  1.00  0.00    -0.341 N 
ATOM     32  H6  UNL     1      21.541   7.781  18.058  1.00  0.00     0.167 HD
ENDBRANCH  23  26
ENDBRANCH  21  23
ENDBRANCH  14  21
ENDBRANCH  11  12
ENDBRANCH  10  11
ENDBRANCH   2  10
BRANCH   1  33
HETATM   33  C13 UNL     1      19.078  13.002  26.242  1.00  0.00     0.172 C 
BRANCH  33  34
HETATM   34  C12 UNL     1      20.335  13.411  26.931  1.00  0.00    -0.040 A 
HETATM   35  C11 UNL     1      21.098  14.447  26.482  1.00  0.00     0.010 A 
HETATM   36  C10 UNL     1      22.246  14.778  27.192  1.00  0.00     0.013 A 
HETATM   37  C9  UNL     1      22.650  14.115  28.320  1.00  0.00    -0.025 A 
HETATM   38  C28 UNL     1      21.883  13.069  28.775  1.00  0.00     0.013 A 
HETATM   39  C27 UNL     1      20.745  12.733  28.084  1.00  0.00     0.010 A 
BRANCH  37  40
HETATM   40  C8  UNL     1      23.859  14.489  29.028  1.00  0.00    -0.013 A 
HETATM   41  C3  UNL     1      25.100  14.086  28.600  1.00  0.00     0.002 A 
HETATM   42  C4  UNL     1      26.275  14.430  29.250  1.00  0.00     0.014 A 
HETATM   43  C5  UNL     1      26.230  15.210  30.376  1.00  0.00     0.001 A 
HETATM   44  C6  UNL     1      24.978  15.620  30.812  1.00  0.00     0.001 A 
HETATM   45  C7  UNL     1      23.811  15.276  30.163  1.00  0.00     0.013 A 
BRANCH  41  46
HETATM   46  C2  UNL     1      25.288  13.238  27.393  1.00  0.00     0.051 A 
HETATM   47  N2  UNL     1      25.666  13.747  26.242  1.00  0.00    -0.336 N 
HETATM   48  C1  UNL     1      25.809  12.925  25.205  1.00  0.00     0.142 A 
ATOM     49  H2  UNL     1      25.846  14.747  26.146  1.00  0.00     0.168 HD
HETATM   50  S2  UNL     1      25.403  11.400  25.860  1.00  0.00    -0.064 SA
HETATM   51  C29 UNL     1      25.064  11.897  27.456  1.00  0.00     0.083 A 
BRANCH  48  52
HETATM   52  N1  UNL     1      26.177  13.218  23.975  1.00  0.00    -0.380 N 
ATOM     53  H12 UNL     1      25.697  13.801  23.289  1.00  0.00     0.158 HD
ATOM     54  H11 UNL     1      27.012  12.914  23.475  1.00  0.00     0.158 HD
ENDBRANCH  48  52
ENDBRANCH  41  46
ENDBRANCH  37  40
ENDBRANCH  33  34
ENDBRANCH   1  33
TORSDOF 11
ENDMDL
MODEL 5
REMARK VINA RESULT: -10.130453926      2.757      6.865
REMARK  11 active torsions:
REMARK  status: ('A' for Active; 'I' for Inactive)
REMARK    1  A    between atoms: N1_1  and  C1_4 
REMARK    2  A    between atoms: C2_7  and  C3_8 
REMARK    3  A    between atoms: C8_13  and  C9_14 
REMARK    4  A    between atoms: C12_17  and  C13_18 
REMARK    5  A    between atoms: C13_18  and  N3_19 
REMARK    6  A    between atoms: C14_20  and  C15_21 
REMARK    7  A    between atoms: C15_21  and  C16_22 
REMARK    8  A    between atoms: C16_22  and  C17_23 
REMARK    9  A    between atoms: C19_25  and  N4_26 
REMARK   10  A    between atoms: N4_26  and  S1_28 
REMARK   11  A    between atoms: S1_28  and  C20_31 
ROOT
HETATM    1  N3  UNL     1      17.037   7.198  22.717  1.00  0.00    -0.299 N 
HETATM    2  C14 UNL     1      17.249   6.822  23.984  1.00  0.00     0.022 A 
HETATM    3  C24 UNL     1      16.574   5.719  24.512  1.00  0.00     0.099 A 
HETATM    4  C25 UNL     1      15.692   5.015  23.731  1.00  0.00     0.251 A 
HETATM    5  O4  UNL     1      15.081   4.014  24.213  1.00  0.00    -0.268 OA
HETATM    6  N9  UNL     1      15.498   5.402  22.477  1.00  0.00    -0.275 N 
ATOM      7  H9  UNL     1      14.847   4.888  21.883  1.00  0.00     0.173 HD
HETATM    8  C26 UNL     1      16.148   6.456  21.988  1.00  0.00     0.329 A 
HETATM    9  O5  UNL     1      15.969   6.833  20.786  1.00  0.00    -0.246 OA
ENDROOT
BRANCH   2  10
HETATM   10  C15 UNL     1      18.236   7.437  24.875  1.00  0.00     0.062 C 
BRANCH  10  11
HETATM   11  C16 UNL     1      17.503   8.250  25.939  1.00  0.00     0.050 C 
BRANCH  11  12
HETATM   12  C17 UNL     1      18.076   9.614  25.924  1.00  0.00     0.015 A 
HETATM   13  C18 UNL     1      18.857  10.038  24.891  1.00  0.00     0.063 A 
HETATM   14  C19 UNL     1      19.387  11.308  24.899  1.00  0.00     0.130 A 
HETATM   15  N7  UNL     1      19.112  12.108  25.948  1.00  0.00    -0.282 N 
HETATM   16  N8  UNL     1      18.374  11.736  26.944  1.00  0.00    -0.264 N 
ATOM     17  H7  UNL     1      19.502  13.050  25.957  1.00  0.00     0.188 HD
HETATM   18  C23 UNL     1      17.846  10.490  26.950  1.00  0.00     0.266 A 
ATOM     19  H8  UNL     1      18.192  12.375  27.717  1.00  0.00     0.190 HD
HETATM   20  O3  UNL     1      17.141  10.202  27.950  1.00  0.00    -0.266 OA
BRANCH  14  21
HETATM   21  N4  UNL     1      20.130  11.737  23.956  1.00  0.00    -0.263 N 
ATOM     22  H4  UNL     1      19.743  11.724  23.012  1.00  0.00     0.180 HD
BRANCH  21  23
HETATM   23  S1  UNL     1      21.718  12.331  24.146  1.00  0.00     0.281 S 
HETATM   24  O1  UNL     1      21.621  13.788  24.531  1.00  0.00    -0.199 OA
HETATM   25  O2  UNL     1      22.513  11.605  25.195  1.00  0.00    -0.199 OA
BRANCH  23  26
HETATM   26  C20 UNL     1      22.576  12.276  22.617  1.00  0.00     0.165 A 
HETATM   27  C21 UNL     1      23.630  13.038  22.203  1.00  0.00     0.132 A 
HETATM   28  N5  UNL     1      23.966  12.660  20.971  1.00  0.00    -0.359 N 
HETATM   29  C22 UNL     1      23.133  11.675  20.621  1.00  0.00     0.181 A 
ATOM     30  H5  UNL     1      24.718  13.049  20.401  1.00  0.00     0.166 HD
HETATM   31  N6  UNL     1      22.275  11.431  21.624  1.00  0.00    -0.341 N 
ATOM     32  H6  UNL     1      21.532  10.733  21.629  1.00  0.00     0.167 HD
ENDBRANCH  23  26
ENDBRANCH  21  23
ENDBRANCH  14  21
ENDBRANCH  11  12
ENDBRANCH  10  11
ENDBRANCH   2  10
BRANCH   1  33
HETATM   33  C13 UNL     1      17.640   8.361  22.139  1.00  0.00     0.172 C 
BRANCH  33  34
HETATM   34  C12 UNL     1      18.957   8.108  21.486  1.00  0.00    -0.040 A 
HETATM   35  C11 UNL     1      19.054   7.755  20.173  1.00  0.00     0.010 A 
HETATM   36  C10 UNL     1      20.319   7.556  19.635  1.00  0.00     0.013 A 
HETATM   37  C9  UNL     1      21.474   7.697  20.357  1.00  0.00    -0.025 A 
HETATM   38  C28 UNL     1      21.380   8.053  21.681  1.00  0.00     0.013 A 
HETATM   39  C27 UNL     1      20.136   8.254  22.225  1.00  0.00     0.010 A 
BRANCH  37  40
HETATM   40  C8  UNL     1      22.775   7.474  19.758  1.00  0.00    -0.013 A 
HETATM   41  C3  UNL     1      22.945   6.622  18.694  1.00  0.00     0.002 A 
HETATM   42  C4  UNL     1      24.173   6.391  18.095  1.00  0.00     0.014 A 
HETATM   43  C5  UNL     1      25.292   7.029  18.562  1.00  0.00     0.001 A 
HETATM   44  C6  UNL     1      25.127   7.892  19.637  1.00  0.00     0.001 A 
HETATM   45  C7  UNL     1      23.903   8.119  20.231  1.00  0.00     0.013 A 
BRANCH  41  46
HETATM   46  C2  UNL     1      21.812   5.868  18.092  1.00  0.00     0.051 A 
HETATM   47  N2  UNL     1      21.378   4.742  18.612  1.00  0.00    -0.336 N 
HETATM   48  C1  UNL     1      20.363   4.122  18.015  1.00  0.00     0.142 A 
ATOM     49  H2  UNL     1      21.808   4.354  19.452  1.00  0.00     0.168 HD
HETATM   50  S2  UNL     1      20.009   5.143  16.691  1.00  0.00    -0.064 SA
HETATM   51  C29 UNL     1      21.197   6.334  16.972  1.00  0.00     0.083 A 
BRANCH  48  52
HETATM   52  N1  UNL     1      19.774   2.996  18.363  1.00  0.00    -0.380 N 
ATOM     53  H12 UNL     1      19.561   2.654  19.300  1.00  0.00     0.158 HD
ATOM     54  H11 UNL     1      19.424   2.253  17.760  1.00  0.00     0.158 HD
ENDBRANCH  48  52
ENDBRANCH  41  46
ENDBRANCH  37  40
ENDBRANCH  33  34
ENDBRANCH   1  33
TORSDOF 11
ENDMDL
