MODEL 1
REMARK VINA RESULT: -10.345807067      0.000      0.000
REMARK  13 active torsions:
REMARK  status: ('A' for Active; 'I' for Inactive)
REMARK    1  A    between atoms: C2_2  and  N1_3 
REMARK    2  A    between atoms: C7_11  and  N3_12 
REMARK       I    between atoms: N3_12  and  C8_14 
REMARK       I    between atoms: C8_14  and  N5_16 
REMARK    3  A    between atoms: N5_16  and  C9_17 
REMARK    4  A    between atoms: C9_17  and  C10_18 
REMARK    5  A    between atoms: C10_18  and  O1_19 
REMARK    6  A    between atoms: O1_19  and  C11_20 
REMARK    7  A    between atoms: C14_23  and  N6_24 
REMARK    8  A    between atoms: N6_24  and  C15_26 
REMARK    9  A    between atoms: C16_29  and  S1_30 
REMARK   10  A    between atoms: S1_30  and  C17_31 
REMARK   11  A    between atoms: C20_34  and  N8_35 
REMARK       I    between atoms: N8_35  and  C22_37 
REMARK   12  A    between atoms: C26_42  and  N9_43 
REMARK   13  A    between atoms: C27_46  and  N10_47 
ROOT
HETATM    1  N6  UNL     1      22.288  10.488  22.190  1.00  0.00    -0.192 N 
ATOM      2  H6  UNL     1      21.305  10.295  21.997  1.00  0.00     0.184 HD
ENDROOT
BRANCH   1   3
HETATM    3  C14 UNL     1      23.170   9.735  21.423  1.00  0.00     0.049 A 
HETATM    4  C13 UNL     1      23.982  10.285  20.469  1.00  0.00     0.033 A 
HETATM    5  C12 UNL     1      24.652   9.495  19.552  1.00  0.00     0.039 A 
HETATM    6  C11 UNL     1      24.539   8.125  19.547  1.00  0.00     0.069 A 
HETATM    7  C29 UNL     1      23.713   7.556  20.533  1.00  0.00     0.039 A 
HETATM    8  C28 UNL     1      23.047   8.330  21.439  1.00  0.00     0.033 A 
BRANCH   6   9
HETATM    9  O1  UNL     1      25.123   7.326  18.690  1.00  0.00    -0.349 OA
BRANCH   9  10
HETATM   10  C10 UNL     1      25.165   6.672  17.562  1.00  0.00     0.209 C 
BRANCH  10  11
HETATM   11  C9  UNL     1      24.110   5.649  17.124  1.00  0.00     0.248 C 
BRANCH  11  12
HETATM   12  N5  UNL     1      22.902   6.282  17.141  1.00  0.00    -0.416 NA
HETATM   13  C8  UNL     1      21.875   6.602  17.454  1.00  0.00     0.263 C 
HETATM   14  N3  UNL     1      20.608   7.038  17.781  1.00  0.00    -0.305 N 
HETATM   15  N4  UNL     1      21.808   7.593  15.927  1.00  0.00    -0.049 NA
ATOM     16  H3  UNL     1      20.313   7.982  17.532  1.00  0.00     0.171 HD
BRANCH  14  17
HETATM   17  C7  UNL     1      19.787   6.243  18.410  1.00  0.00     0.126 A 
HETATM   18  C6  UNL     1      20.058   4.899  18.500  1.00  0.00     0.074 A 
HETATM   19  C4  UNL     1      19.159   4.078  19.163  1.00  0.00     0.026 A 
HETATM   20  N2  UNL     1      18.059   4.615  19.703  1.00  0.00    -0.196 N 
HETATM   21  C5  UNL     1      19.464   2.629  19.244  1.00  0.00     0.069 C 
HETATM   22  C3  UNL     1      17.768   5.960  19.626  1.00  0.00     0.679 A 
ATOM     23  H2  UNL     1      17.407   4.003  20.193  1.00  0.00     0.184 HD
HETATM   24  N1  UNL     1      16.691   6.359  20.180  1.00  0.00    -0.226 N 
HETATM   25  N12 UNL     1      18.657   6.690  18.980  1.00  0.00    -0.177 N 
ATOM     26  H1  UNL     1      16.105   5.665  20.646  1.00  0.00     0.177 HD
ATOM     27  H12 UNL     1      18.467   7.690  18.906  1.00  0.00     0.186 HD
BRANCH  24  28
HETATM   28  C2  UNL     1      16.257   7.715  20.187  1.00  0.00     0.133 C 
HETATM   29  C1  UNL     1      15.245   7.886  21.320  1.00  0.00     0.027 C 
ENDBRANCH  24  28
ENDBRANCH  14  17
ENDBRANCH  11  12
ENDBRANCH  10  11
ENDBRANCH   9  10
ENDBRANCH   6   9
ENDBRANCH   1   3
BRANCH   1  30
HETATM   30  C15 UNL     1      22.471  11.361  23.080  1.00  0.00     0.685 A 
HETATM   31  N7  UNL     1      23.204  11.267  24.179  1.00  0.00    -0.182 N 
HETATM   32  C16 UNL     1      23.029  12.081  25.255  1.00  0.00     0.128 A 
ATOM     33  H7  UNL     1      23.930  10.552  24.221  1.00  0.00     0.185 HD
HETATM   34  C26 UNL     1      22.071  13.048  25.257  1.00  0.00     0.181 A 
HETATM   35  C27 UNL     1      21.284  13.179  24.072  1.00  0.00     0.151 A 
HETATM   36  N11 UNL     1      21.497  12.366  23.057  1.00  0.00    -0.174 N 
ATOM     37  H11 UNL     1      20.927  12.473  22.219  1.00  0.00     0.186 HD
BRANCH  32  38
HETATM   38  S1  UNL     1      24.170  11.945  26.671  1.00  0.00    -0.070 SA
BRANCH  38  39
HETATM   39  C17 UNL     1      25.697  12.717  26.078  1.00  0.00     0.007 A 
HETATM   40  C18 UNL     1      26.239  13.820  26.714  1.00  0.00     0.021 A 
HETATM   41  C19 UNL     1      27.535  14.226  26.364  1.00  0.00     0.031 A 
HETATM   42  C20 UNL     1      28.236  13.512  25.396  1.00  0.00     0.036 A 
HETATM   43  C24 UNL     1      27.696  12.421  24.751  1.00  0.00     0.031 A 
HETATM   44  C25 UNL     1      26.396  12.052  25.131  1.00  0.00     0.021 A 
BRANCH  42  45
HETATM   45  N8  UNL     1      29.616  13.835  25.276  1.00  0.00    -0.323 N 
HETATM   46  C21 UNL     1      30.172  14.498  24.169  1.00  0.00     0.159 C 
HETATM   47  C22 UNL     1      30.410  13.428  26.405  1.00  0.00     0.220 C 
HETATM   48  C23 UNL     1      31.117  14.385  27.298  1.00  0.00     0.117 C 
HETATM   49  O2  UNL     1      30.490  12.198  26.649  1.00  0.00    -0.274 OA
ENDBRANCH  42  45
ENDBRANCH  38  39
ENDBRANCH  32  38
BRANCH  34  50
HETATM   50  N9  UNL     1      21.672  13.801  26.379  1.00  0.00    -0.109 N 
HETATM   51  O3  UNL     1      22.112  14.929  26.603  1.00  0.00    -0.532 OA
HETATM   52  O4  UNL     1      20.631  13.330  27.205  1.00  0.00    -0.532 OA
ENDBRANCH  34  50
BRANCH  35  53
HETATM   53  N10 UNL     1      20.415  14.100  24.108  1.00  0.00    -0.383 N 
ATOM     54 2H10 UNL     1      20.539  15.047  23.753  1.00  0.00     0.157 HD
ATOM     55 1H10 UNL     1      19.525  13.835  24.533  1.00  0.00     0.157 HD
ENDBRANCH  35  53
ENDBRANCH   1  30
TORSDOF 13
ENDMDL
MODEL 2
REMARK VINA RESULT: -10.181587199      3.621      9.287
REMARK  13 active torsions:
REMARK  status: ('A' for Active; 'I' for Inactive)
REMARK    1  A    between atoms: C2_2  and  N1_3 
REMARK    2  A    between atoms: C7_11  and  N3_12 
REMARK       I    between atoms: N3_12  and  C8_14 
REMARK       I    between atoms: C8_14  and  N5_16 
REMARK    3  A    between atoms: N5_16  and  C9_17 
REMARK    4  A    between atoms: C9_17  and  C10_18 
REMARK    5  A    between atoms: C10_18  and  O1_19 
REMARK    6  A    between atoms: O1_19  and  C11_20 
REMARK    7  A    between atoms: C14_23  and  N6_24 
REMARK    8  A    between atoms: N6_24  and  C15_26 
REMARK    9  A    between atoms: C16_29  and  S1_30 
REMARK   10  A    between atoms: S1_30  and  C17_31 
REMARK   11  A    between atoms: C20_34  and  N8_35 
REMARK       I    between atoms: N8_35  and  C22_37 
REMARK   12  A    between atoms: C26_42  and  N9_43 
REMARK   13  A    between atoms: C27_46  and  N10_47 
ROOT
HETATM    1  N6  UNL     1      18.593   7.739  19.572  1.00  0.00    -0.192 N 
ATOM      2  H6  UNL     1      18.279   8.261  18.754  1.00  0.00     0.184 HD
ENDROOT
BRANCH   1   3
HETATM    3  C14 UNL     1      17.741   7.840  20.666  1.00  0.00     0.049 A 
HETATM    4  C13 UNL     1      18.180   7.772  21.960  1.00  0.00     0.033 A 
HETATM    5  C12 UNL     1      17.295   7.617  23.013  1.00  0.00     0.039 A 
HETATM    6  C11 UNL     1      15.938   7.522  22.818  1.00  0.00     0.069 A 
HETATM    7  C29 UNL     1      15.483   7.602  21.490  1.00  0.00     0.039 A 
HETATM    8  C28 UNL     1      16.350   7.753  20.447  1.00  0.00     0.033 A 
BRANCH   6   9
HETATM    9  O1  UNL     1      15.054   7.346  23.767  1.00  0.00    -0.349 OA
BRANCH   9  10
HETATM   10  C10 UNL     1      14.662   6.836  24.903  1.00  0.00     0.209 C 
BRANCH  10  11
HETATM   11  C9  UNL     1      14.756   7.566  26.248  1.00  0.00     0.248 C 
BRANCH  11  12
HETATM   12  N5  UNL     1      16.072   7.596  26.600  1.00  0.00    -0.416 NA
HETATM   13  C8  UNL     1      17.081   7.973  26.912  1.00  0.00     0.263 C 
HETATM   14  N3  UNL     1      18.345   8.371  27.293  1.00  0.00    -0.305 N 
HETATM   15  N4  UNL     1      17.682   6.262  26.746  1.00  0.00    -0.049 NA
ATOM     16  H3  UNL     1      18.934   7.744  27.842  1.00  0.00     0.171 HD
BRANCH  14  17
HETATM   17  C7  UNL     1      18.788   9.549  26.952  1.00  0.00     0.126 A 
HETATM   18  C6  UNL     1      18.588  10.022  25.678  1.00  0.00     0.074 A 
HETATM   19  C4  UNL     1      19.083  11.273  25.343  1.00  0.00     0.026 A 
HETATM   20  N2  UNL     1      19.735  11.987  26.267  1.00  0.00    -0.196 N 
HETATM   21  C5  UNL     1      18.863  11.764  23.960  1.00  0.00     0.069 C 
HETATM   22  C3  UNL     1      19.947  11.534  27.551  1.00  0.00     0.679 A 
ATOM     23  H2  UNL     1      20.090  12.908  26.011  1.00  0.00     0.184 HD
HETATM   24  N1  UNL     1      20.580  12.302  28.347  1.00  0.00    -0.226 N 
HETATM   25  N12 UNL     1      19.457  10.336  27.810  1.00  0.00    -0.177 N 
ATOM     26  H1  UNL     1      20.895  13.206  27.992  1.00  0.00     0.177 HD
ATOM     27  H12 UNL     1      19.600   9.973  28.753  1.00  0.00     0.186 HD
BRANCH  24  28
HETATM   28  C2  UNL     1      20.873  11.975  29.701  1.00  0.00     0.133 C 
HETATM   29  C1  UNL     1      21.202  13.270  30.444  1.00  0.00     0.027 C 
ENDBRANCH  24  28
ENDBRANCH  14  17
ENDBRANCH  11  12
ENDBRANCH  10  11
ENDBRANCH   9  10
ENDBRANCH   6   9
ENDBRANCH   1   3
BRANCH   1  30
HETATM   30  C15 UNL     1      19.680   7.125  19.397  1.00  0.00     0.685 A 
HETATM   31  N7  UNL     1      20.877   7.431  19.875  1.00  0.00    -0.182 N 
HETATM   32  C16 UNL     1      22.032   6.965  19.326  1.00  0.00     0.128 A 
ATOM     33  H7  UNL     1      20.935   8.043  20.688  1.00  0.00     0.185 HD
HETATM   34  C26 UNL     1      22.014   6.150  18.237  1.00  0.00     0.181 A 
HETATM   35  C27 UNL     1      20.731   5.791  17.720  1.00  0.00     0.151 A 
HETATM   36  N11 UNL     1      19.644   6.269  18.291  1.00  0.00    -0.174 N 
ATOM     37  H11 UNL     1      18.736   6.003  17.911  1.00  0.00     0.186 HD
BRANCH  32  38
HETATM   38  S1  UNL     1      23.620   7.351  20.134  1.00  0.00    -0.070 SA
BRANCH  38  39
HETATM   39  C17 UNL     1      23.316   8.930  20.966  1.00  0.00     0.007 A 
HETATM   40  C18 UNL     1      22.573   8.998  22.131  1.00  0.00     0.021 A 
HETATM   41  C19 UNL     1      22.570  10.198  22.857  1.00  0.00     0.031 A 
HETATM   42  C20 UNL     1      23.313  11.279  22.389  1.00  0.00     0.036 A 
HETATM   43  C24 UNL     1      24.045  11.221  21.223  1.00  0.00     0.031 A 
HETATM   44  C25 UNL     1      24.016  10.002  20.529  1.00  0.00     0.021 A 
BRANCH  42  45
HETATM   45  N8  UNL     1      23.453  12.365  23.299  1.00  0.00    -0.323 N 
HETATM   46  C21 UNL     1      23.010  13.671  23.032  1.00  0.00     0.159 C 
HETATM   47  C22 UNL     1      24.088  12.007  24.538  1.00  0.00     0.220 C 
HETATM   48  C23 UNL     1      23.407  12.075  25.859  1.00  0.00     0.117 C 
HETATM   49  O2  UNL     1      25.278  11.604  24.490  1.00  0.00    -0.274 OA
ENDBRANCH  42  45
ENDBRANCH  38  39
ENDBRANCH  32  38
BRANCH  34  50
HETATM   50  N9  UNL     1      23.139   5.780  17.474  1.00  0.00    -0.109 N 
HETATM   51  O3  UNL     1      23.732   4.716  17.652  1.00  0.00    -0.532 OA
HETATM   52  O4  UNL     1      23.529   6.569  16.372  1.00  0.00    -0.532 OA
ENDBRANCH  34  50
BRANCH  35  53
HETATM   53  N10 UNL     1      20.757   5.019  16.716  1.00  0.00    -0.383 N 
ATOM     54 2H10 UNL     1      20.844   5.313  15.743  1.00  0.00     0.157 HD
ATOM     55 1H10 UNL     1      20.687   4.026  16.936  1.00  0.00     0.157 HD
ENDBRANCH  35  53
ENDBRANCH   1  30
TORSDOF 13
ENDMDL
MODEL 3
REMARK VINA RESULT: -10.171923949      1.129      1.184
REMARK  13 active torsions:
REMARK  status: ('A' for Active; 'I' for Inactive)
REMARK    1  A    between atoms: C2_2  and  N1_3 
REMARK    2  A    between atoms: C7_11  and  N3_12 
REMARK       I    between atoms: N3_12  and  C8_14 
REMARK       I    between atoms: C8_14  and  N5_16 
REMARK    3  A    between atoms: N5_16  and  C9_17 
REMARK    4  A    between atoms: C9_17  and  C10_18 
REMARK    5  A    between atoms: C10_18  and  O1_19 
REMARK    6  A    between atoms: O1_19  and  C11_20 
REMARK    7  A    between atoms: C14_23  and  N6_24 
REMARK    8  A    between atoms: N6_24  and  C15_26 
REMARK    9  A    between atoms: C16_29  and  S1_30 
REMARK   10  A    between atoms: S1_30  and  C17_31 
REMARK   11  A    between atoms: C20_34  and  N8_35 
REMARK       I    between atoms: N8_35  and  C22_37 
REMARK   12  A    between atoms: C26_42  and  N9_43 
REMARK   13  A    between atoms: C27_46  and  N10_47 
ROOT
HETATM    1  N6  UNL     1      22.299  10.581  22.146  1.00  0.00    -0.192 N 
ATOM      2  H6  UNL     1      21.320  10.439  21.899  1.00  0.00     0.184 HD
ENDROOT
BRANCH   1   3
HETATM    3  C14 UNL     1      23.184   9.799  21.411  1.00  0.00     0.049 A 
HETATM    4  C13 UNL     1      24.032  10.318  20.471  1.00  0.00     0.033 A 
HETATM    5  C12 UNL     1      24.707   9.502  19.581  1.00  0.00     0.039 A 
HETATM    6  C11 UNL     1      24.563   8.135  19.592  1.00  0.00     0.069 A 
HETATM    7  C29 UNL     1      23.700   7.597  20.563  1.00  0.00     0.039 A 
HETATM    8  C28 UNL     1      23.030   8.397  21.442  1.00  0.00     0.033 A 
BRANCH   6   9
HETATM    9  O1  UNL     1      25.151   7.312  18.760  1.00  0.00    -0.349 OA
BRANCH   9  10
HETATM   10  C10 UNL     1      25.208   6.644  17.641  1.00  0.00     0.209 C 
BRANCH  10  11
HETATM   11  C9  UNL     1      24.138   5.646  17.183  1.00  0.00     0.248 C 
BRANCH  11  12
HETATM   12  N5  UNL     1      22.939   6.295  17.219  1.00  0.00    -0.416 NA
HETATM   13  C8  UNL     1      21.965   6.708  17.589  1.00  0.00     0.263 C 
HETATM   14  N3  UNL     1      20.755   7.243  17.979  1.00  0.00    -0.305 N 
HETATM   15  N4  UNL     1      21.665   7.299  15.893  1.00  0.00    -0.049 NA
ATOM     16  H3  UNL     1      20.417   8.106  17.552  1.00  0.00     0.171 HD
BRANCH  14  17
HETATM   17  C7  UNL     1      20.044   6.646  18.895  1.00  0.00     0.126 A 
HETATM   18  C6  UNL     1      19.449   5.437  18.630  1.00  0.00     0.074 A 
HETATM   19  C4  UNL     1      18.687   4.834  19.621  1.00  0.00     0.026 A 
HETATM   20  N2  UNL     1      18.559   5.442  20.806  1.00  0.00    -0.196 N 
HETATM   21  C5  UNL     1      18.047   3.532  19.314  1.00  0.00     0.069 C 
HETATM   22  C3  UNL     1      19.147   6.654  21.093  1.00  0.00     0.679 A 
ATOM     23  H2  UNL     1      18.000   4.987  21.528  1.00  0.00     0.184 HD
HETATM   24  N1  UNL     1      18.956   7.136  22.258  1.00  0.00    -0.226 N 
HETATM   25  N12 UNL     1      19.855   7.180  20.112  1.00  0.00    -0.177 N 
ATOM     26  H1  UNL     1      18.380   6.602  22.910  1.00  0.00     0.177 HD
ATOM     27  H12 UNL     1      20.301   8.079  20.296  1.00  0.00     0.186 HD
BRANCH  24  28
HETATM   28  C2  UNL     1      19.499   8.374  22.703  1.00  0.00     0.133 C 
HETATM   29  C1  UNL     1      18.965   8.651  24.109  1.00  0.00     0.027 C 
ENDBRANCH  24  28
ENDBRANCH  14  17
ENDBRANCH  11  12
ENDBRANCH  10  11
ENDBRANCH   9  10
ENDBRANCH   6   9
ENDBRANCH   1   3
BRANCH   1  30
HETATM   30  C15 UNL     1      22.477  11.431  23.059  1.00  0.00     0.685 A 
HETATM   31  N7  UNL     1      23.215  11.313  24.153  1.00  0.00    -0.182 N 
HETATM   32  C16 UNL     1      23.037  12.095  25.252  1.00  0.00     0.128 A 
ATOM     33  H7  UNL     1      23.949  10.605  24.171  1.00  0.00     0.185 HD
HETATM   34  C26 UNL     1      22.069  13.051  25.285  1.00  0.00     0.181 A 
HETATM   35  C27 UNL     1      21.275  13.207  24.107  1.00  0.00     0.151 A 
HETATM   36  N11 UNL     1      21.493  12.426  23.069  1.00  0.00    -0.174 N 
ATOM     37  H11 UNL     1      20.919  12.550  22.236  1.00  0.00     0.186 HD
BRANCH  32  38
HETATM   38  S1  UNL     1      24.185  11.930  26.659  1.00  0.00    -0.070 SA
BRANCH  38  39
HETATM   39  C17 UNL     1      25.713  12.702  26.069  1.00  0.00     0.007 A 
HETATM   40  C18 UNL     1      26.259  13.799  26.711  1.00  0.00     0.021 A 
HETATM   41  C19 UNL     1      27.556  14.204  26.363  1.00  0.00     0.031 A 
HETATM   42  C20 UNL     1      28.253  13.494  25.389  1.00  0.00     0.036 A 
HETATM   43  C24 UNL     1      27.709  12.409  24.738  1.00  0.00     0.031 A 
HETATM   44  C25 UNL     1      26.409  12.042  25.116  1.00  0.00     0.021 A 
BRANCH  42  45
HETATM   45  N8  UNL     1      29.634  13.815  25.269  1.00  0.00    -0.323 N 
HETATM   46  C21 UNL     1      30.194  14.462  24.156  1.00  0.00     0.159 C 
HETATM   47  C22 UNL     1      30.423  13.422  26.406  1.00  0.00     0.220 C 
HETATM   48  C23 UNL     1      31.129  14.389  27.289  1.00  0.00     0.117 C 
HETATM   49  O2  UNL     1      30.502  12.195  26.666  1.00  0.00    -0.274 OA
ENDBRANCH  42  45
ENDBRANCH  38  39
ENDBRANCH  32  38
BRANCH  34  50
HETATM   50  N9  UNL     1      21.666  13.768  26.430  1.00  0.00    -0.109 N 
HETATM   51  O3  UNL     1      22.118  14.881  26.700  1.00  0.00    -0.532 OA
HETATM   52  O4  UNL     1      20.610  13.280  27.226  1.00  0.00    -0.532 OA
ENDBRANCH  34  50
BRANCH  35  53
HETATM   53  N10 UNL     1      20.397  14.117  24.173  1.00  0.00    -0.383 N 
ATOM     54 2H10 UNL     1      20.553  15.107  23.984  1.00  0.00     0.157 HD
ATOM     55 1H10 UNL     1      19.465  13.797  24.436  1.00  0.00     0.157 HD
ENDBRANCH  35  53
ENDBRANCH   1  30
TORSDOF 13
ENDMDL
MODEL 4
REMARK VINA RESULT: -10.111505262      3.288      8.181
REMARK  13 active torsions:
REMARK  status: ('A' for Active; 'I' for Inactive)
REMARK    1  A    between atoms: C2_2  and  N1_3 
REMARK    2  A    between atoms: C7_11  and  N3_12 
REMARK       I    between atoms: N3_12  and  C8_14 
REMARK       I    between atoms: C8_14  and  N5_16 
REMARK    3  A    between atoms: N5_16  and  C9_17 
REMARK    4  A    between atoms: C9_17  and  C10_18 
REMARK    5  A    between atoms: C10_18  and  O1_19 
REMARK    6  A    between atoms: O1_19  and  C11_20 
REMARK    7  A    between atoms: C14_23  and  N6_24 
REMARK    8  A    between atoms: N6_24  and  C15_26 
REMARK    9  A    between atoms: C16_29  and  S1_30 
REMARK   10  A    between atoms: S1_30  and  C17_31 
REMARK   11  A    between atoms: C20_34  and  N8_35 
REMARK       I    between atoms: N8_35  and  C22_37 
REMARK   12  A    between atoms: C26_42  and  N9_43 
REMARK   13  A    between atoms: C27_46  and  N10_47 
ROOT
HETATM    1  N6  UNL     1      18.832   7.744  19.644  1.00  0.00    -0.192 N 
ATOM      2  H6  UNL     1      18.684   8.560  19.050  1.00  0.00     0.184 HD
ENDROOT
BRANCH   1   3
HETATM    3  C14 UNL     1      17.784   7.489  20.520  1.00  0.00     0.049 A 
HETATM    4  C13 UNL     1      16.484   7.370  20.111  1.00  0.00     0.033 A 
HETATM    5  C12 UNL     1      15.440   7.375  21.019  1.00  0.00     0.039 A 
HETATM    6  C11 UNL     1      15.650   7.499  22.372  1.00  0.00     0.069 A 
HETATM    7  C29 UNL     1      16.986   7.610  22.797  1.00  0.00     0.039 A 
HETATM    8  C28 UNL     1      18.019   7.609  21.906  1.00  0.00     0.033 A 
BRANCH   6   9
HETATM    9  O1  UNL     1      14.705   7.539  23.278  1.00  0.00    -0.349 OA
BRANCH   9  10
HETATM   10  C10 UNL     1      13.801   6.976  24.031  1.00  0.00     0.209 C 
BRANCH  10  11
HETATM   11  C9  UNL     1      12.787   5.943  23.527  1.00  0.00     0.248 C 
BRANCH  11  12
HETATM   12  N5  UNL     1      13.493   4.854  23.110  1.00  0.00    -0.416 NA
HETATM   13  C8  UNL     1      14.212   4.206  22.544  1.00  0.00     0.263 C 
HETATM   14  N3  UNL     1      15.076   3.355  21.888  1.00  0.00    -0.305 N 
HETATM   15  N4  UNL     1      13.557   2.794  23.489  1.00  0.00    -0.049 NA
ATOM     16  H3  UNL     1      15.473   2.552  22.378  1.00  0.00     0.171 HD
BRANCH  14  17
HETATM   17  C7  UNL     1      15.386   3.576  20.640  1.00  0.00     0.126 A 
HETATM   18  C6  UNL     1      14.436   4.039  19.762  1.00  0.00     0.074 A 
HETATM   19  C4  UNL     1      14.794   4.250  18.439  1.00  0.00     0.026 A 
HETATM   20  N2  UNL     1      16.051   4.006  18.056  1.00  0.00    -0.196 N 
HETATM   21  C5  UNL     1      13.753   4.744  17.505  1.00  0.00     0.069 C 
HETATM   22  C3  UNL     1      17.021   3.542  18.918  1.00  0.00     0.679 A 
ATOM     23  H2  UNL     1      16.304   4.170  17.081  1.00  0.00     0.184 HD
HETATM   24  N1  UNL     1      18.186   3.346  18.440  1.00  0.00    -0.226 N 
HETATM   25  N12 UNL     1      16.621   3.355  20.162  1.00  0.00    -0.177 N 
ATOM     26  H1  UNL     1      18.337   3.540  17.449  1.00  0.00     0.177 HD
ATOM     27  H12 UNL     1      17.317   3.011  20.824  1.00  0.00     0.186 HD
BRANCH  24  28
HETATM   28  C2  UNL     1      19.289   2.873  19.205  1.00  0.00     0.133 C 
HETATM   29  C1  UNL     1      19.632   1.462  18.725  1.00  0.00     0.027 C 
ENDBRANCH  24  28
ENDBRANCH  14  17
ENDBRANCH  11  12
ENDBRANCH  10  11
ENDBRANCH   9  10
ENDBRANCH   6   9
ENDBRANCH   1   3
BRANCH   1  30
HETATM   30  C15 UNL     1      19.931   7.160  19.443  1.00  0.00     0.685 A 
HETATM   31  N7  UNL     1      21.129   7.493  19.901  1.00  0.00    -0.182 N 
HETATM   32  C16 UNL     1      22.285   7.062  19.327  1.00  0.00     0.128 A 
ATOM     33  H7  UNL     1      21.187   8.099  20.719  1.00  0.00     0.185 HD
HETATM   34  C26 UNL     1      22.267   6.257  18.230  1.00  0.00     0.181 A 
HETATM   35  C27 UNL     1      20.984   5.871  17.733  1.00  0.00     0.151 A 
HETATM   36  N11 UNL     1      19.896   6.314  18.329  1.00  0.00    -0.174 N 
ATOM     37  H11 UNL     1      18.989   6.028  17.963  1.00  0.00     0.186 HD
BRANCH  32  38
HETATM   38  S1  UNL     1      23.878   7.482  20.108  1.00  0.00    -0.070 SA
BRANCH  38  39
HETATM   39  C17 UNL     1      23.554   9.054  20.945  1.00  0.00     0.007 A 
HETATM   40  C18 UNL     1      22.997   9.095  22.210  1.00  0.00     0.021 A 
HETATM   41  C19 UNL     1      22.991  10.315  22.903  1.00  0.00     0.031 A 
HETATM   42  C20 UNL     1      23.544  11.443  22.301  1.00  0.00     0.036 A 
HETATM   43  C24 UNL     1      24.088  11.410  21.036  1.00  0.00     0.031 A 
HETATM   44  C25 UNL     1      24.070  10.170  20.381  1.00  0.00     0.021 A 
BRANCH  42  45
HETATM   45  N8  UNL     1      23.717  12.568  23.154  1.00  0.00    -0.323 N 
HETATM   46  C21 UNL     1      22.972  13.755  23.046  1.00  0.00     0.159 C 
HETATM   47  C22 UNL     1      24.729  12.387  24.160  1.00  0.00     0.220 C 
HETATM   48  C23 UNL     1      24.441  12.372  25.620  1.00  0.00     0.117 C 
HETATM   49  O2  UNL     1      25.912  12.217  23.774  1.00  0.00    -0.274 OA
ENDBRANCH  42  45
ENDBRANCH  38  39
ENDBRANCH  32  38
BRANCH  34  50
HETATM   50  N9  UNL     1      23.387   5.924  17.442  1.00  0.00    -0.109 N 
HETATM   51  O3  UNL     1      23.889   6.717  16.646  1.00  0.00    -0.532 OA
HETATM   52  O4  UNL     1      24.060   4.704  17.661  1.00  0.00    -0.532 OA
ENDBRANCH  34  50
BRANCH  35  53
HETATM   53  N10 UNL     1      21.012   5.109  16.721  1.00  0.00    -0.383 N 
ATOM     54 2H10 UNL     1      20.244   4.965  16.066  1.00  0.00     0.157 HD
ATOM     55 1H10 UNL     1      21.894   4.616  16.578  1.00  0.00     0.157 HD
ENDBRANCH  35  53
ENDBRANCH   1  30
TORSDOF 13
ENDMDL
MODEL 5
REMARK VINA RESULT: -10.098322209      0.887      2.008
REMARK  13 active torsions:
REMARK  status: ('A' for Active; 'I' for Inactive)
REMARK    1  A    between atoms: C2_2  and  N1_3 
REMARK    2  A    between atoms: C7_11  and  N3_12 
REMARK       I    between atoms: N3_12  and  C8_14 
REMARK       I    between atoms: C8_14  and  N5_16 
REMARK    3  A    between atoms: N5_16  and  C9_17 
REMARK    4  A    between atoms: C9_17  and  C10_18 
REMARK    5  A    between atoms: C10_18  and  O1_19 
REMARK    6  A    between atoms: O1_19  and  C11_20 
REMARK    7  A    between atoms: C14_23  and  N6_24 
REMARK    8  A    between atoms: N6_24  and  C15_26 
REMARK    9  A    between atoms: C16_29  and  S1_30 
REMARK   10  A    between atoms: S1_30  and  C17_31 
REMARK   11  A    between atoms: C20_34  and  N8_35 
REMARK       I    between atoms: N8_35  and  C22_37 
REMARK   12  A    between atoms: C26_42  and  N9_43 
REMARK   13  A    between atoms: C27_46  and  N10_47 
ROOT
HETATM    1  N6  UNL     1      22.306  10.590  22.129  1.00  0.00    -0.192 N 
ATOM      2  H6  UNL     1      21.327  10.459  21.875  1.00  0.00     0.184 HD
ENDROOT
BRANCH   1   3
HETATM    3  C14 UNL     1      23.187   9.800  21.399  1.00  0.00     0.049 A 
HETATM    4  C13 UNL     1      24.013  10.305  20.432  1.00  0.00     0.033 A 
HETATM    5  C12 UNL     1      24.683   9.474  19.552  1.00  0.00     0.039 A 
HETATM    6  C11 UNL     1      24.557   8.107  19.600  1.00  0.00     0.069 A 
HETATM    7  C29 UNL     1      23.717   7.584  20.600  1.00  0.00     0.039 A 
HETATM    8  C28 UNL     1      23.052   8.398  21.469  1.00  0.00     0.033 A 
BRANCH   6   9
HETATM    9  O1  UNL     1      25.141   7.269  18.780  1.00  0.00    -0.349 OA
BRANCH   9  10
HETATM   10  C10 UNL     1      25.233   6.642  17.640  1.00  0.00     0.209 C 
BRANCH  10  11
HETATM   11  C9  UNL     1      24.159   5.693  17.094  1.00  0.00     0.248 C 
BRANCH  11  12
HETATM   12  N5  UNL     1      22.965   6.347  17.173  1.00  0.00    -0.416 NA
HETATM   13  C8  UNL     1      22.004   6.761  17.575  1.00  0.00     0.263 C 
HETATM   14  N3  UNL     1      20.809   7.298  18.007  1.00  0.00    -0.305 N 
HETATM   15  N4  UNL     1      21.656   7.370  15.895  1.00  0.00    -0.049 NA
ATOM     16  H3  UNL     1      20.463   8.166  17.598  1.00  0.00     0.171 HD
BRANCH  14  17
HETATM   17  C7  UNL     1      20.123   6.695  18.938  1.00  0.00     0.126 A 
HETATM   18  C6  UNL     1      19.548   7.421  19.953  1.00  0.00     0.074 A 
HETATM   19  C4  UNL     1      18.836   6.749  20.936  1.00  0.00     0.026 A 
HETATM   20  N2  UNL     1      18.722   5.418  20.865  1.00  0.00    -0.196 N 
HETATM   21  C5  UNL     1      18.228   7.549  22.028  1.00  0.00     0.069 C 
HETATM   22  C3  UNL     1      19.289   4.671  19.857  1.00  0.00     0.679 A 
ATOM     23  H2  UNL     1      18.192   4.936  21.591  1.00  0.00     0.184 HD
HETATM   24  N1  UNL     1      19.112   3.409  19.892  1.00  0.00    -0.226 N 
HETATM   25  N12 UNL     1      19.957   5.363  18.953  1.00  0.00    -0.177 N 
ATOM     26  H1  UNL     1      18.566   3.022  20.662  1.00  0.00     0.177 HD
ATOM     27  H12 UNL     1      20.390   4.836  18.195  1.00  0.00     0.186 HD
BRANCH  24  28
HETATM   28  C2  UNL     1      19.633   2.507  18.921  1.00  0.00     0.133 C 
HETATM   29  C1  UNL     1      19.384   1.081  19.413  1.00  0.00     0.027 C 
ENDBRANCH  24  28
ENDBRANCH  14  17
ENDBRANCH  11  12
ENDBRANCH  10  11
ENDBRANCH   9  10
ENDBRANCH   6   9
ENDBRANCH   1   3
BRANCH   1  30
HETATM   30  C15 UNL     1      22.486  11.436  23.046  1.00  0.00     0.685 A 
HETATM   31  N7  UNL     1      23.228  11.315  24.136  1.00  0.00    -0.182 N 
HETATM   32  C16 UNL     1      23.052  12.091  25.239  1.00  0.00     0.128 A 
ATOM     33  H7  UNL     1      23.963  10.607  24.149  1.00  0.00     0.185 HD
HETATM   34  C26 UNL     1      22.083  13.046  25.280  1.00  0.00     0.181 A 
HETATM   35  C27 UNL     1      21.285  13.206  24.105  1.00  0.00     0.151 A 
HETATM   36  N11 UNL     1      21.500  12.429  23.063  1.00  0.00    -0.174 N 
ATOM     37  H11 UNL     1      20.923  12.557  22.232  1.00  0.00     0.186 HD
BRANCH  32  38
HETATM   38  S1  UNL     1      24.206  11.921  26.641  1.00  0.00    -0.070 SA
BRANCH  38  39
HETATM   39  C17 UNL     1      25.731  12.697  26.050  1.00  0.00     0.007 A 
HETATM   40  C18 UNL     1      26.266  13.806  26.681  1.00  0.00     0.021 A 
HETATM   41  C19 UNL     1      27.562  14.216  26.333  1.00  0.00     0.031 A 
HETATM   42  C20 UNL     1      28.268  13.499  25.371  1.00  0.00     0.036 A 
HETATM   43  C24 UNL     1      27.735  12.402  24.731  1.00  0.00     0.031 A 
HETATM   44  C25 UNL     1      26.436  12.030  25.108  1.00  0.00     0.021 A 
BRANCH  42  45
HETATM   45  N8  UNL     1      29.648  13.828  25.255  1.00  0.00    -0.323 N 
HETATM   46  C21 UNL     1      30.205  14.486  24.145  1.00  0.00     0.159 C 
HETATM   47  C22 UNL     1      30.439  13.432  26.389  1.00  0.00     0.220 C 
HETATM   48  C23 UNL     1      31.139  14.398  27.278  1.00  0.00     0.117 C 
HETATM   49  O2  UNL     1      30.524  12.204  26.641  1.00  0.00    -0.274 OA
ENDBRANCH  42  45
ENDBRANCH  38  39
ENDBRANCH  32  38
BRANCH  34  50
HETATM   50  N9  UNL     1      21.684  13.757  26.429  1.00  0.00    -0.109 N 
HETATM   51  O3  UNL     1      22.090  14.893  26.672  1.00  0.00    -0.532 OA
HETATM   52  O4  UNL     1      20.678  13.230  27.265  1.00  0.00    -0.532 OA
ENDBRANCH  34  50
BRANCH  35  53
HETATM   53  N10 UNL     1      20.406  14.115  24.178  1.00  0.00    -0.383 N 
ATOM     54 2H10 UNL     1      20.388  14.870  24.864  1.00  0.00     0.157 HD
ATOM     55 1H10 UNL     1      19.670  14.059  23.473  1.00  0.00     0.157 HD
ENDBRANCH  35  53
ENDBRANCH   1  30
TORSDOF 13
ENDMDL
