MODEL 1
REMARK VINA RESULT: -9.829836784      0.000      0.000
REMARK  14 active torsions:
REMARK  status: ('A' for Active; 'I' for Inactive)
REMARK    1  A    between atoms: O1_2  and  C2_3 
REMARK    2  A    between atoms: C2_3  and  O2_4 
REMARK    3  A    between atoms: O2_4  and  C3_5 
REMARK    4  A    between atoms: C3_5  and  C4_7 
REMARK    5  A    between atoms: C8_13  and  N2_14 
REMARK    6  A    between atoms: N2_14  and  C9_16 
REMARK    7  A    between atoms: C9_16  and  O4_17 
REMARK    8  A    between atoms: C9_16  and  C10_19 
REMARK    9  A    between atoms: N5_24  and  C11_25 
REMARK   10  A    between atoms: C13_30  and  N8_31 
REMARK   11  A    between atoms: C14_36  and  N10_37 
REMARK   12  A    between atoms: N12_42  and  O5_43 
REMARK   13  A    between atoms: C15_45  and  N13_46 
REMARK   14  A    between atoms: C16_53  and  O6_54 
ROOT
HETATM    1  N2  UNL     1      16.105  31.543  69.656  1.00  0.00    -0.356 N 
ATOM      2  H2  UNL     1      15.177  31.134  69.762  1.00  0.00     0.162 HD
ENDROOT
BRANCH   1   3
HETATM    3  C8  UNL     1      17.215  30.918  70.247  1.00  0.00     0.066 A 
HETATM    4  C4  UNL     1      17.485  29.567  70.202  1.00  0.00     0.135 A 
HETATM    5  N1  UNL     1      18.586  29.042  70.826  1.00  0.00    -0.347 N 
HETATM    6  C5  UNL     1      19.414  29.838  71.488  1.00  0.00     0.096 A 
ATOM      7  H1  UNL     1      18.768  28.039  70.782  1.00  0.00     0.166 HD
HETATM    8  C6  UNL     1      19.214  31.198  71.579  1.00  0.00     0.090 A 
HETATM    9  C16 UNL     1      20.643  29.305  72.183  1.00  0.00     0.376 C 
HETATM   10  C7  UNL     1      18.125  31.720  70.963  1.00  0.00     0.065 A 
HETATM   11  N12 UNL     1      20.155  31.963  72.314  1.00  0.00    -0.203 N 
HETATM   12  C15 UNL     1      21.003  31.381  73.335  1.00  0.00     0.512 C 
HETATM   13  N14 UNL     1      20.776  29.949  73.446  1.00  0.00     0.005 N 
ATOM     14 2H14 UNL     1      21.507  29.508  74.004  1.00  0.00     0.285 HD
ATOM     15 1H14 UNL     1      19.970  29.754  74.041  1.00  0.00     0.285 HD
BRANCH   4  16
HETATM   16  C3  UNL     1      16.643  28.633  69.494  1.00  0.00     0.314 C 
HETATM   17  O3  UNL     1      17.118  27.459  69.285  1.00  0.00    -0.257 OA
BRANCH  16  18
HETATM   18  O2  UNL     1      15.398  28.840  69.016  1.00  0.00    -0.290 OA
BRANCH  18  19
HETATM   19  C2  UNL     1      15.012  28.818  67.665  1.00  0.00     0.347 C 
BRANCH  19  20
HETATM   20  O1  UNL     1      14.997  30.101  67.106  1.00  0.00    -0.371 OA
HETATM   21  C1  UNL     1      14.985  30.010  65.726  1.00  0.00     0.204 C 
ENDBRANCH  19  20
ENDBRANCH  18  19
ENDBRANCH  16  18
ENDBRANCH   4  16
BRANCH  11  22
HETATM   22  O5  UNL     1      20.266  33.278  72.061  1.00  0.00    -0.284 OA
ATOM     23  H5  UNL     1      20.990  33.585  71.529  1.00  0.00     0.245 HD
ENDBRANCH  11  22
BRANCH  12  24
HETATM   24  N13 UNL     1      20.618  31.974  74.602  1.00  0.00    -0.030 N 
ATOM     25 3H13 UNL     1      20.176  32.888  74.498  1.00  0.00     0.279 HD
ATOM     26 2H13 UNL     1      19.831  31.497  75.044  1.00  0.00     0.279 HD
ATOM     27 1H13 UNL     1      21.451  31.998  75.190  1.00  0.00     0.279 HD
ENDBRANCH  12  24
BRANCH   9  28
HETATM   28  O6  UNL     1      21.712  29.569  71.318  1.00  0.00    -0.365 OA
ATOM     29  H6  UNL     1      22.496  29.490  71.847  1.00  0.00     0.212 HD
ENDBRANCH   9  28
ENDBRANCH   1   3
BRANCH   1  30
HETATM   30  C9  UNL     1      16.272  32.765  68.897  1.00  0.00     0.290 C 
BRANCH  30  31
HETATM   31  O4  UNL     1      16.161  32.511  67.528  1.00  0.00    -0.369 OA
ATOM     32  H4  UNL     1      15.875  33.291  67.066  1.00  0.00     0.212 HD
ENDBRANCH  30  31
BRANCH  30  33
HETATM   33  C10 UNL     1      15.290  33.804  69.280  1.00  0.00     0.163 A 
HETATM   34  N3  UNL     1      15.451  34.844  70.132  1.00  0.00    -0.268 N 
HETATM   35  N4  UNL     1      14.310  35.498  70.158  1.00  0.00    -0.219 N 
ATOM     36  H3  UNL     1      16.295  35.077  70.653  1.00  0.00     0.190 HD
HETATM   37  N5  UNL     1      13.422  34.925  69.362  1.00  0.00    -0.174 N 
ATOM     38  H4  UNL     1      14.133  36.333  70.717  1.00  0.00     0.210 HD
HETATM   39  N11 UNL     1      14.030  33.895  68.833  1.00  0.00    -0.261 N 
ATOM     40  H11 UNL     1      13.603  33.249  68.171  1.00  0.00     0.190 HD
BRANCH  37  41
HETATM   41  C11 UNL     1      12.103  35.421  69.198  1.00  0.00     0.162 A 
HETATM   42  C12 UNL     1      11.048  35.027  70.023  1.00  0.00     0.166 A 
HETATM   43  N6  UNL     1      11.357  34.103  71.041  1.00  0.00    -0.079 NA
HETATM   44  N7  UNL     1       9.805  35.509  69.848  1.00  0.00    -0.177 N 
HETATM   45  C13 UNL     1       9.545  36.391  68.867  1.00  0.00     0.678 A 
ATOM     46  H7  UNL     1       9.053  35.204  70.465  1.00  0.00     0.185 HD
HETATM   47  N9  UNL     1      10.556  36.769  68.075  1.00  0.00    -0.175 N 
HETATM   48  C14 UNL     1      11.808  36.322  68.203  1.00  0.00     0.148 A 
ATOM     49  H9  UNL     1      10.358  37.438  67.331  1.00  0.00     0.186 HD
BRANCH  45  50
HETATM   50  N8  UNL     1       8.341  36.869  68.685  1.00  0.00    -0.234 N 
ATOM     51  H82 UNL     1       7.631  36.778  69.412  1.00  0.00     0.174 HD
ATOM     52  H81 UNL     1       8.084  37.342  67.819  1.00  0.00     0.174 HD
ENDBRANCH  45  50
BRANCH  48  53
HETATM   53  N10 UNL     1      12.756  36.730  67.396  1.00  0.00    -0.383 N 
ATOM     54 2H10 UNL     1      13.685  36.961  67.750  1.00  0.00     0.157 HD
ATOM     55 1H10 UNL     1      12.566  36.818  66.397  1.00  0.00     0.157 HD
ENDBRANCH  48  53
ENDBRANCH  37  41
ENDBRANCH  30  33
ENDBRANCH   1  30
TORSDOF 14
ENDMDL
MODEL 2
REMARK VINA RESULT: -9.664233813      0.244      1.372
REMARK  14 active torsions:
REMARK  status: ('A' for Active; 'I' for Inactive)
REMARK    1  A    between atoms: O1_2  and  C2_3 
REMARK    2  A    between atoms: C2_3  and  O2_4 
REMARK    3  A    between atoms: O2_4  and  C3_5 
REMARK    4  A    between atoms: C3_5  and  C4_7 
REMARK    5  A    between atoms: C8_13  and  N2_14 
REMARK    6  A    between atoms: N2_14  and  C9_16 
REMARK    7  A    between atoms: C9_16  and  O4_17 
REMARK    8  A    between atoms: C9_16  and  C10_19 
REMARK    9  A    between atoms: N5_24  and  C11_25 
REMARK   10  A    between atoms: C13_30  and  N8_31 
REMARK   11  A    between atoms: C14_36  and  N10_37 
REMARK   12  A    between atoms: N12_42  and  O5_43 
REMARK   13  A    between atoms: C15_45  and  N13_46 
REMARK   14  A    between atoms: C16_53  and  O6_54 
ROOT
HETATM    1  N2  UNL     1      16.148  31.575  69.675  1.00  0.00    -0.356 N 
ATOM      2  H2  UNL     1      15.216  31.172  69.776  1.00  0.00     0.162 HD
ENDROOT
BRANCH   1   3
HETATM    3  C8  UNL     1      17.251  30.941  70.269  1.00  0.00     0.066 A 
HETATM    4  C4  UNL     1      17.510  29.587  70.227  1.00  0.00     0.135 A 
HETATM    5  N1  UNL     1      18.604  29.053  70.854  1.00  0.00    -0.347 N 
HETATM    6  C5  UNL     1      19.438  29.843  71.517  1.00  0.00     0.096 A 
ATOM      7  H1  UNL     1      18.777  28.049  70.811  1.00  0.00     0.166 HD
HETATM    8  C6  UNL     1      19.249  31.204  71.605  1.00  0.00     0.090 A 
HETATM    9  C16 UNL     1      20.660  29.300  72.215  1.00  0.00     0.376 C 
HETATM   10  C7  UNL     1      18.167  31.736  70.985  1.00  0.00     0.065 A 
HETATM   11  N12 UNL     1      20.196  31.962  72.340  1.00  0.00    -0.203 N 
HETATM   12  C15 UNL     1      21.037  31.375  73.364  1.00  0.00     0.512 C 
HETATM   13  N14 UNL     1      20.797  29.945  73.477  1.00  0.00     0.005 N 
ATOM     14 2H14 UNL     1      21.523  29.498  74.037  1.00  0.00     0.285 HD
ATOM     15 1H14 UNL     1      19.988  29.758  74.070  1.00  0.00     0.285 HD
BRANCH   4  16
HETATM   16  C3  UNL     1      16.660  28.660  69.519  1.00  0.00     0.314 C 
HETATM   17  O3  UNL     1      17.137  27.491  69.284  1.00  0.00    -0.257 OA
BRANCH  16  18
HETATM   18  O2  UNL     1      15.406  28.867  69.064  1.00  0.00    -0.290 OA
BRANCH  18  19
HETATM   19  C2  UNL     1      14.996  28.846  67.720  1.00  0.00     0.347 C 
BRANCH  19  20
HETATM   20  O1  UNL     1      15.028  30.122  67.144  1.00  0.00    -0.371 OA
HETATM   21  C1  UNL     1      15.013  30.013  65.767  1.00  0.00     0.204 C 
ENDBRANCH  19  20
ENDBRANCH  18  19
ENDBRANCH  16  18
ENDBRANCH   4  16
BRANCH  11  22
HETATM   22  O5  UNL     1      20.320  33.276  72.086  1.00  0.00    -0.284 OA
ATOM     23  H5  UNL     1      21.170  33.687  72.188  1.00  0.00     0.245 HD
ENDBRANCH  11  22
BRANCH  12  24
HETATM   24  N13 UNL     1      20.654  31.973  74.629  1.00  0.00    -0.030 N 
ATOM     25 3H13 UNL     1      20.909  32.959  74.699  1.00  0.00     0.279 HD
ATOM     26 2H13 UNL     1      19.645  32.090  74.727  1.00  0.00     0.279 HD
ATOM     27 1H13 UNL     1      21.063  31.402  75.369  1.00  0.00     0.279 HD
ENDBRANCH  12  24
BRANCH   9  28
HETATM   28  O6  UNL     1      21.733  29.553  71.351  1.00  0.00    -0.365 OA
ATOM     29  H6  UNL     1      22.412  28.938  71.599  1.00  0.00     0.212 HD
ENDBRANCH   9  28
ENDBRANCH   1   3
BRANCH   1  30
HETATM   30  C9  UNL     1      16.327  32.797  68.918  1.00  0.00     0.290 C 
BRANCH  30  31
HETATM   31  O4  UNL     1      16.239  32.542  67.548  1.00  0.00    -0.369 OA
ATOM     32  H4  UNL     1      16.125  33.352  67.065  1.00  0.00     0.212 HD
ENDBRANCH  30  31
BRANCH  30  33
HETATM   33  C10 UNL     1      15.338  33.835  69.284  1.00  0.00     0.163 A 
HETATM   34  N3  UNL     1      15.424  34.781  70.249  1.00  0.00    -0.268 N 
HETATM   35  N4  UNL     1      14.309  35.476  70.205  1.00  0.00    -0.219 N 
ATOM     36  H3  UNL     1      16.205  34.926  70.889  1.00  0.00     0.190 HD
HETATM   37  N5  UNL     1      13.509  35.022  69.255  1.00  0.00    -0.174 N 
ATOM     38  H4  UNL     1      14.091  36.260  70.820  1.00  0.00     0.210 HD
HETATM   39  N11 UNL     1      14.145  34.022  68.702  1.00  0.00    -0.261 N 
ATOM     40  H11 UNL     1      13.783  33.461  67.931  1.00  0.00     0.190 HD
BRANCH  37  41
HETATM   41  C11 UNL     1      12.236  35.587  68.985  1.00  0.00     0.162 A 
HETATM   42  C12 UNL     1      12.042  36.555  67.997  1.00  0.00     0.166 A 
HETATM   43  N6  UNL     1      13.183  36.949  67.271  1.00  0.00    -0.079 NA
HETATM   44  N7  UNL     1      10.826  37.077  67.760  1.00  0.00    -0.177 N 
HETATM   45  C13 UNL     1       9.758  36.678  68.472  1.00  0.00     0.678 A 
ATOM     46  H7  UNL     1      10.713  37.783  67.033  1.00  0.00     0.185 HD
HETATM   47  N9  UNL     1       9.943  35.750  69.419  1.00  0.00    -0.175 N 
HETATM   48  C14 UNL     1      11.127  35.198  69.698  1.00  0.00     0.148 A 
ATOM     49  H9  UNL     1       9.132  35.446  69.959  1.00  0.00     0.186 HD
BRANCH  45  50
HETATM   50  N8  UNL     1       8.569  37.177  68.251  1.00  0.00    -0.234 N 
ATOM     51  H82 UNL     1       8.413  37.823  67.478  1.00  0.00     0.174 HD
ATOM     52  H81 UNL     1       7.774  36.933  68.842  1.00  0.00     0.174 HD
ENDBRANCH  45  50
BRANCH  48  53
HETATM   53  N10 UNL     1      11.246  34.293  70.638  1.00  0.00    -0.383 N 
ATOM     54 2H10 UNL     1      12.164  33.994  70.968  1.00  0.00     0.157 HD
ATOM     55 1H10 UNL     1      10.408  33.879  71.049  1.00  0.00     0.157 HD
ENDBRANCH  48  53
ENDBRANCH  37  41
ENDBRANCH  30  33
ENDBRANCH   1  30
TORSDOF 14
ENDMDL
MODEL 3
REMARK VINA RESULT: -8.839112276      0.982      1.752
REMARK  14 active torsions:
REMARK  status: ('A' for Active; 'I' for Inactive)
REMARK    1  A    between atoms: O1_2  and  C2_3 
REMARK    2  A    between atoms: C2_3  and  O2_4 
REMARK    3  A    between atoms: O2_4  and  C3_5 
REMARK    4  A    between atoms: C3_5  and  C4_7 
REMARK    5  A    between atoms: C8_13  and  N2_14 
REMARK    6  A    between atoms: N2_14  and  C9_16 
REMARK    7  A    between atoms: C9_16  and  O4_17 
REMARK    8  A    between atoms: C9_16  and  C10_19 
REMARK    9  A    between atoms: N5_24  and  C11_25 
REMARK   10  A    between atoms: C13_30  and  N8_31 
REMARK   11  A    between atoms: C14_36  and  N10_37 
REMARK   12  A    between atoms: N12_42  and  O5_43 
REMARK   13  A    between atoms: C15_45  and  N13_46 
REMARK   14  A    between atoms: C16_53  and  O6_54 
ROOT
HETATM    1  N2  UNL     1      16.815  32.543  70.870  1.00  0.00    -0.356 N 
ATOM      2  H2  UNL     1      16.060  32.720  71.533  1.00  0.00     0.162 HD
ENDROOT
BRANCH   1   3
HETATM    3  C8  UNL     1      17.807  31.598  71.179  1.00  0.00     0.066 A 
HETATM    4  C4  UNL     1      17.678  30.232  71.037  1.00  0.00     0.135 A 
HETATM    5  N1  UNL     1      18.696  29.383  71.383  1.00  0.00    -0.347 N 
HETATM    6  C5  UNL     1      19.830  29.872  71.864  1.00  0.00     0.096 A 
ATOM      7  H1  UNL     1      18.580  28.376  71.271  1.00  0.00     0.166 HD
HETATM    8  C6  UNL     1      20.037  31.223  72.036  1.00  0.00     0.090 A 
HETATM    9  C16 UNL     1      20.981  28.975  72.251  1.00  0.00     0.376 C 
HETATM   10  C7  UNL     1      19.031  32.066  71.695  1.00  0.00     0.065 A 
HETATM   11  N12 UNL     1      21.284  31.645  72.562  1.00  0.00    -0.203 N 
HETATM   12  C15 UNL     1      22.133  30.773  73.350  1.00  0.00     0.512 C 
HETATM   13  N14 UNL     1      21.547  29.447  73.469  1.00  0.00     0.005 N 
ATOM     14 2H14 UNL     1      22.227  28.782  73.836  1.00  0.00     0.285 HD
ATOM     15 1H14 UNL     1      20.861  29.419  74.223  1.00  0.00     0.285 HD
BRANCH   4  16
HETATM   16  C3  UNL     1      16.483  29.620  70.511  1.00  0.00     0.314 C 
HETATM   17  O3  UNL     1      15.376  29.895  71.100  1.00  0.00    -0.257 OA
BRANCH  16  18
HETATM   18  O2  UNL     1      16.377  28.780  69.459  1.00  0.00    -0.290 OA
BRANCH  18  19
HETATM   19  C2  UNL     1      15.407  28.838  68.443  1.00  0.00     0.347 C 
BRANCH  19  20
HETATM   20  O1  UNL     1      15.402  30.080  67.798  1.00  0.00    -0.371 OA
HETATM   21  C1  UNL     1      14.996  29.923  66.486  1.00  0.00     0.204 C 
ENDBRANCH  19  20
ENDBRANCH  18  19
ENDBRANCH  16  18
ENDBRANCH   4  16
BRANCH  11  22
HETATM   22  O5  UNL     1      21.699  32.902  72.328  1.00  0.00    -0.284 OA
ATOM     23  H5  UNL     1      21.698  33.528  73.042  1.00  0.00     0.245 HD
ENDBRANCH  11  22
BRANCH  12  24
HETATM   24  N13 UNL     1      22.198  31.332  74.687  1.00  0.00    -0.030 N 
ATOM     25 3H13 UNL     1      22.468  32.316  74.696  1.00  0.00     0.279 HD
ATOM     26 2H13 UNL     1      21.281  31.442  75.120  1.00  0.00     0.279 HD
ATOM     27 1H13 UNL     1      22.827  30.741  75.230  1.00  0.00     0.279 HD
ENDBRANCH  12  24
BRANCH   9  28
HETATM   28  O6  UNL     1      21.876  29.024  71.175  1.00  0.00    -0.365 OA
ATOM     29  H6  UNL     1      22.567  28.408  71.388  1.00  0.00     0.212 HD
ENDBRANCH   9  28
ENDBRANCH   1   3
BRANCH   1  30
HETATM   30  C9  UNL     1      16.859  33.266  69.617  1.00  0.00     0.290 C 
BRANCH  30  31
HETATM   31  O4  UNL     1      16.674  32.394  68.542  1.00  0.00    -0.369 OA
ATOM     32  H4  UNL     1      15.752  32.189  68.433  1.00  0.00     0.212 HD
ENDBRANCH  30  31
BRANCH  30  33
HETATM   33  C10 UNL     1      15.844  34.342  69.552  1.00  0.00     0.163 A 
HETATM   34  N3  UNL     1      16.009  35.671  69.747  1.00  0.00    -0.268 N 
HETATM   35  N4  UNL     1      14.830  36.231  69.586  1.00  0.00    -0.219 N 
ATOM     36  H3  UNL     1      16.881  36.147  69.976  1.00  0.00     0.190 HD
HETATM   37  N5  UNL     1      13.914  35.322  69.296  1.00  0.00    -0.174 N 
ATOM     38  H4  UNL     1      14.647  37.230  69.674  1.00  0.00     0.210 HD
HETATM   39  N11 UNL     1      14.543  34.176  69.278  1.00  0.00    -0.261 N 
ATOM     40  H11 UNL     1      14.103  33.277  69.082  1.00  0.00     0.190 HD
BRANCH  37  41
HETATM   41  C11 UNL     1      12.551  35.648  69.071  1.00  0.00     0.162 A 
HETATM   42  C12 UNL     1      12.146  36.491  68.035  1.00  0.00     0.166 A 
HETATM   43  N6  UNL     1      13.164  37.011  67.211  1.00  0.00    -0.079 NA
HETATM   44  N7  UNL     1      10.848  36.787  67.842  1.00  0.00    -0.177 N 
HETATM   45  C13 UNL     1       9.902  36.273  68.646  1.00  0.00     0.678 A 
ATOM     46  H7  UNL     1      10.579  37.407  67.078  1.00  0.00     0.185 HD
HETATM   47  N9  UNL     1      10.290  35.464  69.640  1.00  0.00    -0.175 N 
HETATM   48  C14 UNL     1      11.563  35.138  69.878  1.00  0.00     0.148 A 
ATOM     49  H9  UNL     1       9.571  35.074  70.250  1.00  0.00     0.186 HD
BRANCH  45  50
HETATM   50  N8  UNL     1       8.636  36.551  68.469  1.00  0.00    -0.234 N 
ATOM     51  H82 UNL     1       8.259  36.682  67.531  1.00  0.00     0.174 HD
ATOM     52  H81 UNL     1       7.998  36.642  69.260  1.00  0.00     0.174 HD
ENDBRANCH  45  50
BRANCH  48  53
HETATM   53  N10 UNL     1      11.882  34.340  70.868  1.00  0.00    -0.383 N 
ATOM     54 2H10 UNL     1      11.959  34.691  71.823  1.00  0.00     0.157 HD
ATOM     55 1H10 UNL     1      12.054  33.351  70.684  1.00  0.00     0.157 HD
ENDBRANCH  48  53
ENDBRANCH  37  41
ENDBRANCH  30  33
ENDBRANCH   1  30
TORSDOF 14
ENDMDL
MODEL 4
REMARK VINA RESULT: -8.833844531      1.007      1.135
REMARK  14 active torsions:
REMARK  status: ('A' for Active; 'I' for Inactive)
REMARK    1  A    between atoms: O1_2  and  C2_3 
REMARK    2  A    between atoms: C2_3  and  O2_4 
REMARK    3  A    between atoms: O2_4  and  C3_5 
REMARK    4  A    between atoms: C3_5  and  C4_7 
REMARK    5  A    between atoms: C8_13  and  N2_14 
REMARK    6  A    between atoms: N2_14  and  C9_16 
REMARK    7  A    between atoms: C9_16  and  O4_17 
REMARK    8  A    between atoms: C9_16  and  C10_19 
REMARK    9  A    between atoms: N5_24  and  C11_25 
REMARK   10  A    between atoms: C13_30  and  N8_31 
REMARK   11  A    between atoms: C14_36  and  N10_37 
REMARK   12  A    between atoms: N12_42  and  O5_43 
REMARK   13  A    between atoms: C15_45  and  N13_46 
REMARK   14  A    between atoms: C16_53  and  O6_54 
ROOT
HETATM    1  N2  UNL     1      16.849  32.428  71.009  1.00  0.00    -0.356 N 
ATOM      2  H2  UNL     1      16.118  32.598  71.699  1.00  0.00     0.162 HD
ENDROOT
BRANCH   1   3
HETATM    3  C8  UNL     1      17.857  31.487  71.277  1.00  0.00     0.066 A 
HETATM    4  C4  UNL     1      17.744  30.125  71.091  1.00  0.00     0.135 A 
HETATM    5  N1  UNL     1      18.776  29.278  71.399  1.00  0.00    -0.347 N 
HETATM    6  C5  UNL     1      19.909  29.766  71.885  1.00  0.00     0.096 A 
ATOM      7  H1  UNL     1      18.672  28.274  71.254  1.00  0.00     0.166 HD
HETATM    8  C6  UNL     1      20.100  31.113  72.099  1.00  0.00     0.090 A 
HETATM    9  C16 UNL     1      21.075  28.873  72.230  1.00  0.00     0.376 C 
HETATM   10  C7  UNL     1      19.080  31.954  71.796  1.00  0.00     0.065 A 
HETATM   11  N12 UNL     1      21.347  31.535  72.627  1.00  0.00    -0.203 N 
HETATM   12  C15 UNL     1      22.214  30.648  73.377  1.00  0.00     0.512 C 
HETATM   13  N14 UNL     1      21.647  29.312  73.458  1.00  0.00     0.005 N 
ATOM     14 2H14 UNL     1      22.339  28.644  73.796  1.00  0.00     0.285 HD
ATOM     15 1H14 UNL     1      20.969  29.250  74.218  1.00  0.00     0.285 HD
BRANCH   4  16
HETATM   16  C3  UNL     1      16.551  29.514  70.556  1.00  0.00     0.314 C 
HETATM   17  O3  UNL     1      15.438  29.814  71.119  1.00  0.00    -0.257 OA
BRANCH  16  18
HETATM   18  O2  UNL     1      16.455  28.653  69.520  1.00  0.00    -0.290 OA
BRANCH  18  19
HETATM   19  C2  UNL     1      15.469  28.664  68.520  1.00  0.00     0.347 C 
BRANCH  19  20
HETATM   20  O1  UNL     1      15.381  29.910  67.888  1.00  0.00    -0.371 OA
HETATM   21  C1  UNL     1      15.018  29.739  66.565  1.00  0.00     0.204 C 
ENDBRANCH  19  20
ENDBRANCH  18  19
ENDBRANCH  16  18
ENDBRANCH   4  16
BRANCH  11  22
HETATM   22  O5  UNL     1      21.743  32.803  72.430  1.00  0.00    -0.284 OA
ATOM     23  H5  UNL     1      21.097  33.499  72.465  1.00  0.00     0.245 HD
ENDBRANCH  11  22
BRANCH  12  24
HETATM   24  N13 UNL     1      22.286  31.164  74.732  1.00  0.00    -0.030 N 
ATOM     25 3H13 UNL     1      23.080  30.796  75.257  1.00  0.00     0.279 HD
ATOM     26 2H13 UNL     1      22.546  32.150  74.771  1.00  0.00     0.279 HD
ATOM     27 1H13 UNL     1      21.389  30.970  75.176  1.00  0.00     0.279 HD
ENDBRANCH  12  24
BRANCH   9  28
HETATM   28  O6  UNL     1      21.959  28.969  71.148  1.00  0.00    -0.365 OA
ATOM     29  H6  UNL     1      22.130  28.075  70.877  1.00  0.00     0.212 HD
ENDBRANCH   9  28
ENDBRANCH   1   3
BRANCH   1  30
HETATM   30  C9  UNL     1      16.845  33.158  69.758  1.00  0.00     0.290 C 
BRANCH  30  31
HETATM   31  O4  UNL     1      16.642  32.289  68.684  1.00  0.00    -0.369 OA
ATOM     32  H4  UNL     1      17.456  32.140  68.217  1.00  0.00     0.212 HD
ENDBRANCH  30  31
BRANCH  30  33
HETATM   33  C10 UNL     1      15.812  34.218  69.729  1.00  0.00     0.163 A 
HETATM   34  N3  UNL     1      15.947  35.536  70.003  1.00  0.00    -0.268 N 
HETATM   35  N4  UNL     1      14.761  36.084  69.845  1.00  0.00    -0.219 N 
ATOM     36  H3  UNL     1      16.804  36.014  70.279  1.00  0.00     0.190 HD
HETATM   37  N5  UNL     1      13.870  35.177  69.482  1.00  0.00    -0.174 N 
ATOM     38  H4  UNL     1      14.558  37.073  69.984  1.00  0.00     0.210 HD
HETATM   39  N11 UNL     1      14.521  34.045  69.415  1.00  0.00    -0.261 N 
ATOM     40  H11 UNL     1      14.102  33.151  69.158  1.00  0.00     0.190 HD
BRANCH  37  41
HETATM   41  C11 UNL     1      12.507  35.491  69.242  1.00  0.00     0.162 A 
HETATM   42  C12 UNL     1      11.472  34.963  70.017  1.00  0.00     0.166 A 
HETATM   43  N6  UNL     1      11.847  34.094  71.061  1.00  0.00    -0.079 NA
HETATM   44  N7  UNL     1      10.187  35.273  69.770  1.00  0.00    -0.177 N 
HETATM   45  C13 UNL     1       9.864  36.107  68.766  1.00  0.00     0.678 A 
ATOM     46  H7  UNL     1       9.450  34.873  70.351  1.00  0.00     0.185 HD
HETATM   47  N9  UNL     1      10.856  36.613  68.024  1.00  0.00    -0.175 N 
HETATM   48  C14 UNL     1      12.148  36.338  68.222  1.00  0.00     0.148 A 
ATOM     49  H9  UNL     1      10.610  37.246  67.262  1.00  0.00     0.186 HD
BRANCH  45  50
HETATM   50  N8  UNL     1       8.618  36.418  68.516  1.00  0.00    -0.234 N 
ATOM     51  H82 UNL     1       7.876  35.729  68.637  1.00  0.00     0.174 HD
ATOM     52  H81 UNL     1       8.359  37.352  68.196  1.00  0.00     0.174 HD
ENDBRANCH  45  50
BRANCH  48  53
HETATM   53  N10 UNL     1      13.075  36.866  67.461  1.00  0.00    -0.383 N 
ATOM     54 2H10 UNL     1      13.070  36.723  66.451  1.00  0.00     0.157 HD
ATOM     55 1H10 UNL     1      13.814  37.430  67.882  1.00  0.00     0.157 HD
ENDBRANCH  48  53
ENDBRANCH  37  41
ENDBRANCH  30  33
ENDBRANCH   1  30
TORSDOF 14
ENDMDL
MODEL 5
REMARK VINA RESULT: -8.625088523      1.072      1.738
REMARK  14 active torsions:
REMARK  status: ('A' for Active; 'I' for Inactive)
REMARK    1  A    between atoms: O1_2  and  C2_3 
REMARK    2  A    between atoms: C2_3  and  O2_4 
REMARK    3  A    between atoms: O2_4  and  C3_5 
REMARK    4  A    between atoms: C3_5  and  C4_7 
REMARK    5  A    between atoms: C8_13  and  N2_14 
REMARK    6  A    between atoms: N2_14  and  C9_16 
REMARK    7  A    between atoms: C9_16  and  O4_17 
REMARK    8  A    between atoms: C9_16  and  C10_19 
REMARK    9  A    between atoms: N5_24  and  C11_25 
REMARK   10  A    between atoms: C13_30  and  N8_31 
REMARK   11  A    between atoms: C14_36  and  N10_37 
REMARK   12  A    between atoms: N12_42  and  O5_43 
REMARK   13  A    between atoms: C15_45  and  N13_46 
REMARK   14  A    between atoms: C16_53  and  O6_54 
ROOT
HETATM    1  N2  UNL     1      16.148  31.450  69.812  1.00  0.00    -0.356 N 
ATOM      2  H2  UNL     1      16.080  31.572  68.801  1.00  0.00     0.162 HD
ENDROOT
BRANCH   1   3
HETATM    3  C8  UNL     1      17.281  30.833  70.366  1.00  0.00     0.066 A 
HETATM    4  C4  UNL     1      17.572  29.487  70.290  1.00  0.00     0.135 A 
HETATM    5  N1  UNL     1      18.694  28.968  70.880  1.00  0.00    -0.347 N 
HETATM    6  C5  UNL     1      19.524  29.766  71.539  1.00  0.00     0.096 A 
ATOM      7  H1  UNL     1      18.891  27.970  70.813  1.00  0.00     0.166 HD
HETATM    8  C6  UNL     1      19.304  31.120  71.660  1.00  0.00     0.090 A 
HETATM    9  C16 UNL     1      20.776  29.241  72.196  1.00  0.00     0.376 C 
HETATM   10  C7  UNL     1      18.193  31.636  71.077  1.00  0.00     0.065 A 
HETATM   11  N12 UNL     1      20.249  31.887  72.388  1.00  0.00    -0.203 N 
HETATM   12  C15 UNL     1      21.129  31.301  73.379  1.00  0.00     0.512 C 
HETATM   13  N14 UNL     1      20.927  29.864  73.468  1.00  0.00     0.005 N 
ATOM     14 2H14 UNL     1      21.677  29.424  74.001  1.00  0.00     0.285 HD
ATOM     15 1H14 UNL     1      20.138  29.644  74.076  1.00  0.00     0.285 HD
BRANCH   4  16
HETATM   16  C3  UNL     1      16.729  28.553  69.584  1.00  0.00     0.314 C 
HETATM   17  O3  UNL     1      17.229  27.402  69.315  1.00  0.00    -0.257 OA
BRANCH  16  18
HETATM   18  O2  UNL     1      15.460  28.738  69.162  1.00  0.00    -0.290 OA
BRANCH  18  19
HETATM   19  C2  UNL     1      15.037  28.858  67.827  1.00  0.00     0.347 C 
BRANCH  19  20
HETATM   20  O1  UNL     1      15.298  30.134  67.311  1.00  0.00    -0.371 OA
HETATM   21  C1  UNL     1      14.894  30.194  65.990  1.00  0.00     0.204 C 
ENDBRANCH  19  20
ENDBRANCH  18  19
ENDBRANCH  16  18
ENDBRANCH   4  16
BRANCH  11  22
HETATM   22  O5  UNL     1      20.333  33.208  72.158  1.00  0.00    -0.284 OA
ATOM     23  H5  UNL     1      20.583  33.510  71.292  1.00  0.00     0.245 HD
ENDBRANCH  11  22
BRANCH  12  24
HETATM   24  N13 UNL     1      20.762  31.864  74.665  1.00  0.00    -0.030 N 
ATOM     25 3H13 UNL     1      20.605  32.871  74.630  1.00  0.00     0.279 HD
ATOM     26 2H13 UNL     1      19.825  31.594  74.967  1.00  0.00     0.279 HD
ATOM     27 1H13 UNL     1      21.488  31.595  75.329  1.00  0.00     0.279 HD
ENDBRANCH  12  24
BRANCH   9  28
HETATM   28  O6  UNL     1      21.821  29.538  71.313  1.00  0.00    -0.365 OA
ATOM     29  H6  UNL     1      22.501  28.902  71.496  1.00  0.00     0.212 HD
ENDBRANCH   9  28
ENDBRANCH   1   3
BRANCH   1  30
HETATM   30  C9  UNL     1      15.076  31.915  70.667  1.00  0.00     0.290 C 
BRANCH  30  31
HETATM   31  O4  UNL     1      15.464  31.867  72.008  1.00  0.00    -0.369 OA
ATOM     32  H4  UNL     1      14.707  31.947  72.577  1.00  0.00     0.212 HD
ENDBRANCH  30  31
BRANCH  30  33
HETATM   33  C10 UNL     1      14.646  33.291  70.334  1.00  0.00     0.163 A 
HETATM   34  N3  UNL     1      15.254  34.462  70.636  1.00  0.00    -0.268 N 
HETATM   35  N4  UNL     1      14.508  35.422  70.134  1.00  0.00    -0.219 N 
ATOM     36  H3  UNL     1      16.124  34.578  71.154  1.00  0.00     0.190 HD
HETATM   37  N5  UNL     1      13.448  34.921  69.522  1.00  0.00    -0.174 N 
ATOM     38  H4  UNL     1      14.719  36.417  70.207  1.00  0.00     0.210 HD
HETATM   39  N11 UNL     1      13.542  33.623  69.651  1.00  0.00    -0.261 N 
ATOM     40  H11 UNL     1      12.867  32.955  69.281  1.00  0.00     0.190 HD
BRANCH  37  41
HETATM   41  C11 UNL     1      12.470  35.732  68.890  1.00  0.00     0.162 A 
HETATM   42  C12 UNL     1      12.795  36.654  67.892  1.00  0.00     0.166 A 
HETATM   43  N6  UNL     1      14.156  36.743  67.537  1.00  0.00    -0.079 NA
HETATM   44  N7  UNL     1      11.851  37.413  67.308  1.00  0.00    -0.177 N 
HETATM   45  C13 UNL     1      10.562  37.302  67.670  1.00  0.00     0.678 A 
ATOM     46  H7  UNL     1      12.116  38.079  66.582  1.00  0.00     0.185 HD
HETATM   47  N9  UNL     1      10.249  36.419  68.627  1.00  0.00    -0.175 N 
HETATM   48  C14 UNL     1      11.145  35.641  69.242  1.00  0.00     0.148 A 
ATOM     49  H9  UNL     1       9.271  36.335  68.902  1.00  0.00     0.186 HD
BRANCH  45  50
HETATM   50  N8  UNL     1       9.633  38.033  67.110  1.00  0.00    -0.234 N 
ATOM     51  H82 UNL     1       9.114  38.721  67.655  1.00  0.00     0.174 HD
ATOM     52  H81 UNL     1       9.407  37.935  66.120  1.00  0.00     0.174 HD
ENDBRANCH  45  50
BRANCH  48  53
HETATM   53  N10 UNL     1      10.778  34.794  70.172  1.00  0.00    -0.383 N 
ATOM     54 2H10 UNL     1      10.163  34.009  69.955  1.00  0.00     0.157 HD
ATOM     55 1H10 UNL     1      11.110  34.919  71.128  1.00  0.00     0.157 HD
ENDBRANCH  48  53
ENDBRANCH  37  41
ENDBRANCH  30  33
ENDBRANCH   1  30
TORSDOF 14
ENDMDL
