MODEL 1
REMARK VINA RESULT: -9.621362778      0.000      0.000
REMARK  19 active torsions:
REMARK  status: ('A' for Active; 'I' for Inactive)
REMARK    1  A    between atoms: N1_1  and  C1_4 
REMARK    2  A    between atoms: C2_9  and  C3_10 
REMARK    3  A    between atoms: C3_10  and  C4_11 
REMARK    4  A    between atoms: C3_10  and  N6_35 
REMARK       I    between atoms: N4_12  and  C5_14 
REMARK    5  A    between atoms: C5_14  and  C6_16 
REMARK    6  A    between atoms: C7_17  and  O2_18 
REMARK    7  A    between atoms: C8_20  and  O3_21 
REMARK    8  A    between atoms: N5_23  and  C9_24 
REMARK    9  A    between atoms: C9_24  and  O4_25 
REMARK   10  A    between atoms: C9_24  and  C10_27 
REMARK   11  A    between atoms: C10_27  and  O5_28 
REMARK   12  A    between atoms: C10_27  and  O6_30 
REMARK   13  A    between atoms: C11_32  and  O7_33 
REMARK   14  A    between atoms: N6_35  and  C12_37 
REMARK   15  A    between atoms: C12_37  and  C13_38 
REMARK   16  A    between atoms: N9_43  and  C14_44 
REMARK   17  A    between atoms: C14_44  and  C15_45 
REMARK   18  A    between atoms: C15_45  and  O8_46 
REMARK   19  A    between atoms: C15_45  and  O9_48 
ROOT
HETATM    1  C3  UNL     1      16.344  32.732  68.510  1.00  0.00     0.171 C 
ENDROOT
BRANCH   1   2
HETATM    2  C2  UNL     1      15.850  31.452  67.975  1.00  0.00     0.095 A 
HETATM    3  N3  UNL     1      15.341  31.432  66.718  1.00  0.00    -0.285 N 
HETATM    4  N2  UNL     1      14.874  30.317  66.209  1.00  0.00    -0.132 N 
ATOM      5  H3  UNL     1      15.321  32.289  66.166  1.00  0.00     0.187 HD
HETATM    6  C1  UNL     1      14.887  29.188  66.912  1.00  0.00     0.691 A 
ATOM      7  H2  UNL     1      14.495  30.316  65.262  1.00  0.00     0.205 HD
HETATM    8  N12 UNL     1      15.389  29.176  68.166  1.00  0.00    -0.176 N 
HETATM    9  C16 UNL     1      15.886  30.308  68.742  1.00  0.00     0.158 A 
ATOM     10  H12 UNL     1      15.396  28.303  68.694  1.00  0.00     0.185 HD
HETATM   11  N11 UNL     1      16.433  30.352  70.037  1.00  0.00    -0.080 NA
BRANCH   6  12
HETATM   12  N1  UNL     1      14.447  28.089  66.449  1.00  0.00    -0.233 N 
ATOM     13  H12 UNL     1      13.490  28.080  66.096  1.00  0.00     0.174 HD
ATOM     14  H11 UNL     1      15.008  27.238  66.427  1.00  0.00     0.174 HD
ENDBRANCH   6  12
ENDBRANCH   1   2
BRANCH   1  15
HETATM   15  C4  UNL     1      15.588  33.905  67.952  1.00  0.00     0.095 C 
HETATM   16  N4  UNL     1      15.136  34.868  68.720  1.00  0.00    -0.334 N 
HETATM   17  C5  UNL     1      14.423  35.926  68.080  1.00  0.00     0.262 C 
ATOM     18  H4  UNL     1      15.288  34.861  69.728  1.00  0.00     0.168 HD
HETATM   19  O1  UNL     1      15.108  36.700  67.394  1.00  0.00    -0.267 OA
BRANCH  17  20
HETATM   20  C6  UNL     1      12.974  36.025  68.255  1.00  0.00     0.121 A 
HETATM   21  C7  UNL     1      12.066  36.881  67.698  1.00  0.00     0.137 A 
HETATM   22  C8  UNL     1      10.846  36.596  68.251  1.00  0.00     0.185 A 
HETATM   23  N5  UNL     1      10.944  35.566  69.161  1.00  0.00    -0.248 N 
HETATM   24  C11 UNL     1      12.237  35.228  69.154  1.00  0.00     0.169 A 
BRANCH  21  25
HETATM   25  O2  UNL     1      12.307  37.870  66.744  1.00  0.00    -0.356 OA
ATOM     26  H2  UNL     1      11.929  38.740  66.707  1.00  0.00     0.218 HD
ENDBRANCH  21  25
BRANCH  22  27
HETATM   27  O3  UNL     1       9.694  37.300  67.889  1.00  0.00    -0.344 OA
ATOM     28  H3  UNL     1       8.947  37.368  68.472  1.00  0.00     0.219 HD
ENDBRANCH  22  27
BRANCH  23  29
HETATM   29  C9  UNL     1       9.824  35.126  69.888  1.00  0.00     0.182 C 
BRANCH  29  30
HETATM   30  O4  UNL     1       9.694  33.832  70.051  1.00  0.00    -0.345 OA
ATOM     31  H4  UNL     1      10.000  33.470  70.874  1.00  0.00     0.219 HD
ENDBRANCH  29  30
BRANCH  29  32
HETATM   32  C10 UNL     1       8.743  35.879  70.511  1.00  0.00     0.331 C 
BRANCH  32  33
HETATM   33  O5  UNL     1       7.773  36.332  69.672  1.00  0.00    -0.364 OA
ATOM     34  H5  UNL     1       7.119  35.694  69.410  1.00  0.00     0.213 HD
ENDBRANCH  32  33
BRANCH  32  35
HETATM   35  O6  UNL     1       9.299  37.012  71.177  1.00  0.00    -0.364 OA
ATOM     36  H6  UNL     1       9.101  36.948  72.104  1.00  0.00     0.213 HD
ENDBRANCH  32  35
ENDBRANCH  29  32
ENDBRANCH  23  29
BRANCH  24  37
HETATM   37  O7  UNL     1      12.820  34.235  69.911  1.00  0.00    -0.345 OA
ATOM     38  H7  UNL     1      13.450  34.421  70.597  1.00  0.00     0.219 HD
ENDBRANCH  24  37
ENDBRANCH  17  20
ENDBRANCH   1  15
BRANCH   1  39
HETATM   39  N6  UNL     1      16.361  32.868  69.917  1.00  0.00    -0.401 N 
ATOM     40  H6  UNL     1      15.743  32.295  70.492  1.00  0.00     0.154 HD
BRANCH  39  41
HETATM   41  C12 UNL     1      17.238  33.804  70.531  1.00  0.00     0.194 C 
BRANCH  41  42
HETATM   42  C13 UNL     1      18.366  33.036  71.159  1.00  0.00     0.130 A 
HETATM   43  N7  UNL     1      19.525  33.561  71.601  1.00  0.00    -0.271 N 
HETATM   44  N8  UNL     1      20.246  32.573  72.057  1.00  0.00    -0.224 N 
ATOM     45  H7  UNL     1      19.789  34.546  71.583  1.00  0.00     0.190 HD
HETATM   46  N9  UNL     1      19.594  31.417  71.926  1.00  0.00    -0.214 N 
ATOM     47  H8  UNL     1      21.178  32.671  72.459  1.00  0.00     0.210 HD
HETATM   48  N10 UNL     1      18.424  31.721  71.364  1.00  0.00    -0.268 N 
ATOM     49  H10 UNL     1      17.690  31.054  71.129  1.00  0.00     0.190 HD
BRANCH  46  50
HETATM   50  C14 UNL     1      20.056  30.108  72.292  1.00  0.00     0.231 C 
BRANCH  50  51
HETATM   51  C15 UNL     1      19.375  29.042  71.455  1.00  0.00     0.275 C 
BRANCH  51  52
HETATM   52  O8  UNL     1      19.373  29.406  70.112  1.00  0.00    -0.370 OA
ATOM     53  H8  UNL     1      18.746  28.882  69.628  1.00  0.00     0.212 HD
ENDBRANCH  51  52
BRANCH  51  54
HETATM   54  O9  UNL     1      18.074  28.892  71.937  1.00  0.00    -0.370 OA
ATOM     55  H9  UNL     1      17.503  28.765  71.188  1.00  0.00     0.212 HD
ENDBRANCH  51  54
ENDBRANCH  50  51
ENDBRANCH  46  50
ENDBRANCH  41  42
ENDBRANCH  39  41
ENDBRANCH   1  39
TORSDOF 19
ENDMDL
MODEL 2
REMARK VINA RESULT: -9.445510874      1.530      1.810
REMARK  19 active torsions:
REMARK  status: ('A' for Active; 'I' for Inactive)
REMARK    1  A    between atoms: N1_1  and  C1_4 
REMARK    2  A    between atoms: C2_9  and  C3_10 
REMARK    3  A    between atoms: C3_10  and  C4_11 
REMARK    4  A    between atoms: C3_10  and  N6_35 
REMARK       I    between atoms: N4_12  and  C5_14 
REMARK    5  A    between atoms: C5_14  and  C6_16 
REMARK    6  A    between atoms: C7_17  and  O2_18 
REMARK    7  A    between atoms: C8_20  and  O3_21 
REMARK    8  A    between atoms: N5_23  and  C9_24 
REMARK    9  A    between atoms: C9_24  and  O4_25 
REMARK   10  A    between atoms: C9_24  and  C10_27 
REMARK   11  A    between atoms: C10_27  and  O5_28 
REMARK   12  A    between atoms: C10_27  and  O6_30 
REMARK   13  A    between atoms: C11_32  and  O7_33 
REMARK   14  A    between atoms: N6_35  and  C12_37 
REMARK   15  A    between atoms: C12_37  and  C13_38 
REMARK   16  A    between atoms: N9_43  and  C14_44 
REMARK   17  A    between atoms: C14_44  and  C15_45 
REMARK   18  A    between atoms: C15_45  and  O8_46 
REMARK   19  A    between atoms: C15_45  and  O9_48 
ROOT
HETATM    1  C3  UNL     1      16.550  32.667  68.564  1.00  0.00     0.171 C 
ENDROOT
BRANCH   1   2
HETATM    2  C2  UNL     1      16.005  31.398  68.049  1.00  0.00     0.095 A 
HETATM    3  N3  UNL     1      15.425  31.398  66.823  1.00  0.00    -0.285 N 
HETATM    4  N2  UNL     1      14.911  30.295  66.333  1.00  0.00    -0.132 N 
ATOM      5  H3  UNL     1      15.388  32.260  66.279  1.00  0.00     0.187 HD
HETATM    6  C1  UNL     1      14.946  29.160  67.025  1.00  0.00     0.691 A 
ATOM      7  H2  UNL     1      14.480  30.308  65.409  1.00  0.00     0.205 HD
HETATM    8  N12 UNL     1      15.518  29.129  68.249  1.00  0.00    -0.176 N 
HETATM    9  C16 UNL     1      16.066  30.247  68.804  1.00  0.00     0.158 A 
ATOM     10  H12 UNL     1      15.541  28.251  68.768  1.00  0.00     0.185 HD
HETATM   11  N11 UNL     1      16.686  30.271  70.066  1.00  0.00    -0.080 NA
BRANCH   6  12
HETATM   12  N1  UNL     1      14.463  28.072  66.580  1.00  0.00    -0.233 N 
ATOM     13  H12 UNL     1      14.280  28.016  65.577  1.00  0.00     0.174 HD
ATOM     14  H11 UNL     1      14.254  27.276  67.182  1.00  0.00     0.174 HD
ENDBRANCH   6  12
ENDBRANCH   1   2
BRANCH   1  15
HETATM   15  C4  UNL     1      15.803  33.857  68.035  1.00  0.00     0.095 C 
HETATM   16  N4  UNL     1      15.305  34.775  68.830  1.00  0.00    -0.334 N 
HETATM   17  C5  UNL     1      14.605  35.856  68.215  1.00  0.00     0.262 C 
ATOM     18  H4  UNL     1      15.414  34.717  69.843  1.00  0.00     0.168 HD
HETATM   19  O1  UNL     1      15.309  36.672  67.600  1.00  0.00    -0.267 OA
BRANCH  17  20
HETATM   20  C6  UNL     1      13.149  35.929  68.331  1.00  0.00     0.121 A 
HETATM   21  C7  UNL     1      12.243  36.721  67.685  1.00  0.00     0.137 A 
HETATM   22  C8  UNL     1      11.010  36.444  68.213  1.00  0.00     0.185 A 
HETATM   23  N5  UNL     1      11.098  35.481  69.195  1.00  0.00    -0.248 N 
HETATM   24  C11 UNL     1      12.398  35.177  69.257  1.00  0.00     0.169 A 
BRANCH  21  25
HETATM   25  O2  UNL     1      12.496  37.649  66.675  1.00  0.00    -0.356 OA
ATOM     26  H2  UNL     1      12.394  38.592  66.718  1.00  0.00     0.218 HD
ENDBRANCH  21  25
BRANCH  22  27
HETATM   27  O3  UNL     1       9.856  37.091  67.763  1.00  0.00    -0.344 OA
ATOM     28  H3  UNL     1       9.029  37.014  68.224  1.00  0.00     0.219 HD
ENDBRANCH  22  27
BRANCH  23  29
HETATM   29  C9  UNL     1       9.963  35.063  69.911  1.00  0.00     0.182 C 
BRANCH  29  30
HETATM   30  O4  UNL     1       9.828  33.774  70.109  1.00  0.00    -0.345 OA
ATOM     31  H4  UNL     1       9.066  33.493  70.600  1.00  0.00     0.219 HD
ENDBRANCH  29  30
BRANCH  29  32
HETATM   32  C10 UNL     1       8.870  35.834  70.488  1.00  0.00     0.331 C 
BRANCH  32  33
HETATM   33  O5  UNL     1       7.976  36.353  69.604  1.00  0.00    -0.364 OA
ATOM     34  H5  UNL     1       7.788  37.280  69.699  1.00  0.00     0.213 HD
ENDBRANCH  32  33
BRANCH  32  35
HETATM   35  O6  UNL     1       9.419  36.920  71.233  1.00  0.00    -0.364 OA
ATOM     36  H6  UNL     1      10.226  36.631  71.643  1.00  0.00     0.213 HD
ENDBRANCH  32  35
ENDBRANCH  29  32
ENDBRANCH  23  29
BRANCH  24  37
HETATM   37  O7  UNL     1      12.976  34.253  70.101  1.00  0.00    -0.345 OA
ATOM     38  H7  UNL     1      13.816  34.401  70.520  1.00  0.00     0.219 HD
ENDBRANCH  24  37
ENDBRANCH  17  20
ENDBRANCH   1  15
BRANCH   1  39
HETATM   39  N6  UNL     1      16.622  32.801  69.970  1.00  0.00    -0.401 N 
ATOM     40  H6  UNL     1      15.922  32.354  70.562  1.00  0.00     0.154 HD
BRANCH  39  41
HETATM   41  C12 UNL     1      17.671  33.559  70.559  1.00  0.00     0.194 C 
BRANCH  41  42
HETATM   42  C13 UNL     1      18.568  32.609  71.300  1.00  0.00     0.130 A 
HETATM   43  N7  UNL     1      18.246  31.358  71.680  1.00  0.00    -0.271 N 
HETATM   44  N8  UNL     1      19.279  30.868  72.309  1.00  0.00    -0.224 N 
ATOM     45  H7  UNL     1      17.360  30.882  71.508  1.00  0.00     0.190 HD
HETATM   46  N9  UNL     1      20.268  31.762  72.353  1.00  0.00    -0.214 N 
ATOM     47  H8  UNL     1      19.324  29.932  72.711  1.00  0.00     0.210 HD
HETATM   48  N10 UNL     1      19.810  32.842  71.720  1.00  0.00    -0.268 N 
ATOM     49  H10 UNL     1      20.329  33.709  71.579  1.00  0.00     0.190 HD
BRANCH  46  50
HETATM   50  C14 UNL     1      21.555  31.609  72.969  1.00  0.00     0.231 C 
BRANCH  50  51
HETATM   51  C15 UNL     1      21.655  32.450  74.227  1.00  0.00     0.275 C 
BRANCH  51  52
HETATM   52  O8  UNL     1      20.481  32.357  74.968  1.00  0.00    -0.370 OA
ATOM     53  H8  UNL     1      20.647  31.933  75.801  1.00  0.00     0.212 HD
ENDBRANCH  51  52
BRANCH  51  54
HETATM   54  O9  UNL     1      21.900  33.768  73.838  1.00  0.00    -0.370 OA
ATOM     55  H9  UNL     1      21.835  34.314  74.613  1.00  0.00     0.212 HD
ENDBRANCH  51  54
ENDBRANCH  50  51
ENDBRANCH  46  50
ENDBRANCH  41  42
ENDBRANCH  39  41
ENDBRANCH   1  39
TORSDOF 19
ENDMDL
MODEL 3
REMARK VINA RESULT: -9.398203152      2.227      3.209
REMARK  19 active torsions:
REMARK  status: ('A' for Active; 'I' for Inactive)
REMARK    1  A    between atoms: N1_1  and  C1_4 
REMARK    2  A    between atoms: C2_9  and  C3_10 
REMARK    3  A    between atoms: C3_10  and  C4_11 
REMARK    4  A    between atoms: C3_10  and  N6_35 
REMARK       I    between atoms: N4_12  and  C5_14 
REMARK    5  A    between atoms: C5_14  and  C6_16 
REMARK    6  A    between atoms: C7_17  and  O2_18 
REMARK    7  A    between atoms: C8_20  and  O3_21 
REMARK    8  A    between atoms: N5_23  and  C9_24 
REMARK    9  A    between atoms: C9_24  and  O4_25 
REMARK   10  A    between atoms: C9_24  and  C10_27 
REMARK   11  A    between atoms: C10_27  and  O5_28 
REMARK   12  A    between atoms: C10_27  and  O6_30 
REMARK   13  A    between atoms: C11_32  and  O7_33 
REMARK   14  A    between atoms: N6_35  and  C12_37 
REMARK   15  A    between atoms: C12_37  and  C13_38 
REMARK   16  A    between atoms: N9_43  and  C14_44 
REMARK   17  A    between atoms: C14_44  and  C15_45 
REMARK   18  A    between atoms: C15_45  and  O8_46 
REMARK   19  A    between atoms: C15_45  and  O9_48 
ROOT
HETATM    1  C3  UNL     1      17.309  31.688  69.418  1.00  0.00     0.171 C 
ENDROOT
BRANCH   1   2
HETATM    2  C2  UNL     1      16.797  30.323  69.206  1.00  0.00     0.095 A 
HETATM    3  N3  UNL     1      15.571  30.175  68.645  1.00  0.00    -0.285 N 
HETATM    4  N2  UNL     1      15.069  28.978  68.455  1.00  0.00    -0.132 N 
ATOM      5  H3  UNL     1      15.037  30.999  68.369  1.00  0.00     0.187 HD
HETATM    6  C1  UNL     1      15.746  27.890  68.809  1.00  0.00     0.691 A 
ATOM      7  H2  UNL     1      14.147  28.881  68.030  1.00  0.00     0.205 HD
HETATM    8  N12 UNL     1      16.970  28.005  69.371  1.00  0.00    -0.176 N 
HETATM    9  C16 UNL     1      17.537  29.226  69.590  1.00  0.00     0.158 A 
ATOM     10  H12 UNL     1      17.480  27.163  69.636  1.00  0.00     0.185 HD
HETATM   11  N11 UNL     1      18.812  29.406  70.157  1.00  0.00    -0.080 NA
BRANCH   6  12
HETATM   12  N1  UNL     1      15.293  26.715  68.637  1.00  0.00    -0.233 N 
ATOM     13  H12 UNL     1      14.820  26.521  67.754  1.00  0.00     0.174 HD
ATOM     14  H11 UNL     1      15.383  25.982  69.340  1.00  0.00     0.174 HD
ENDBRANCH   6  12
ENDBRANCH   1   2
BRANCH   1  15
HETATM   15  C4  UNL     1      16.477  32.718  68.710  1.00  0.00     0.095 C 
HETATM   16  N4  UNL     1      16.166  33.864  69.269  1.00  0.00    -0.334 N 
HETATM   17  C5  UNL     1      15.360  34.761  68.504  1.00  0.00     0.262 C 
ATOM     18  H4  UNL     1      16.485  34.102  70.207  1.00  0.00     0.168 HD
HETATM   19  O1  UNL     1      15.925  35.304  67.542  1.00  0.00    -0.267 OA
BRANCH  17  20
HETATM   20  C6  UNL     1      13.962  34.969  68.879  1.00  0.00     0.121 A 
HETATM   21  C7  UNL     1      13.183  34.328  69.801  1.00  0.00     0.137 A 
HETATM   22  C8  UNL     1      11.924  34.859  69.710  1.00  0.00     0.185 A 
HETATM   23  N5  UNL     1      11.870  35.839  68.741  1.00  0.00    -0.248 N 
HETATM   24  C11 UNL     1      13.110  35.896  68.246  1.00  0.00     0.169 A 
BRANCH  21  25
HETATM   25  O2  UNL     1      13.569  33.319  70.682  1.00  0.00    -0.356 OA
ATOM     26  H2  UNL     1      13.385  33.262  71.612  1.00  0.00     0.218 HD
ENDBRANCH  21  25
BRANCH  22  27
HETATM   27  O3  UNL     1      10.880  34.418  70.527  1.00  0.00    -0.344 OA
ATOM     28  H3  UNL     1      10.031  34.844  70.525  1.00  0.00     0.219 HD
ENDBRANCH  22  27
BRANCH  23  29
HETATM   29  C9  UNL     1      10.666  36.499  68.438  1.00  0.00     0.182 C 
BRANCH  29  30
HETATM   30  O4  UNL     1       9.562  35.804  68.562  1.00  0.00    -0.345 OA
ATOM     31  H4  UNL     1       8.769  36.289  68.758  1.00  0.00     0.219 HD
ENDBRANCH  29  30
BRANCH  29  32
HETATM   32  C10 UNL     1      10.421  37.864  67.993  1.00  0.00     0.331 C 
BRANCH  32  33
HETATM   33  O5  UNL     1       9.419  38.023  67.086  1.00  0.00    -0.364 OA
ATOM     34  H5  UNL     1       8.765  38.678  67.300  1.00  0.00     0.213 HD
ENDBRANCH  32  33
BRANCH  32  35
HETATM   35  O6  UNL     1      11.617  38.377  67.408  1.00  0.00    -0.364 OA
ATOM     36  H6  UNL     1      11.911  39.122  67.919  1.00  0.00     0.213 HD
ENDBRANCH  32  35
ENDBRANCH  29  32
ENDBRANCH  23  29
BRANCH  24  37
HETATM   37  O7  UNL     1      13.546  36.737  67.246  1.00  0.00    -0.345 OA
ATOM     38  H7  UNL     1      13.279  37.648  67.193  1.00  0.00     0.219 HD
ENDBRANCH  24  37
ENDBRANCH  17  20
ENDBRANCH   1  15
BRANCH   1  39
HETATM   39  N6  UNL     1      17.457  32.110  70.759  1.00  0.00    -0.401 N 
ATOM     40  H6  UNL     1      16.764  31.839  71.458  1.00  0.00     0.154 HD
BRANCH  39  41
HETATM   41  C12 UNL     1      18.570  32.911  71.135  1.00  0.00     0.194 C 
BRANCH  41  42
HETATM   42  C13 UNL     1      19.478  32.070  71.985  1.00  0.00     0.130 A 
HETATM   43  N7  UNL     1      19.226  30.815  72.403  1.00  0.00    -0.271 N 
HETATM   44  N8  UNL     1      20.243  30.439  73.129  1.00  0.00    -0.224 N 
ATOM     45  H7  UNL     1      18.395  30.262  72.191  1.00  0.00     0.190 HD
HETATM   46  N9  UNL     1      21.154  31.410  73.200  1.00  0.00    -0.214 N 
ATOM     47  H8  UNL     1      20.329  29.527  73.580  1.00  0.00     0.210 HD
HETATM   48  N10 UNL     1      20.663  32.421  72.482  1.00  0.00    -0.268 N 
ATOM     49  H10 UNL     1      21.123  33.319  72.336  1.00  0.00     0.190 HD
BRANCH  46  50
HETATM   50  C14 UNL     1      22.398  31.389  73.915  1.00  0.00     0.231 C 
BRANCH  50  51
HETATM   51  C15 UNL     1      22.676  32.735  74.555  1.00  0.00     0.275 C 
BRANCH  51  52
HETATM   52  O8  UNL     1      21.518  33.246  75.133  1.00  0.00    -0.370 OA
ATOM     53  H8  UNL     1      21.338  34.118  74.801  1.00  0.00     0.212 HD
ENDBRANCH  51  52
BRANCH  51  54
HETATM   54  O9  UNL     1      23.157  33.587  73.560  1.00  0.00    -0.370 OA
ATOM     55  H9  UNL     1      23.251  34.452  73.941  1.00  0.00     0.212 HD
ENDBRANCH  51  54
ENDBRANCH  50  51
ENDBRANCH  46  50
ENDBRANCH  41  42
ENDBRANCH  39  41
ENDBRANCH   1  39
TORSDOF 19
ENDMDL
MODEL 4
REMARK VINA RESULT: -9.230557923      2.739      9.328
REMARK  19 active torsions:
REMARK  status: ('A' for Active; 'I' for Inactive)
REMARK    1  A    between atoms: N1_1  and  C1_4 
REMARK    2  A    between atoms: C2_9  and  C3_10 
REMARK    3  A    between atoms: C3_10  and  C4_11 
REMARK    4  A    between atoms: C3_10  and  N6_35 
REMARK       I    between atoms: N4_12  and  C5_14 
REMARK    5  A    between atoms: C5_14  and  C6_16 
REMARK    6  A    between atoms: C7_17  and  O2_18 
REMARK    7  A    between atoms: C8_20  and  O3_21 
REMARK    8  A    between atoms: N5_23  and  C9_24 
REMARK    9  A    between atoms: C9_24  and  O4_25 
REMARK   10  A    between atoms: C9_24  and  C10_27 
REMARK   11  A    between atoms: C10_27  and  O5_28 
REMARK   12  A    between atoms: C10_27  and  O6_30 
REMARK   13  A    between atoms: C11_32  and  O7_33 
REMARK   14  A    between atoms: N6_35  and  C12_37 
REMARK   15  A    between atoms: C12_37  and  C13_38 
REMARK   16  A    between atoms: N9_43  and  C14_44 
REMARK   17  A    between atoms: C14_44  and  C15_45 
REMARK   18  A    between atoms: C15_45  and  O8_46 
REMARK   19  A    between atoms: C15_45  and  O9_48 
ROOT
HETATM    1  C3  UNL     1      15.315  32.344  70.687  1.00  0.00     0.171 C 
ENDROOT
BRANCH   1   2
HETATM    2  C2  UNL     1      15.340  31.660  69.382  1.00  0.00     0.095 A 
HETATM    3  N3  UNL     1      15.097  32.393  68.267  1.00  0.00    -0.285 N 
HETATM    4  N2  UNL     1      15.092  31.820  67.086  1.00  0.00    -0.132 N 
ATOM      5  H3  UNL     1      14.917  33.393  68.347  1.00  0.00     0.187 HD
HETATM    6  C1  UNL     1      15.322  30.517  66.958  1.00  0.00     0.691 A 
ATOM      7  H2  UNL     1      14.909  32.383  66.255  1.00  0.00     0.205 HD
HETATM    8  N12 UNL     1      15.568  29.762  68.051  1.00  0.00    -0.176 N 
HETATM    9  C16 UNL     1      15.584  30.306  69.301  1.00  0.00     0.158 A 
ATOM     10  H12 UNL     1      15.745  28.763  67.939  1.00  0.00     0.185 HD
HETATM   11  N11 UNL     1      15.848  29.573  70.472  1.00  0.00    -0.080 NA
BRANCH   6  12
HETATM   12  N1  UNL     1      15.328  29.931  65.831  1.00  0.00    -0.233 N 
ATOM     13  H12 UNL     1      14.898  29.007  65.781  1.00  0.00     0.174 HD
ATOM     14  H11 UNL     1      15.746  30.345  64.998  1.00  0.00     0.174 HD
ENDBRANCH   6  12
ENDBRANCH   1   2
BRANCH   1  15
HETATM   15  C4  UNL     1      16.694  32.712  71.156  1.00  0.00     0.095 C 
HETATM   16  N4  UNL     1      17.773  32.244  70.576  1.00  0.00    -0.334 N 
HETATM   17  C5  UNL     1      19.030  32.656  71.116  1.00  0.00     0.262 C 
ATOM     18  H4  UNL     1      17.717  31.615  69.776  1.00  0.00     0.168 HD
HETATM   19  O1  UNL     1      19.344  33.837  70.905  1.00  0.00    -0.267 OA
BRANCH  17  20
HETATM   20  C6  UNL     1      19.837  31.696  71.869  1.00  0.00     0.121 A 
HETATM   21  C7  UNL     1      19.723  30.341  71.992  1.00  0.00     0.137 A 
HETATM   22  C8  UNL     1      20.688  29.929  72.872  1.00  0.00     0.185 A 
HETATM   23  N5  UNL     1      21.432  30.997  73.325  1.00  0.00    -0.248 N 
HETATM   24  C11 UNL     1      20.907  32.062  72.710  1.00  0.00     0.169 A 
BRANCH  21  25
HETATM   25  O2  UNL     1      18.805  29.505  71.355  1.00  0.00    -0.356 OA
ATOM     26  H2  UNL     1      18.926  28.595  71.110  1.00  0.00     0.218 HD
ENDBRANCH  21  25
BRANCH  22  27
HETATM   27  O3  UNL     1      20.842  28.583  73.217  1.00  0.00    -0.344 OA
ATOM     28  H3  UNL     1      20.959  28.310  74.119  1.00  0.00     0.219 HD
ENDBRANCH  22  27
BRANCH  23  29
HETATM   29  C9  UNL     1      22.456  30.824  74.272  1.00  0.00     0.182 C 
BRANCH  29  30
HETATM   30  O4  UNL     1      22.808  29.591  74.545  1.00  0.00    -0.345 OA
ATOM     31  H4  UNL     1      23.220  29.097  73.846  1.00  0.00     0.219 HD
ENDBRANCH  29  30
BRANCH  29  32
HETATM   32  C10 UNL     1      23.219  31.805  75.032  1.00  0.00     0.331 C 
BRANCH  32  33
HETATM   33  O5  UNL     1      22.562  32.953  75.350  1.00  0.00    -0.364 OA
ATOM     34  H5  UNL     1      23.077  33.750  75.310  1.00  0.00     0.213 HD
ENDBRANCH  32  33
BRANCH  32  35
HETATM   35  O6  UNL     1      24.377  32.165  74.281  1.00  0.00    -0.364 OA
ATOM     36  H6  UNL     1      25.083  31.569  74.504  1.00  0.00     0.213 HD
ENDBRANCH  32  35
ENDBRANCH  29  32
ENDBRANCH  23  29
BRANCH  24  37
HETATM   37  O7  UNL     1      21.325  33.367  72.849  1.00  0.00    -0.345 OA
ATOM     38  H7  UNL     1      22.076  33.714  72.382  1.00  0.00     0.219 HD
ENDBRANCH  24  37
ENDBRANCH  17  20
ENDBRANCH   1  15
BRANCH   1  39
HETATM   39  N6  UNL     1      14.510  33.503  70.780  1.00  0.00    -0.401 N 
ATOM     40  H6  UNL     1      13.622  33.468  71.280  1.00  0.00     0.154 HD
BRANCH  39  41
HETATM   41  C12 UNL     1      14.940  34.718  70.179  1.00  0.00     0.194 C 
BRANCH  41  42
HETATM   42  C13 UNL     1      13.786  35.280  69.400  1.00  0.00     0.130 A 
HETATM   43  N7  UNL     1      13.877  35.979  68.252  1.00  0.00    -0.271 N 
HETATM   44  N8  UNL     1      12.662  36.305  67.902  1.00  0.00    -0.224 N 
ATOM     45  H7  UNL     1      14.735  36.211  67.751  1.00  0.00     0.190 HD
HETATM   46  N9  UNL     1      11.779  35.841  68.786  1.00  0.00    -0.214 N 
ATOM     47  H8  UNL     1      12.422  36.840  67.067  1.00  0.00     0.210 HD
HETATM   48  N10 UNL     1      12.493  35.204  69.714  1.00  0.00    -0.268 N 
ATOM     49  H10 UNL     1      12.112  34.733  70.534  1.00  0.00     0.190 HD
BRANCH  46  50
HETATM   50  C14 UNL     1      10.353  36.004  68.763  1.00  0.00     0.231 C 
BRANCH  50  51
HETATM   51  C15 UNL     1       9.743  35.605  70.093  1.00  0.00     0.275 C 
BRANCH  51  52
HETATM   52  O8  UNL     1       9.857  34.232  70.288  1.00  0.00    -0.370 OA
ATOM     53  H8  UNL     1       9.679  34.010  71.194  1.00  0.00     0.212 HD
ENDBRANCH  51  52
BRANCH  51  54
HETATM   54  O9  UNL     1       8.404  36.000  70.081  1.00  0.00    -0.370 OA
ATOM     55  H9  UNL     1       8.362  36.864  69.687  1.00  0.00     0.212 HD
ENDBRANCH  51  54
ENDBRANCH  50  51
ENDBRANCH  46  50
ENDBRANCH  41  42
ENDBRANCH  39  41
ENDBRANCH   1  39
TORSDOF 19
ENDMDL
MODEL 5
REMARK VINA RESULT: -9.177225891      3.553      8.133
REMARK  19 active torsions:
REMARK  status: ('A' for Active; 'I' for Inactive)
REMARK    1  A    between atoms: N1_1  and  C1_4 
REMARK    2  A    between atoms: C2_9  and  C3_10 
REMARK    3  A    between atoms: C3_10  and  C4_11 
REMARK    4  A    between atoms: C3_10  and  N6_35 
REMARK       I    between atoms: N4_12  and  C5_14 
REMARK    5  A    between atoms: C5_14  and  C6_16 
REMARK    6  A    between atoms: C7_17  and  O2_18 
REMARK    7  A    between atoms: C8_20  and  O3_21 
REMARK    8  A    between atoms: N5_23  and  C9_24 
REMARK    9  A    between atoms: C9_24  and  O4_25 
REMARK   10  A    between atoms: C9_24  and  C10_27 
REMARK   11  A    between atoms: C10_27  and  O5_28 
REMARK   12  A    between atoms: C10_27  and  O6_30 
REMARK   13  A    between atoms: C11_32  and  O7_33 
REMARK   14  A    between atoms: N6_35  and  C12_37 
REMARK   15  A    between atoms: C12_37  and  C13_38 
REMARK   16  A    between atoms: N9_43  and  C14_44 
REMARK   17  A    between atoms: C14_44  and  C15_45 
REMARK   18  A    between atoms: C15_45  and  O8_46 
REMARK   19  A    between atoms: C15_45  and  O9_48 
ROOT
HETATM    1  C3  UNL     1      14.288  34.092  68.438  1.00  0.00     0.171 C 
ENDROOT
BRANCH   1   2
HETATM    2  C2  UNL     1      13.018  34.699  68.872  1.00  0.00     0.095 A 
HETATM    3  N3  UNL     1      12.393  34.178  69.957  1.00  0.00    -0.285 N 
HETATM    4  N2  UNL     1      11.251  34.677  70.367  1.00  0.00    -0.132 N 
ATOM      5  H3  UNL     1      12.813  33.395  70.457  1.00  0.00     0.187 HD
HETATM    6  C1  UNL     1      10.683  35.697  69.730  1.00  0.00     0.691 A 
ATOM      7  H2  UNL     1      10.792  34.277  71.186  1.00  0.00     0.205 HD
HETATM    8  N12 UNL     1      11.282  36.237  68.646  1.00  0.00    -0.176 N 
HETATM    9  C16 UNL     1      12.469  35.756  68.178  1.00  0.00     0.158 A 
ATOM     10  H12 UNL     1      10.837  37.020  68.168  1.00  0.00     0.185 HD
HETATM   11  N11 UNL     1      13.145  36.287  67.065  1.00  0.00    -0.080 NA
BRANCH   6  12
HETATM   12  N1  UNL     1       9.580  36.207  70.101  1.00  0.00    -0.233 N 
ATOM     13  H12 UNL     1       9.451  36.366  71.101  1.00  0.00     0.174 HD
ATOM     14  H11 UNL     1       8.838  36.451  69.445  1.00  0.00     0.174 HD
ENDBRANCH   6  12
ENDBRANCH   1   2
BRANCH   1  15
HETATM   15  C4  UNL     1      15.322  34.111  69.527  1.00  0.00     0.095 C 
HETATM   16  N4  UNL     1      16.589  33.867  69.286  1.00  0.00    -0.334 N 
HETATM   17  C5  UNL     1      17.479  33.902  70.402  1.00  0.00     0.262 C 
ATOM     18  H4  UNL     1      16.922  33.661  68.345  1.00  0.00     0.168 HD
HETATM   19  O1  UNL     1      17.713  35.028  70.868  1.00  0.00    -0.267 OA
BRANCH  17  20
HETATM   20  C6  UNL     1      18.034  32.651  70.918  1.00  0.00     0.121 A 
HETATM   21  C7  UNL     1      17.524  31.384  70.917  1.00  0.00     0.137 A 
HETATM   22  C8  UNL     1      18.411  30.587  71.590  1.00  0.00     0.185 A 
HETATM   23  N5  UNL     1      19.494  31.316  72.032  1.00  0.00    -0.248 N 
HETATM   24  C11 UNL     1      19.254  32.565  71.619  1.00  0.00     0.169 A 
BRANCH  21  25
HETATM   25  O2  UNL     1      16.327  30.952  70.345  1.00  0.00    -0.356 OA
ATOM     26  H2  UNL     1      16.107  30.073  70.061  1.00  0.00     0.218 HD
ENDBRANCH  21  25
BRANCH  22  27
HETATM   27  O3  UNL     1      18.183  29.219  71.766  1.00  0.00    -0.344 OA
ATOM     28  H3  UNL     1      18.492  28.577  71.139  1.00  0.00     0.219 HD
ENDBRANCH  22  27
BRANCH  23  29
HETATM   29  C9  UNL     1      20.518  30.718  72.787  1.00  0.00     0.182 C 
BRANCH  29  30
HETATM   30  O4  UNL     1      20.843  31.303  73.914  1.00  0.00    -0.345 OA
ATOM     31  H4  UNL     1      21.416  32.058  73.856  1.00  0.00     0.219 HD
ENDBRANCH  29  30
BRANCH  29  32
HETATM   32  C10 UNL     1      21.311  29.524  72.528  1.00  0.00     0.331 C 
BRANCH  32  33
HETATM   33  O5  UNL     1      21.437  29.165  71.222  1.00  0.00    -0.364 OA
ATOM     34  H5  UNL     1      21.694  29.858  70.624  1.00  0.00     0.213 HD
ENDBRANCH  32  33
BRANCH  32  35
HETATM   35  O6  UNL     1      20.723  28.425  73.222  1.00  0.00    -0.364 OA
ATOM     36  H6  UNL     1      21.394  27.999  73.743  1.00  0.00     0.213 HD
ENDBRANCH  32  35
ENDBRANCH  29  32
ENDBRANCH  23  29
BRANCH  24  37
HETATM   37  O7  UNL     1      20.067  33.658  71.826  1.00  0.00    -0.345 OA
ATOM     38  H7  UNL     1      20.615  33.747  72.597  1.00  0.00     0.219 HD
ENDBRANCH  24  37
ENDBRANCH  17  20
ENDBRANCH   1  15
BRANCH   1  39
HETATM   39  N6  UNL     1      14.222  32.772  67.938  1.00  0.00    -0.401 N 
ATOM     40  H6  UNL     1      13.410  32.189  68.142  1.00  0.00     0.154 HD
BRANCH  39  41
HETATM   41  C12 UNL     1      15.287  32.255  67.150  1.00  0.00     0.194 C 
BRANCH  41  42
HETATM   42  C13 UNL     1      15.163  30.758  67.130  1.00  0.00     0.130 A 
HETATM   43  N7  UNL     1      14.905  30.004  66.044  1.00  0.00    -0.271 N 
HETATM   44  N8  UNL     1      14.857  28.762  66.440  1.00  0.00    -0.224 N 
ATOM     45  H7  UNL     1      14.772  30.342  65.091  1.00  0.00     0.190 HD
HETATM   46  N9  UNL     1      15.074  28.679  67.754  1.00  0.00    -0.214 N 
ATOM     47  H8  UNL     1      14.677  27.964  65.830  1.00  0.00     0.210 HD
HETATM   48  N10 UNL     1      15.263  29.931  68.170  1.00  0.00    -0.268 N 
ATOM     49  H10 UNL     1      15.455  30.212  69.131  1.00  0.00     0.190 HD
BRANCH  46  50
HETATM   50  C14 UNL     1      15.085  27.494  68.563  1.00  0.00     0.231 C 
BRANCH  50  51
HETATM   51  C15 UNL     1      16.497  27.151  68.998  1.00  0.00     0.275 C 
BRANCH  51  52
HETATM   52  O8  UNL     1      17.162  28.292  69.435  1.00  0.00    -0.370 OA
ATOM     53  H8  UNL     1      17.301  28.255  70.374  1.00  0.00     0.212 HD
ENDBRANCH  51  52
BRANCH  51  54
HETATM   54  O9  UNL     1      17.149  26.578  67.905  1.00  0.00    -0.370 OA
ATOM     55  H9  UNL     1      17.313  25.666  68.113  1.00  0.00     0.212 HD
ENDBRANCH  51  54
ENDBRANCH  50  51
ENDBRANCH  46  50
ENDBRANCH  41  42
ENDBRANCH  39  41
ENDBRANCH   1  39
TORSDOF 19
ENDMDL
