MODEL 1
REMARK VINA RESULT: -8.936798209      0.000      0.000
REMARK  18 active torsions:
REMARK  status: ('A' for Active; 'I' for Inactive)
REMARK    1  A    between atoms: N1_1  and  C1_4 
REMARK    2  A    between atoms: C2_8  and  O2_9 
REMARK    3  A    between atoms: C3_11  and  N3_12 
REMARK    4  A    between atoms: N3_12  and  C4_14 
REMARK    5  A    between atoms: C4_14  and  C5_15 
REMARK    6  A    between atoms: C4_14  and  C9_33 
REMARK    7  A    between atoms: C5_15  and  O3_16 
REMARK    8  A    between atoms: O3_16  and  N4_17 
REMARK    9  A    between atoms: C6_22  and  C7_23 
REMARK   10  A    between atoms: C7_23  and  O4_24 
REMARK   11  A    between atoms: C7_23  and  C8_26 
REMARK   12  A    between atoms: C8_26  and  O5_27 
REMARK   13  A    between atoms: C8_26  and  O6_29 
REMARK   14  A    between atoms: C10_34  and  O7_35 
REMARK   15  A    between atoms: N8_37  and  C11_38 
REMARK   16  A    between atoms: C11_38  and  O8_39 
REMARK   17  A    between atoms: C11_38  and  O9_41 
REMARK   18  A    between atoms: C14_49  and  N11_50 
ROOT
HETATM    1  C4  UNL     1      17.301  33.523  70.240  1.00  0.00     0.055 C 
ENDROOT
BRANCH   1   2
HETATM    2  N3  UNL     1      16.363  34.374  70.619  1.00  0.00    -0.350 N 
ATOM      3  H3  UNL     1      16.124  34.454  71.607  1.00  0.00     0.166 HD
BRANCH   2   4
HETATM    4  C3  UNL     1      15.686  35.175  69.670  1.00  0.00     0.139 A 
HETATM    5  C1  UNL     1      14.348  35.102  69.355  1.00  0.00     0.151 A 
HETATM    6  N2  UNL     1      14.141  36.039  68.413  1.00  0.00    -0.240 N 
HETATM    7  O1  UNL     1      15.262  36.647  68.162  1.00  0.00    -0.208 OA
ATOM      8  H2  UNL     1      13.246  36.240  67.967  1.00  0.00     0.196 HD
HETATM    9  C2  UNL     1      16.234  36.169  68.891  1.00  0.00     0.235 A 
BRANCH   5  10
HETATM   10  N1  UNL     1      13.461  34.285  69.872  1.00  0.00    -0.382 N 
ATOM     11  H12 UNL     1      12.993  33.511  69.399  1.00  0.00     0.157 HD
ATOM     12  H11 UNL     1      13.096  34.289  70.824  1.00  0.00     0.157 HD
ENDBRANCH   5  10
BRANCH   9  13
HETATM   13  O2  UNL     1      17.584  36.579  68.892  1.00  0.00    -0.338 OA
ATOM     14  H2  UNL     1      18.281  36.267  69.458  1.00  0.00     0.220 HD
ENDBRANCH   9  13
ENDBRANCH   2   4
ENDBRANCH   1   2
BRANCH   1  15
HETATM   15  C5  UNL     1      18.724  33.876  70.389  1.00  0.00     0.263 C 
BRANCH  15  16
HETATM   16  O3  UNL     1      19.057  34.274  71.702  1.00  0.00    -0.236 OA
BRANCH  16  17
HETATM   17  N4  UNL     1      19.990  33.649  72.470  1.00  0.00    -0.076 N 
HETATM   18  N5  UNL     1      20.583  34.078  73.553  1.00  0.00    -0.199 N 
HETATM   19  N6  UNL     1      21.413  33.155  73.973  1.00  0.00    -0.268 N 
ATOM     20  H5  UNL     1      20.425  34.982  73.999  1.00  0.00     0.212 HD
HETATM   21  C6  UNL     1      21.352  32.109  73.142  1.00  0.00     0.149 A 
ATOM     22  H6  UNL     1      22.008  33.223  74.799  1.00  0.00     0.190 HD
HETATM   23  N7  UNL     1      20.454  32.447  72.210  1.00  0.00    -0.242 N 
ATOM     24  H7  UNL     1      20.173  31.863  71.422  1.00  0.00     0.192 HD
BRANCH  21  25
HETATM   25  C7  UNL     1      22.093  30.824  73.182  1.00  0.00     0.243 C 
BRANCH  25  26
HETATM   26  O4  UNL     1      22.477  30.511  74.482  1.00  0.00    -0.383 OA
ATOM     27  H4  UNL     1      22.730  29.598  74.553  1.00  0.00     0.210 HD
ENDBRANCH  25  26
BRANCH  25  28
HETATM   28  C8  UNL     1      21.231  29.732  72.607  1.00  0.00     0.290 C 
BRANCH  28  29
HETATM   29  O5  UNL     1      19.941  29.778  73.108  1.00  0.00    -0.368 OA
ATOM     30  H5  UNL     1      19.314  30.042  72.445  1.00  0.00     0.212 HD
ENDBRANCH  28  29
BRANCH  28  31
HETATM   31  O6  UNL     1      21.198  29.924  71.221  1.00  0.00    -0.368 OA
ATOM     32  H6  UNL     1      21.270  29.066  70.820  1.00  0.00     0.212 HD
ENDBRANCH  28  31
ENDBRANCH  25  28
ENDBRANCH  21  25
ENDBRANCH  16  17
ENDBRANCH  15  16
ENDBRANCH   1  15
BRANCH   1  33
HETATM   33  C9  UNL     1      16.900  32.233  69.700  1.00  0.00     0.091 A 
HETATM   34  C10 UNL     1      17.354  31.082  70.354  1.00  0.00     0.164 A 
HETATM   35  N8  UNL     1      17.040  29.860  69.955  1.00  0.00    -0.261 N 
HETATM   36  C12 UNL     1      16.250  29.688  68.875  1.00  0.00     0.132 A 
HETATM   37  N9  UNL     1      15.916  28.450  68.448  1.00  0.00    -0.337 N 
HETATM   38  C15 UNL     1      15.752  30.757  68.162  1.00  0.00     0.103 A 
HETATM   39  C13 UNL     1      15.124  28.257  67.363  1.00  0.00     0.183 A 
ATOM     40  H9  UNL     1      16.270  27.639  68.954  1.00  0.00     0.168 HD
HETATM   41  N10 UNL     1      14.654  29.327  66.689  1.00  0.00    -0.338 N 
HETATM   42  C14 UNL     1      14.944  30.589  67.057  1.00  0.00     0.117 A 
ATOM     43  H10 UNL     1      14.058  29.175  65.875  1.00  0.00     0.168 HD
HETATM   44  C16 UNL     1      16.101  32.038  68.608  1.00  0.00     0.206 A 
HETATM   45  O10 UNL     1      15.645  33.011  67.960  1.00  0.00    -0.286 OA
BRANCH  34  46
HETATM   46  O7  UNL     1      18.181  31.188  71.488  1.00  0.00    -0.345 OA
ATOM     47  H7  UNL     1      17.950  31.776  72.198  1.00  0.00     0.219 HD
ENDBRANCH  34  46
BRANCH  35  48
HETATM   48  C11 UNL     1      17.538  28.697  70.669  1.00  0.00     0.375 C 
BRANCH  48  49
HETATM   49  O8  UNL     1      17.269  28.907  72.020  1.00  0.00    -0.354 OA
ATOM     50  H8  UNL     1      16.326  28.856  72.125  1.00  0.00     0.214 HD
ENDBRANCH  48  49
BRANCH  48  51
HETATM   51  O9  UNL     1      18.913  28.552  70.503  1.00  0.00    -0.354 OA
ATOM     52  H9  UNL     1      19.274  27.941  71.135  1.00  0.00     0.214 HD
ENDBRANCH  48  51
ENDBRANCH  35  48
BRANCH  42  53
HETATM   53  N11 UNL     1      14.504  31.631  66.423  1.00  0.00    -0.385 N 
ATOM     54 2H11 UNL     1      13.500  31.813  66.393  1.00  0.00     0.157 HD
ATOM     55 1H11 UNL     1      15.115  32.292  65.944  1.00  0.00     0.157 HD
ENDBRANCH  42  53
ENDBRANCH   1  33
TORSDOF 18
ENDMDL
MODEL 2
REMARK VINA RESULT: -8.787586664      2.808      7.263
REMARK  18 active torsions:
REMARK  status: ('A' for Active; 'I' for Inactive)
REMARK    1  A    between atoms: N1_1  and  C1_4 
REMARK    2  A    between atoms: C2_8  and  O2_9 
REMARK    3  A    between atoms: C3_11  and  N3_12 
REMARK    4  A    between atoms: N3_12  and  C4_14 
REMARK    5  A    between atoms: C4_14  and  C5_15 
REMARK    6  A    between atoms: C4_14  and  C9_33 
REMARK    7  A    between atoms: C5_15  and  O3_16 
REMARK    8  A    between atoms: O3_16  and  N4_17 
REMARK    9  A    between atoms: C6_22  and  C7_23 
REMARK   10  A    between atoms: C7_23  and  O4_24 
REMARK   11  A    between atoms: C7_23  and  C8_26 
REMARK   12  A    between atoms: C8_26  and  O5_27 
REMARK   13  A    between atoms: C8_26  and  O6_29 
REMARK   14  A    between atoms: C10_34  and  O7_35 
REMARK   15  A    between atoms: N8_37  and  C11_38 
REMARK   16  A    between atoms: C11_38  and  O8_39 
REMARK   17  A    between atoms: C11_38  and  O9_41 
REMARK   18  A    between atoms: C14_49  and  N11_50 
ROOT
HETATM    1  C4  UNL     1      14.702  34.472  69.192  1.00  0.00     0.055 C 
ENDROOT
BRANCH   1   2
HETATM    2  N3  UNL     1      15.251  34.480  70.395  1.00  0.00    -0.350 N 
ATOM      3  H3  UNL     1      14.790  34.977  71.157  1.00  0.00     0.166 HD
BRANCH   2   4
HETATM    4  C3  UNL     1      16.471  33.806  70.638  1.00  0.00     0.139 A 
HETATM    5  C1  UNL     1      16.610  32.574  71.237  1.00  0.00     0.151 A 
HETATM    6  N2  UNL     1      17.932  32.327  71.262  1.00  0.00    -0.240 N 
HETATM    7  O1  UNL     1      18.564  33.325  70.721  1.00  0.00    -0.208 OA
ATOM      8  H2  UNL     1      18.368  31.488  71.645  1.00  0.00     0.196 HD
HETATM    9  C2  UNL     1      17.735  34.251  70.323  1.00  0.00     0.235 A 
BRANCH   5  10
HETATM   10  N1  UNL     1      15.649  31.805  71.689  1.00  0.00    -0.382 N 
ATOM     11  H12 UNL     1      15.590  30.790  71.613  1.00  0.00     0.157 HD
ATOM     12  H11 UNL     1      14.807  32.096  72.186  1.00  0.00     0.157 HD
ENDBRANCH   5  10
BRANCH   9  13
HETATM   13  O2  UNL     1      18.054  35.474  69.694  1.00  0.00    -0.338 OA
ATOM     14  H2  UNL     1      17.728  35.797  68.862  1.00  0.00     0.220 HD
ENDBRANCH   9  13
ENDBRANCH   2   4
ENDBRANCH   1   2
BRANCH   1  15
HETATM   15  C5  UNL     1      15.380  33.793  68.073  1.00  0.00     0.263 C 
BRANCH  15  16
HETATM   16  O3  UNL     1      14.597  32.768  67.498  1.00  0.00    -0.236 OA
BRANCH  16  17
HETATM   17  N4  UNL     1      14.932  31.449  67.533  1.00  0.00    -0.076 N 
HETATM   18  N5  UNL     1      14.961  30.584  66.553  1.00  0.00    -0.199 N 
HETATM   19  N6  UNL     1      15.341  29.423  67.028  1.00  0.00    -0.268 N 
ATOM     20  H5  UNL     1      14.728  30.779  65.580  1.00  0.00     0.212 HD
HETATM   21  C6  UNL     1      15.560  29.545  68.342  1.00  0.00     0.149 A 
ATOM     22  H6  UNL     1      15.450  28.566  66.486  1.00  0.00     0.190 HD
HETATM   23  N7  UNL     1      15.297  30.824  68.630  1.00  0.00    -0.242 N 
ATOM     24  H7  UNL     1      15.367  31.247  69.556  1.00  0.00     0.192 HD
BRANCH  21  25
HETATM   25  C7  UNL     1      16.001  28.524  69.327  1.00  0.00     0.243 C 
BRANCH  25  26
HETATM   26  O4  UNL     1      16.088  27.268  68.737  1.00  0.00    -0.383 OA
ATOM     27  H4  UNL     1      15.776  26.592  69.327  1.00  0.00     0.210 HD
ENDBRANCH  25  26
BRANCH  25  28
HETATM   28  C8  UNL     1      17.329  28.931  69.906  1.00  0.00     0.290 C 
BRANCH  28  29
HETATM   29  O5  UNL     1      17.844  30.051  69.275  1.00  0.00    -0.368 OA
ATOM     30  H5  UNL     1      18.780  30.137  69.417  1.00  0.00     0.212 HD
ENDBRANCH  28  29
BRANCH  28  31
HETATM   31  O6  UNL     1      17.115  29.218  71.260  1.00  0.00    -0.368 OA
ATOM     32  H6  UNL     1      17.563  28.546  71.760  1.00  0.00     0.212 HD
ENDBRANCH  28  31
ENDBRANCH  25  28
ENDBRANCH  21  25
ENDBRANCH  16  17
ENDBRANCH  15  16
ENDBRANCH   1  15
BRANCH   1  33
HETATM   33  C9  UNL     1      13.414  35.122  69.007  1.00  0.00     0.091 A 
HETATM   34  C10 UNL     1      13.325  36.130  68.040  1.00  0.00     0.164 A 
HETATM   35  N8  UNL     1      12.200  36.779  67.782  1.00  0.00    -0.261 N 
HETATM   36  C12 UNL     1      11.078  36.475  68.465  1.00  0.00     0.132 A 
HETATM   37  N9  UNL     1       9.918  37.123  68.221  1.00  0.00    -0.337 N 
HETATM   38  C15 UNL     1      11.061  35.499  69.438  1.00  0.00     0.103 A 
HETATM   39  C13 UNL     1       8.778  36.833  68.898  1.00  0.00     0.183 A 
ATOM     40  H9  UNL     1       9.898  37.852  67.508  1.00  0.00     0.168 HD
HETATM   41  N10 UNL     1       8.799  35.870  69.844  1.00  0.00    -0.338 N 
HETATM   42  C14 UNL     1       9.918  35.183  70.142  1.00  0.00     0.117 A 
ATOM     43  H10 UNL     1       7.939  35.656  70.350  1.00  0.00     0.168 HD
HETATM   44  C16 UNL     1      12.266  34.830  69.688  1.00  0.00     0.206 A 
HETATM   45  O10 UNL     1      12.250  33.939  70.572  1.00  0.00    -0.286 OA
BRANCH  34  46
HETATM   46  O7  UNL     1      14.457  36.498  67.288  1.00  0.00    -0.345 OA
ATOM     47  H7  UNL     1      14.763  37.397  67.288  1.00  0.00     0.219 HD
ENDBRANCH  34  46
BRANCH  35  48
HETATM   48  C11 UNL     1      12.160  37.817  66.767  1.00  0.00     0.375 C 
BRANCH  48  49
HETATM   49  O8  UNL     1      11.486  38.902  67.327  1.00  0.00    -0.354 OA
ATOM     50  H8  UNL     1      12.098  39.334  67.913  1.00  0.00     0.214 HD
ENDBRANCH  48  49
BRANCH  48  51
HETATM   51  O9  UNL     1      11.466  37.394  65.637  1.00  0.00    -0.354 OA
ATOM     52  H9  UNL     1      11.783  37.831  64.854  1.00  0.00     0.214 HD
ENDBRANCH  48  51
ENDBRANCH  35  48
BRANCH  42  53
HETATM   53  N11 UNL     1       9.960  34.255  71.046  1.00  0.00    -0.385 N 
ATOM     54 2H11 UNL     1       9.554  34.431  71.965  1.00  0.00     0.157 HD
ATOM     55 1H11 UNL     1      10.383  33.341  70.888  1.00  0.00     0.157 HD
ENDBRANCH  42  53
ENDBRANCH   1  33
TORSDOF 18
ENDMDL
MODEL 3
REMARK VINA RESULT: -8.707894279      1.001      1.594
REMARK  18 active torsions:
REMARK  status: ('A' for Active; 'I' for Inactive)
REMARK    1  A    between atoms: N1_1  and  C1_4 
REMARK    2  A    between atoms: C2_8  and  O2_9 
REMARK    3  A    between atoms: C3_11  and  N3_12 
REMARK    4  A    between atoms: N3_12  and  C4_14 
REMARK    5  A    between atoms: C4_14  and  C5_15 
REMARK    6  A    between atoms: C4_14  and  C9_33 
REMARK    7  A    between atoms: C5_15  and  O3_16 
REMARK    8  A    between atoms: O3_16  and  N4_17 
REMARK    9  A    between atoms: C6_22  and  C7_23 
REMARK   10  A    between atoms: C7_23  and  O4_24 
REMARK   11  A    between atoms: C7_23  and  C8_26 
REMARK   12  A    between atoms: C8_26  and  O5_27 
REMARK   13  A    between atoms: C8_26  and  O6_29 
REMARK   14  A    between atoms: C10_34  and  O7_35 
REMARK   15  A    between atoms: N8_37  and  C11_38 
REMARK   16  A    between atoms: C11_38  and  O8_39 
REMARK   17  A    between atoms: C11_38  and  O9_41 
REMARK   18  A    between atoms: C14_49  and  N11_50 
ROOT
HETATM    1  C4  UNL     1      17.004  33.706  70.117  1.00  0.00     0.055 C 
ENDROOT
BRANCH   1   2
HETATM    2  N3  UNL     1      16.030  34.506  70.516  1.00  0.00    -0.350 N 
ATOM      3  H3  UNL     1      15.791  34.555  71.506  1.00  0.00     0.166 HD
BRANCH   2   4
HETATM    4  C3  UNL     1      15.315  35.296  69.586  1.00  0.00     0.139 A 
HETATM    5  C1  UNL     1      13.966  35.216  69.322  1.00  0.00     0.151 A 
HETATM    6  N2  UNL     1      13.721  36.143  68.380  1.00  0.00    -0.240 N 
HETATM    7  O1  UNL     1      14.829  36.752  68.081  1.00  0.00    -0.208 OA
ATOM      8  H2  UNL     1      12.810  36.336  67.965  1.00  0.00     0.196 HD
HETATM    9  C2  UNL     1      15.830  36.285  68.778  1.00  0.00     0.235 A 
BRANCH   5  10
HETATM   10  N1  UNL     1      13.103  34.400  69.879  1.00  0.00    -0.382 N 
ATOM     11  H12 UNL     1      12.270  34.659  70.408  1.00  0.00     0.157 HD
ATOM     12  H11 UNL     1      13.124  33.381  69.875  1.00  0.00     0.157 HD
ENDBRANCH   5  10
BRANCH   9  13
HETATM   13  O2  UNL     1      17.178  36.699  68.725  1.00  0.00    -0.338 OA
ATOM     14  H2  UNL     1      17.670  37.149  69.401  1.00  0.00     0.220 HD
ENDBRANCH   9  13
ENDBRANCH   2   4
ENDBRANCH   1   2
BRANCH   1  15
HETATM   15  C5  UNL     1      18.399  34.181  70.120  1.00  0.00     0.263 C 
BRANCH  15  16
HETATM   16  O3  UNL     1      18.965  34.218  71.413  1.00  0.00    -0.236 OA
BRANCH  16  17
HETATM   17  N4  UNL     1      19.794  33.258  71.906  1.00  0.00    -0.076 N 
HETATM   18  N5  UNL     1      20.131  32.112  71.373  1.00  0.00    -0.199 N 
HETATM   19  N6  UNL     1      20.953  31.495  72.186  1.00  0.00    -0.268 N 
ATOM     20  H5  UNL     1      19.808  31.757  70.473  1.00  0.00     0.212 HD
HETATM   21  C6  UNL     1      21.148  32.261  73.266  1.00  0.00     0.149 A 
ATOM     22  H6  UNL     1      21.374  30.581  72.024  1.00  0.00     0.190 HD
HETATM   23  N7  UNL     1      20.410  33.358  73.063  1.00  0.00    -0.242 N 
ATOM     24  H7  UNL     1      20.337  34.148  73.704  1.00  0.00     0.192 HD
BRANCH  21  25
HETATM   25  C7  UNL     1      21.986  32.011  74.465  1.00  0.00     0.243 C 
BRANCH  25  26
HETATM   26  O4  UNL     1      22.369  30.675  74.535  1.00  0.00    -0.383 OA
ATOM     27  H4  UNL     1      21.918  30.229  75.242  1.00  0.00     0.210 HD
ENDBRANCH  25  26
BRANCH  25  28
HETATM   28  C8  UNL     1      23.195  32.907  74.425  1.00  0.00     0.290 C 
BRANCH  28  29
HETATM   29  O5  UNL     1      24.373  32.181  74.415  1.00  0.00    -0.368 OA
ATOM     30  H5  UNL     1      25.032  32.585  73.863  1.00  0.00     0.212 HD
ENDBRANCH  28  29
BRANCH  28  31
HETATM   31  O6  UNL     1      23.104  33.664  73.251  1.00  0.00    -0.368 OA
ATOM     32  H6  UNL     1      22.815  34.533  73.503  1.00  0.00     0.212 HD
ENDBRANCH  28  31
ENDBRANCH  25  28
ENDBRANCH  21  25
ENDBRANCH  16  17
ENDBRANCH  15  16
ENDBRANCH   1  15
BRANCH   1  33
HETATM   33  C9  UNL     1      16.672  32.352  69.703  1.00  0.00     0.091 A 
HETATM   34  C10 UNL     1      17.050  31.301  70.546  1.00  0.00     0.164 A 
HETATM   35  N8  UNL     1      16.788  30.032  70.272  1.00  0.00    -0.261 N 
HETATM   36  C12 UNL     1      16.131  29.712  69.138  1.00  0.00     0.132 A 
HETATM   37  N9  UNL     1      15.853  28.425  68.836  1.00  0.00    -0.337 N 
HETATM   38  C15 UNL     1      15.717  30.674  68.242  1.00  0.00     0.103 A 
HETATM   39  C13 UNL     1      15.193  28.082  67.700  1.00  0.00     0.183 A 
ATOM     40  H9  UNL     1      16.147  27.690  69.479  1.00  0.00     0.168 HD
HETATM   41  N10 UNL     1      14.802  29.051  66.846  1.00  0.00    -0.338 N 
HETATM   42  C14 UNL     1      15.044  30.354  67.081  1.00  0.00     0.117 A 
ATOM     43  H10 UNL     1      14.307  28.787  65.994  1.00  0.00     0.168 HD
HETATM   44  C16 UNL     1      16.008  32.007  68.560  1.00  0.00     0.206 A 
HETATM   45  O10 UNL     1      15.628  32.882  67.745  1.00  0.00    -0.286 OA
BRANCH  34  46
HETATM   46  O7  UNL     1      17.738  31.562  71.746  1.00  0.00    -0.345 OA
ATOM     47  H7  UNL     1      17.575  31.033  72.518  1.00  0.00     0.219 HD
ENDBRANCH  34  46
BRANCH  35  48
HETATM   48  C11 UNL     1      17.202  28.977  71.181  1.00  0.00     0.375 C 
BRANCH  48  49
HETATM   49  O8  UNL     1      18.299  29.463  71.890  1.00  0.00    -0.354 OA
ATOM     50  H8  UNL     1      18.844  28.714  72.103  1.00  0.00     0.214 HD
ENDBRANCH  48  49
BRANCH  48  51
HETATM   51  O9  UNL     1      17.589  27.834  70.486  1.00  0.00    -0.354 OA
ATOM     52  H9  UNL     1      17.818  27.130  71.081  1.00  0.00     0.214 HD
ENDBRANCH  48  51
ENDBRANCH  35  48
BRANCH  42  53
HETATM   53  N11 UNL     1      14.678  31.300  66.274  1.00  0.00    -0.385 N 
ATOM     54 2H11 UNL     1      14.648  31.120  65.270  1.00  0.00     0.157 HD
ATOM     55 1H11 UNL     1      14.411  32.231  66.591  1.00  0.00     0.157 HD
ENDBRANCH  42  53
ENDBRANCH   1  33
TORSDOF 18
ENDMDL
MODEL 4
REMARK VINA RESULT: -8.585192059      2.872      7.398
REMARK  18 active torsions:
REMARK  status: ('A' for Active; 'I' for Inactive)
REMARK    1  A    between atoms: N1_1  and  C1_4 
REMARK    2  A    between atoms: C2_8  and  O2_9 
REMARK    3  A    between atoms: C3_11  and  N3_12 
REMARK    4  A    between atoms: N3_12  and  C4_14 
REMARK    5  A    between atoms: C4_14  and  C5_15 
REMARK    6  A    between atoms: C4_14  and  C9_33 
REMARK    7  A    between atoms: C5_15  and  O3_16 
REMARK    8  A    between atoms: O3_16  and  N4_17 
REMARK    9  A    between atoms: C6_22  and  C7_23 
REMARK   10  A    between atoms: C7_23  and  O4_24 
REMARK   11  A    between atoms: C7_23  and  C8_26 
REMARK   12  A    between atoms: C8_26  and  O5_27 
REMARK   13  A    between atoms: C8_26  and  O6_29 
REMARK   14  A    between atoms: C10_34  and  O7_35 
REMARK   15  A    between atoms: N8_37  and  C11_38 
REMARK   16  A    between atoms: C11_38  and  O8_39 
REMARK   17  A    between atoms: C11_38  and  O9_41 
REMARK   18  A    between atoms: C14_49  and  N11_50 
ROOT
HETATM    1  C4  UNL     1      14.560  34.456  69.221  1.00  0.00     0.055 C 
ENDROOT
BRANCH   1   2
HETATM    2  N3  UNL     1      15.059  34.423  70.445  1.00  0.00    -0.350 N 
ATOM      3  H3  UNL     1      14.621  34.974  71.183  1.00  0.00     0.166 HD
BRANCH   2   4
HETATM    4  C3  UNL     1      16.193  33.631  70.743  1.00  0.00     0.139 A 
HETATM    5  C1  UNL     1      17.507  33.998  70.561  1.00  0.00     0.151 A 
HETATM    6  N2  UNL     1      18.241  32.949  70.974  1.00  0.00    -0.240 N 
HETATM    7  O1  UNL     1      17.446  32.006  71.382  1.00  0.00    -0.208 OA
ATOM      8  H2  UNL     1      19.260  32.903  70.968  1.00  0.00     0.196 HD
HETATM    9  C2  UNL     1      16.194  32.359  71.268  1.00  0.00     0.235 A 
BRANCH   5  10
HETATM   10  N1  UNL     1      17.947  35.136  70.081  1.00  0.00    -0.382 N 
ATOM     11  H12 UNL     1      17.453  36.029  70.070  1.00  0.00     0.157 HD
ATOM     12  H11 UNL     1      18.850  35.315  69.641  1.00  0.00     0.157 HD
ENDBRANCH   5  10
BRANCH   9  13
HETATM   13  O2  UNL     1      15.055  31.598  71.610  1.00  0.00    -0.338 OA
ATOM     14  H2  UNL     1      14.148  31.880  71.598  1.00  0.00     0.220 HD
ENDBRANCH   9  13
ENDBRANCH   2   4
ENDBRANCH   1   2
BRANCH   1  15
HETATM   15  C5  UNL     1      15.276  33.801  68.112  1.00  0.00     0.263 C 
BRANCH  15  16
HETATM   16  O3  UNL     1      14.543  32.741  67.535  1.00  0.00    -0.236 OA
BRANCH  16  17
HETATM   17  N4  UNL     1      14.944  31.440  67.560  1.00  0.00    -0.076 N 
HETATM   18  N5  UNL     1      15.088  30.606  66.563  1.00  0.00    -0.199 N 
HETATM   19  N6  UNL     1      15.494  29.453  67.034  1.00  0.00    -0.268 N 
ATOM     20  H5  UNL     1      14.913  30.818  65.581  1.00  0.00     0.212 HD
HETATM   21  C6  UNL     1      15.614  29.547  68.363  1.00  0.00     0.149 A 
ATOM     22  H6  UNL     1      15.686  28.619  66.479  1.00  0.00     0.190 HD
HETATM   23  N7  UNL     1      15.263  30.802  68.664  1.00  0.00    -0.242 N 
ATOM     24  H7  UNL     1      15.245  31.202  69.603  1.00  0.00     0.192 HD
BRANCH  21  25
HETATM   25  C7  UNL     1      16.037  28.523  69.351  1.00  0.00     0.243 C 
BRANCH  25  26
HETATM   26  O4  UNL     1      16.135  27.269  68.756  1.00  0.00    -0.383 OA
ATOM     27  H4  UNL     1      16.995  26.891  68.897  1.00  0.00     0.210 HD
ENDBRANCH  25  26
BRANCH  25  28
HETATM   28  C8  UNL     1      17.355  28.927  69.955  1.00  0.00     0.290 C 
BRANCH  28  29
HETATM   29  O5  UNL     1      17.860  30.074  69.367  1.00  0.00    -0.368 OA
ATOM     30  H5  UNL     1      18.015  29.955  68.437  1.00  0.00     0.212 HD
ENDBRANCH  28  29
BRANCH  28  31
HETATM   31  O6  UNL     1      17.125  29.165  71.315  1.00  0.00    -0.368 OA
ATOM     32  H6  UNL     1      17.287  28.347  71.771  1.00  0.00     0.212 HD
ENDBRANCH  28  31
ENDBRANCH  25  28
ENDBRANCH  21  25
ENDBRANCH  16  17
ENDBRANCH  15  16
ENDBRANCH   1  15
BRANCH   1  33
HETATM   33  C9  UNL     1      13.288  35.127  69.002  1.00  0.00     0.091 A 
HETATM   34  C10 UNL     1      13.242  36.138  68.035  1.00  0.00     0.164 A 
HETATM   35  N8  UNL     1      12.135  36.805  67.748  1.00  0.00    -0.261 N 
HETATM   36  C12 UNL     1      10.989  36.517  68.399  1.00  0.00     0.132 A 
HETATM   37  N9  UNL     1       9.847  37.185  68.124  1.00  0.00    -0.337 N 
HETATM   38  C15 UNL     1      10.931  35.540  69.369  1.00  0.00     0.103 A 
HETATM   39  C13 UNL     1       8.685  36.910  68.769  1.00  0.00     0.183 A 
ATOM     40  H9  UNL     1       9.859  37.915  67.413  1.00  0.00     0.168 HD
HETATM   41  N10 UNL     1       8.664  35.946  69.712  1.00  0.00    -0.338 N 
HETATM   42  C14 UNL     1       9.763  35.240  70.039  1.00  0.00     0.117 A 
ATOM     43  H10 UNL     1       7.788  35.744  70.194  1.00  0.00     0.168 HD
HETATM   44  C16 UNL     1      12.118  34.851  69.650  1.00  0.00     0.206 A 
HETATM   45  O10 UNL     1      12.063  33.959  70.531  1.00  0.00    -0.286 OA
BRANCH  34  46
HETATM   46  O7  UNL     1      14.400  36.489  67.316  1.00  0.00    -0.345 OA
ATOM     47  H7  UNL     1      14.332  36.829  66.432  1.00  0.00     0.219 HD
ENDBRANCH  34  46
BRANCH  35  48
HETATM   48  C11 UNL     1      12.140  37.846  66.736  1.00  0.00     0.375 C 
BRANCH  48  49
HETATM   49  O8  UNL     1      11.474  38.942  67.281  1.00  0.00    -0.354 OA
ATOM     50  H8  UNL     1      11.466  39.620  66.615  1.00  0.00     0.214 HD
ENDBRANCH  48  49
BRANCH  48  51
HETATM   51  O9  UNL     1      11.465  37.439  65.587  1.00  0.00    -0.354 OA
ATOM     52  H9  UNL     1      10.531  37.364  65.745  1.00  0.00     0.214 HD
ENDBRANCH  48  51
ENDBRANCH  35  48
BRANCH  42  53
HETATM   53  N11 UNL     1       9.765  34.310  70.942  1.00  0.00    -0.385 N 
ATOM     54 2H11 UNL     1       9.161  33.497  70.827  1.00  0.00     0.157 HD
ATOM     55 1H11 UNL     1      10.349  34.345  71.777  1.00  0.00     0.157 HD
ENDBRANCH  42  53
ENDBRANCH   1  33
TORSDOF 18
ENDMDL
MODEL 5
REMARK VINA RESULT: -8.366605001      3.148      7.564
REMARK  18 active torsions:
REMARK  status: ('A' for Active; 'I' for Inactive)
REMARK    1  A    between atoms: N1_1  and  C1_4 
REMARK    2  A    between atoms: C2_8  and  O2_9 
REMARK    3  A    between atoms: C3_11  and  N3_12 
REMARK    4  A    between atoms: N3_12  and  C4_14 
REMARK    5  A    between atoms: C4_14  and  C5_15 
REMARK    6  A    between atoms: C4_14  and  C9_33 
REMARK    7  A    between atoms: C5_15  and  O3_16 
REMARK    8  A    between atoms: O3_16  and  N4_17 
REMARK    9  A    between atoms: C6_22  and  C7_23 
REMARK   10  A    between atoms: C7_23  and  O4_24 
REMARK   11  A    between atoms: C7_23  and  C8_26 
REMARK   12  A    between atoms: C8_26  and  O5_27 
REMARK   13  A    between atoms: C8_26  and  O6_29 
REMARK   14  A    between atoms: C10_34  and  O7_35 
REMARK   15  A    between atoms: N8_37  and  C11_38 
REMARK   16  A    between atoms: C11_38  and  O8_39 
REMARK   17  A    between atoms: C11_38  and  O9_41 
REMARK   18  A    between atoms: C14_49  and  N11_50 
ROOT
HETATM    1  C4  UNL     1      14.220  34.918  69.061  1.00  0.00     0.055 C 
ENDROOT
BRANCH   1   2
HETATM    2  N3  UNL     1      14.918  35.035  70.178  1.00  0.00    -0.350 N 
ATOM      3  H3  UNL     1      14.488  35.458  70.999  1.00  0.00     0.166 HD
BRANCH   2   4
HETATM    4  C3  UNL     1      16.256  34.581  70.246  1.00  0.00     0.139 A 
HETATM    5  C1  UNL     1      16.689  33.428  70.860  1.00  0.00     0.151 A 
HETATM    6  N2  UNL     1      18.021  33.395  70.681  1.00  0.00    -0.240 N 
HETATM    7  O1  UNL     1      18.388  34.444  70.008  1.00  0.00    -0.208 OA
ATOM      8  H2  UNL     1      18.645  32.663  71.020  1.00  0.00     0.196 HD
HETATM    9  C2  UNL     1      17.365  35.200  69.715  1.00  0.00     0.235 A 
BRANCH   5  10
HETATM   10  N1  UNL     1      15.950  32.546  71.490  1.00  0.00    -0.382 N 
ATOM     11  H12 UNL     1      16.222  31.601  71.762  1.00  0.00     0.157 HD
ATOM     12  H11 UNL     1      14.988  32.660  71.808  1.00  0.00     0.157 HD
ENDBRANCH   5  10
BRANCH   9  13
HETATM   13  O2  UNL     1      17.375  36.416  68.997  1.00  0.00    -0.338 OA
ATOM     14  H2  UNL     1      16.906  36.616  68.196  1.00  0.00     0.220 HD
ENDBRANCH   9  13
ENDBRANCH   2   4
ENDBRANCH   1   2
BRANCH   1  15
HETATM   15  C5  UNL     1      14.819  34.276  67.877  1.00  0.00     0.263 C 
BRANCH  15  16
HETATM   16  O3  UNL     1      14.117  33.123  67.463  1.00  0.00    -0.236 OA
BRANCH  16  17
HETATM   17  N4  UNL     1      14.659  31.875  67.431  1.00  0.00    -0.076 N 
HETATM   18  N5  UNL     1      14.691  31.020  66.442  1.00  0.00    -0.199 N 
HETATM   19  N6  UNL     1      15.312  29.937  66.843  1.00  0.00    -0.268 N 
ATOM     20  H5  UNL     1      14.298  31.169  65.514  1.00  0.00     0.212 HD
HETATM   21  C6  UNL     1      15.688  30.101  68.116  1.00  0.00     0.149 A 
ATOM     22  H6  UNL     1      15.482  29.106  66.277  1.00  0.00     0.190 HD
HETATM   23  N7  UNL     1      15.266  31.323  68.458  1.00  0.00    -0.242 N 
ATOM     24  H7  UNL     1      15.394  31.758  69.372  1.00  0.00     0.192 HD
BRANCH  21  25
HETATM   25  C7  UNL     1      16.417  29.171  69.015  1.00  0.00     0.243 C 
BRANCH  25  26
HETATM   26  O4  UNL     1      16.085  29.402  70.346  1.00  0.00    -0.383 OA
ATOM     27  H4  UNL     1      16.780  29.111  70.925  1.00  0.00     0.210 HD
ENDBRANCH  25  26
BRANCH  25  28
HETATM   28  C8  UNL     1      16.098  27.751  68.628  1.00  0.00     0.290 C 
BRANCH  28  29
HETATM   29  O5  UNL     1      16.901  26.844  69.298  1.00  0.00    -0.368 OA
ATOM     30  H5  UNL     1      17.079  26.074  68.770  1.00  0.00     0.212 HD
ENDBRANCH  28  29
BRANCH  28  31
HETATM   31  O6  UNL     1      14.759  27.526  68.966  1.00  0.00    -0.368 OA
ATOM     32  H6  UNL     1      14.628  27.884  69.835  1.00  0.00     0.212 HD
ENDBRANCH  28  31
ENDBRANCH  25  28
ENDBRANCH  21  25
ENDBRANCH  16  17
ENDBRANCH  15  16
ENDBRANCH   1  15
BRANCH   1  33
HETATM   33  C9  UNL     1      12.852  35.411  69.036  1.00  0.00     0.091 A 
HETATM   34  C10 UNL     1      12.525  36.380  68.080  1.00  0.00     0.164 A 
HETATM   35  N8  UNL     1      11.308  36.888  67.962  1.00  0.00    -0.261 N 
HETATM   36  C12 UNL     1      10.324  36.473  68.786  1.00  0.00     0.132 A 
HETATM   37  N9  UNL     1       9.075  36.977  68.685  1.00  0.00    -0.337 N 
HETATM   38  C15 UNL     1      10.544  35.524  69.760  1.00  0.00     0.103 A 
HETATM   39  C13 UNL     1       8.071  36.573  69.505  1.00  0.00     0.183 A 
ATOM     40  H9  UNL     1       8.880  37.682  67.975  1.00  0.00     0.168 HD
HETATM   41  N10 UNL     1       8.323  35.641  70.448  1.00  0.00    -0.338 N 
HETATM   42  C14 UNL     1       9.543  35.094  70.606  1.00  0.00     0.117 A 
ATOM     43  H10 UNL     1       7.565  35.341  71.061  1.00  0.00     0.168 HD
HETATM   44  C16 UNL     1      11.841  35.004  69.860  1.00  0.00     0.206 A 
HETATM   45  O10 UNL     1      12.041  34.137  70.746  1.00  0.00    -0.286 OA
BRANCH  34  46
HETATM   46  O7  UNL     1      13.502  36.858  67.187  1.00  0.00    -0.345 OA
ATOM     47  H7  UNL     1      14.168  36.273  66.846  1.00  0.00     0.219 HD
ENDBRANCH  34  46
BRANCH  35  48
HETATM   48  C11 UNL     1      11.020  37.892  66.953  1.00  0.00     0.375 C 
BRANCH  48  49
HETATM   49  O8  UNL     1      11.617  39.077  67.380  1.00  0.00    -0.354 OA
ATOM     50  H8  UNL     1      12.137  39.401  66.652  1.00  0.00     0.214 HD
ENDBRANCH  48  49
BRANCH  48  51
HETATM   51  O9  UNL     1       9.649  38.102  66.826  1.00  0.00    -0.354 OA
ATOM     52  H9  UNL     1       9.310  37.701  66.034  1.00  0.00     0.214 HD
ENDBRANCH  48  51
ENDBRANCH  35  48
BRANCH  42  53
HETATM   53  N11 UNL     1       9.807  34.198  71.505  1.00  0.00    -0.385 N 
ATOM     54 2H11 UNL     1      10.777  33.963  71.711  1.00  0.00     0.157 HD
ATOM     55 1H11 UNL     1       9.084  33.706  72.030  1.00  0.00     0.157 HD
ENDBRANCH  42  53
ENDBRANCH   1  33
TORSDOF 18
ENDMDL
