MODEL 1
REMARK VINA RESULT: -7.041713531      0.000      0.000
REMARK  11 active torsions:
REMARK  status: ('A' for Active; 'I' for Inactive)
REMARK    1  A    between atoms: C3_8  and  N3_9 
REMARK    2  A    between atoms: N3_9  and  C4_11 
REMARK    3  A    between atoms: C8_15  and  O2_16 
REMARK    4  A    between atoms: N5_22  and  C11_24 
REMARK    5  A    between atoms: C11_24  and  C12_25 
REMARK    6  A    between atoms: C12_25  and  C13_26 
REMARK    7  A    between atoms: C13_26  and  C14_27 
REMARK    8  A    between atoms: C14_27  and  C15_28 
REMARK    9  A    between atoms: C15_28  and  C16_29 
REMARK   10  A    between atoms: C16_29  and  C17_30 
REMARK   11  A    between atoms: C17_30  and  O3_31 
ROOT
HETATM    1  O1  UNL     1     -22.816  53.954  21.558  1.00  0.00    -0.265 OA
HETATM    2  C1  UNL     1     -22.632  53.716  20.337  1.00  0.00     0.285 A 
HETATM    3  N1  UNL     1     -23.434  52.879  19.656  1.00  0.00    -0.304 N 
ATOM      4  H1  UNL     1     -24.204  52.435  20.157  1.00  0.00     0.171 HD
HETATM    5  C2  UNL     1     -23.278  52.594  18.353  1.00  0.00     0.154 A 
HETATM    6  N2  UNL     1     -24.075  51.759  17.668  1.00  0.00    -0.174 N 
ATOM      7  H2  UNL     1     -24.842  51.319  18.176  1.00  0.00     0.186 HD
HETATM    8  C3  UNL     1     -23.943  51.461  16.380  1.00  0.00     0.681 A 
HETATM    9  N4  UNL     1     -22.923  52.048  15.720  1.00  0.00    -0.175 N 
ATOM     10  H4  UNL     1     -22.792  51.841  14.730  1.00  0.00     0.186 HD
HETATM   11  C10 UNL     1     -22.060  52.913  16.338  1.00  0.00     0.147 A 
HETATM   12  N5  UNL     1     -21.127  53.430  15.668  1.00  0.00    -0.374 N 
ATOM     13  H5  UNL     1     -21.118  53.134  14.692  1.00  0.00     0.161 HD
HETATM   14  C18 UNL     1     -22.224  53.201  17.672  1.00  0.00     0.123 A 
HETATM   15  N6  UNL     1     -21.407  54.046  18.339  1.00  0.00    -0.336 N 
ATOM     16  H6  UNL     1     -20.637  54.489  17.837  1.00  0.00     0.167 HD
HETATM   17  C19 UNL     1     -21.577  54.321  19.644  1.00  0.00     0.172 A 
HETATM   18 CL1  UNL     1     -20.560  55.397  20.553  1.00  0.00    -0.058 Cl
ENDROOT
BRANCH  12  19
HETATM   19  C11 UNL     1     -20.094  54.334  15.988  1.00  0.00     0.121 C 
BRANCH  19  20
HETATM   20  C12 UNL     1     -20.377  55.715  15.391  1.00  0.00     0.020 C 
BRANCH  20  21
HETATM   21  C13 UNL     1     -21.521  55.675  14.442  1.00  0.00     0.002 C 
BRANCH  21  22
HETATM   22  C14 UNL     1     -21.542  56.880  13.507  1.00  0.00     0.000 C 
BRANCH  22  23
HETATM   23  C15 UNL     1     -21.010  58.114  14.135  1.00  0.00     0.002 C 
BRANCH  23  24
HETATM   24  C16 UNL     1     -21.805  59.347  13.895  1.00  0.00     0.026 C 
BRANCH  24  25
HETATM   25  C17 UNL     1     -22.772  59.289  12.778  1.00  0.00     0.164 C 
BRANCH  25  26
HETATM   26  O3  UNL     1     -23.297  60.514  12.405  1.00  0.00    -0.401 OA
ATOM     27  H3  UNL     1     -23.917  60.476  11.687  1.00  0.00     0.209 HD
ENDBRANCH  25  26
ENDBRANCH  24  25
ENDBRANCH  23  24
ENDBRANCH  22  23
ENDBRANCH  21  22
ENDBRANCH  20  21
ENDBRANCH  19  20
ENDBRANCH  12  19
BRANCH   8  28
HETATM   28  N3  UNL     1     -24.723  50.649  15.724  1.00  0.00    -0.221 N 
ATOM     29  H3  UNL     1     -25.708  50.886  15.613  1.00  0.00     0.178 HD
BRANCH  28  30
HETATM   30  C4  UNL     1     -24.236  49.455  15.167  1.00  0.00     0.101 C 
HETATM   31  C5  UNL     1     -24.120  48.307  16.143  1.00  0.00     0.026 C 
HETATM   32  C6  UNL     1     -24.294  47.006  15.416  1.00  0.00     0.004 C 
HETATM   33  C7  UNL     1     -23.744  47.020  14.018  1.00  0.00     0.032 C 
HETATM   34  C8  UNL     1     -24.279  48.112  13.158  1.00  0.00     0.120 C 
HETATM   35  C9  UNL     1     -25.143  49.010  14.017  1.00  0.00     0.057 C 
BRANCH  34  36
HETATM   36  O2  UNL     1     -24.962  47.651  12.038  1.00  0.00    -0.396 OA
ATOM     37  H2  UNL     1     -24.462  47.031  11.518  1.00  0.00     0.210 HD
ENDBRANCH  34  36
ENDBRANCH  28  30
ENDBRANCH   8  28
TORSDOF 11
ENDMDL
MODEL 2
REMARK VINA RESULT: -7.009414853      1.828      2.159
REMARK  11 active torsions:
REMARK  status: ('A' for Active; 'I' for Inactive)
REMARK    1  A    between atoms: C3_8  and  N3_9 
REMARK    2  A    between atoms: N3_9  and  C4_11 
REMARK    3  A    between atoms: C8_15  and  O2_16 
REMARK    4  A    between atoms: N5_22  and  C11_24 
REMARK    5  A    between atoms: C11_24  and  C12_25 
REMARK    6  A    between atoms: C12_25  and  C13_26 
REMARK    7  A    between atoms: C13_26  and  C14_27 
REMARK    8  A    between atoms: C14_27  and  C15_28 
REMARK    9  A    between atoms: C15_28  and  C16_29 
REMARK   10  A    between atoms: C16_29  and  C17_30 
REMARK   11  A    between atoms: C17_30  and  O3_31 
ROOT
HETATM    1  O1  UNL     1     -19.525  52.120  21.740  1.00  0.00    -0.265 OA
HETATM    2  C1  UNL     1     -20.035  52.498  20.655  1.00  0.00     0.285 A 
HETATM    3  N1  UNL     1     -21.242  52.061  20.255  1.00  0.00    -0.304 N 
ATOM      4  H1  UNL     1     -21.741  51.408  20.859  1.00  0.00     0.171 HD
HETATM    5  C2  UNL     1     -21.827  52.436  19.107  1.00  0.00     0.154 A 
HETATM    6  N2  UNL     1     -23.031  52.002  18.703  1.00  0.00    -0.174 N 
ATOM      7  H2  UNL     1     -23.524  51.349  19.312  1.00  0.00     0.186 HD
HETATM    8  C3  UNL     1     -23.632  52.358  17.572  1.00  0.00     0.681 A 
HETATM    9  N4  UNL     1     -22.969  53.221  16.776  1.00  0.00    -0.175 N 
ATOM     10  H4  UNL     1     -23.401  53.515  15.899  1.00  0.00     0.186 HD
HETATM   11  C10 UNL     1     -21.736  53.715  17.107  1.00  0.00     0.147 A 
HETATM   12  N5  UNL     1     -21.167  54.519  16.322  1.00  0.00    -0.374 N 
ATOM     13  H5  UNL     1     -21.715  54.724  15.485  1.00  0.00     0.161 HD
HETATM   14  C18 UNL     1     -21.141  53.328  18.284  1.00  0.00     0.123 A 
HETATM   15  N6  UNL     1     -19.927  53.779  18.668  1.00  0.00    -0.336 N 
ATOM     16  H6  UNL     1     -19.428  54.432  18.063  1.00  0.00     0.167 HD
HETATM   17  C19 UNL     1     -19.355  53.394  19.822  1.00  0.00     0.172 A 
HETATM   18 CL1  UNL     1     -17.798  53.940  20.367  1.00  0.00    -0.058 Cl
ENDROOT
BRANCH  12  19
HETATM   19  C11 UNL     1     -19.930  55.195  16.358  1.00  0.00     0.121 C 
BRANCH  19  20
HETATM   20  C12 UNL     1     -19.901  56.327  15.329  1.00  0.00     0.020 C 
BRANCH  20  21
HETATM   21  C13 UNL     1     -19.213  57.533  15.865  1.00  0.00     0.002 C 
BRANCH  21  22
HETATM   22  C14 UNL     1     -19.750  58.825  15.258  1.00  0.00     0.000 C 
BRANCH  22  23
HETATM   23  C15 UNL     1     -20.609  58.598  14.069  1.00  0.00     0.002 C 
BRANCH  23  24
HETATM   24  C16 UNL     1     -21.832  59.439  13.995  1.00  0.00     0.026 C 
BRANCH  24  25
HETATM   25  C17 UNL     1     -22.578  59.388  12.720  1.00  0.00     0.164 C 
BRANCH  25  26
HETATM   26  O3  UNL     1     -23.224  60.564  12.382  1.00  0.00    -0.401 OA
ATOM     27  H3  UNL     1     -24.158  60.568  12.558  1.00  0.00     0.209 HD
ENDBRANCH  25  26
ENDBRANCH  24  25
ENDBRANCH  23  24
ENDBRANCH  22  23
ENDBRANCH  21  22
ENDBRANCH  20  21
ENDBRANCH  19  20
ENDBRANCH  12  19
BRANCH   8  28
HETATM   28  N3  UNL     1     -24.802  51.932  17.190  1.00  0.00    -0.221 N 
ATOM     29  H3  UNL     1     -25.641  52.386  17.551  1.00  0.00     0.178 HD
BRANCH  28  30
HETATM   30  C4  UNL     1     -24.934  50.859  16.292  1.00  0.00     0.101 C 
HETATM   31  C5  UNL     1     -24.839  49.491  16.927  1.00  0.00     0.026 C 
HETATM   32  C6  UNL     1     -25.649  48.508  16.133  1.00  0.00     0.004 C 
HETATM   33  C7  UNL     1     -25.650  48.785  14.656  1.00  0.00     0.032 C 
HETATM   34  C8  UNL     1     -26.092  50.160  14.289  1.00  0.00     0.120 C 
HETATM   35  C9  UNL     1     -26.278  50.953  15.564  1.00  0.00     0.057 C 
BRANCH  34  36
HETATM   36  O2  UNL     1     -27.232  50.182  13.492  1.00  0.00    -0.396 OA
ATOM     37  H2  UNL     1     -28.040  50.229  13.990  1.00  0.00     0.210 HD
ENDBRANCH  34  36
ENDBRANCH  28  30
ENDBRANCH   8  28
TORSDOF 11
ENDMDL
MODEL 3
REMARK VINA RESULT: -7.000663045      1.137      1.287
REMARK  11 active torsions:
REMARK  status: ('A' for Active; 'I' for Inactive)
REMARK    1  A    between atoms: C3_8  and  N3_9 
REMARK    2  A    between atoms: N3_9  and  C4_11 
REMARK    3  A    between atoms: C8_15  and  O2_16 
REMARK    4  A    between atoms: N5_22  and  C11_24 
REMARK    5  A    between atoms: C11_24  and  C12_25 
REMARK    6  A    between atoms: C12_25  and  C13_26 
REMARK    7  A    between atoms: C13_26  and  C14_27 
REMARK    8  A    between atoms: C14_27  and  C15_28 
REMARK    9  A    between atoms: C15_28  and  C16_29 
REMARK   10  A    between atoms: C16_29  and  C17_30 
REMARK   11  A    between atoms: C17_30  and  O3_31 
ROOT
HETATM    1  O1  UNL     1     -20.956  54.199  21.839  1.00  0.00    -0.265 OA
HETATM    2  C1  UNL     1     -21.178  53.941  20.628  1.00  0.00     0.285 A 
HETATM    3  N1  UNL     1     -22.168  53.112  20.256  1.00  0.00    -0.304 N 
ATOM      4  H1  UNL     1     -22.743  52.690  20.986  1.00  0.00     0.171 HD
HETATM    5  C2  UNL     1     -22.444  52.807  18.978  1.00  0.00     0.154 A 
HETATM    6  N2  UNL     1     -23.431  51.979  18.601  1.00  0.00    -0.174 N 
ATOM      7  H2  UNL     1     -24.000  51.561  19.337  1.00  0.00     0.186 HD
HETATM    8  C3  UNL     1     -23.724  51.662  17.345  1.00  0.00     0.681 A 
HETATM    9  N4  UNL     1     -22.963  52.221  16.382  1.00  0.00    -0.175 N 
ATOM     10  H4  UNL     1     -23.160  51.999  15.406  1.00  0.00     0.186 HD
HETATM   11  C10 UNL     1     -21.935  53.077  16.674  1.00  0.00     0.147 A 
HETATM   12  N5  UNL     1     -21.260  53.567  15.730  1.00  0.00    -0.374 N 
ATOM     13  H5  UNL     1     -21.569  53.258  14.808  1.00  0.00     0.161 HD
HETATM   14  C18 UNL     1     -21.657  53.385  17.984  1.00  0.00     0.123 A 
HETATM   15  N6  UNL     1     -20.657  54.222  18.337  1.00  0.00    -0.336 N 
ATOM     16  H6  UNL     1     -20.083  54.643  17.606  1.00  0.00     0.167 HD
HETATM   17  C19 UNL     1     -20.394  54.517  19.622  1.00  0.00     0.172 A 
HETATM   18 CL1  UNL     1     -19.123  55.585  20.136  1.00  0.00    -0.058 Cl
ENDROOT
BRANCH  12  19
HETATM   19  C11 UNL     1     -20.165  54.455  15.683  1.00  0.00     0.121 C 
BRANCH  19  20
HETATM   20  C12 UNL     1     -20.626  55.864  15.301  1.00  0.00     0.020 C 
BRANCH  20  21
HETATM   21  C13 UNL     1     -21.617  55.832  14.193  1.00  0.00     0.002 C 
BRANCH  21  22
HETATM   22  C14 UNL     1     -21.456  57.009  13.236  1.00  0.00     0.000 C 
BRANCH  22  23
HETATM   23  C15 UNL     1     -20.925  58.228  13.896  1.00  0.00     0.002 C 
BRANCH  23  24
HETATM   24  C16 UNL     1     -21.836  59.402  13.897  1.00  0.00     0.026 C 
BRANCH  24  25
HETATM   25  C17 UNL     1     -23.051  59.282  13.063  1.00  0.00     0.164 C 
BRANCH  25  26
HETATM   26  O3  UNL     1     -23.377  60.423  12.352  1.00  0.00    -0.401 OA
ATOM     27  H3  UNL     1     -24.301  60.642  12.357  1.00  0.00     0.209 HD
ENDBRANCH  25  26
ENDBRANCH  24  25
ENDBRANCH  23  24
ENDBRANCH  22  23
ENDBRANCH  21  22
ENDBRANCH  20  21
ENDBRANCH  19  20
ENDBRANCH  12  19
BRANCH   8  28
HETATM   28  N3  UNL     1     -24.685  50.858  16.990  1.00  0.00    -0.221 N 
ATOM     29  H3  UNL     1     -25.458  50.688  17.634  1.00  0.00     0.178 HD
BRANCH  28  30
HETATM   30  C4  UNL     1     -24.681  50.217  15.739  1.00  0.00     0.101 C 
HETATM   31  C5  UNL     1     -23.972  48.882  15.718  1.00  0.00     0.026 C 
HETATM   32  C6  UNL     1     -24.584  48.002  14.668  1.00  0.00     0.004 C 
HETATM   33  C7  UNL     1     -25.062  48.753  13.458  1.00  0.00     0.032 C 
HETATM   34  C8  UNL     1     -26.017  49.857  13.758  1.00  0.00     0.120 C 
HETATM   35  C9  UNL     1     -26.119  49.999  15.261  1.00  0.00     0.057 C 
BRANCH  34  36
HETATM   36  O2  UNL     1     -27.264  49.687  13.166  1.00  0.00    -0.396 OA
ATOM     37  H2  UNL     1     -27.235  49.185  12.360  1.00  0.00     0.210 HD
ENDBRANCH  34  36
ENDBRANCH  28  30
ENDBRANCH   8  28
TORSDOF 11
ENDMDL
MODEL 4
REMARK VINA RESULT: -6.962863718      4.366      6.632
REMARK  11 active torsions:
REMARK  status: ('A' for Active; 'I' for Inactive)
REMARK    1  A    between atoms: C3_8  and  N3_9 
REMARK    2  A    between atoms: N3_9  and  C4_11 
REMARK    3  A    between atoms: C8_15  and  O2_16 
REMARK    4  A    between atoms: N5_22  and  C11_24 
REMARK    5  A    between atoms: C11_24  and  C12_25 
REMARK    6  A    between atoms: C12_25  and  C13_26 
REMARK    7  A    between atoms: C13_26  and  C14_27 
REMARK    8  A    between atoms: C14_27  and  C15_28 
REMARK    9  A    between atoms: C15_28  and  C16_29 
REMARK   10  A    between atoms: C16_29  and  C17_30 
REMARK   11  A    between atoms: C17_30  and  O3_31 
ROOT
HETATM    1  O1  UNL     1     -24.563  52.366  19.799  1.00  0.00    -0.265 OA
HETATM    2  C1  UNL     1     -23.380  52.624  19.459  1.00  0.00     0.285 A 
HETATM    3  N1  UNL     1     -22.343  51.909  19.929  1.00  0.00    -0.304 N 
ATOM      4  H1  UNL     1     -22.539  51.144  20.575  1.00  0.00     0.171 HD
HETATM    5  C2  UNL     1     -21.064  52.145  19.596  1.00  0.00     0.154 A 
HETATM    6  N2  UNL     1     -20.025  51.435  20.062  1.00  0.00    -0.174 N 
ATOM      7  H2  UNL     1     -20.229  50.672  20.708  1.00  0.00     0.186 HD
HETATM    8  C3  UNL     1     -18.751  51.647  19.748  1.00  0.00     0.681 A 
HETATM    9  N4  UNL     1     -18.495  52.660  18.895  1.00  0.00    -0.175 N 
ATOM     10  H4  UNL     1     -17.528  52.852  18.632  1.00  0.00     0.186 HD
HETATM   11  C10 UNL     1     -19.492  53.437  18.370  1.00  0.00     0.147 A 
HETATM   12  N5  UNL     1     -19.190  54.368  17.577  1.00  0.00    -0.374 N 
ATOM     13  H5  UNL     1     -18.187  54.444  17.405  1.00  0.00     0.161 HD
HETATM   14  C18 UNL     1     -20.800  53.191  18.713  1.00  0.00     0.123 A 
HETATM   15  N6  UNL     1     -21.829  53.922  18.230  1.00  0.00    -0.336 N 
ATOM     16  H6  UNL     1     -21.632  54.687  17.585  1.00  0.00     0.167 HD
HETATM   17  C19 UNL     1     -23.104  53.672  18.574  1.00  0.00     0.172 A 
HETATM   18 CL1  UNL     1     -24.466  54.576  17.985  1.00  0.00    -0.058 Cl
ENDROOT
BRANCH  12  19
HETATM   19  C11 UNL     1     -19.950  55.328  16.878  1.00  0.00     0.121 C 
BRANCH  19  20
HETATM   20  C12 UNL     1     -19.251  56.690  16.893  1.00  0.00     0.020 C 
BRANCH  20  21
HETATM   21  C13 UNL     1     -19.074  57.228  15.518  1.00  0.00     0.002 C 
BRANCH  21  22
HETATM   22  C14 UNL     1     -19.921  58.473  15.269  1.00  0.00     0.000 C 
BRANCH  22  23
HETATM   23  C15 UNL     1     -20.828  58.336  14.103  1.00  0.00     0.002 C 
BRANCH  23  24
HETATM   24  C16 UNL     1     -21.833  59.420  13.945  1.00  0.00     0.026 C 
BRANCH  24  25
HETATM   25  C17 UNL     1     -22.715  59.321  12.762  1.00  0.00     0.164 C 
BRANCH  25  26
HETATM   26  O3  UNL     1     -23.305  60.513  12.382  1.00  0.00    -0.401 OA
ATOM     27  H3  UNL     1     -22.693  61.207  12.168  1.00  0.00     0.209 HD
ENDBRANCH  25  26
ENDBRANCH  24  25
ENDBRANCH  23  24
ENDBRANCH  22  23
ENDBRANCH  21  22
ENDBRANCH  20  21
ENDBRANCH  19  20
ENDBRANCH  12  19
BRANCH   8  28
HETATM   28  N3  UNL     1     -17.750  50.951  20.206  1.00  0.00    -0.221 N 
ATOM     29  H3  UNL     1     -17.901  49.981  20.481  1.00  0.00     0.178 HD
BRANCH  28  30
HETATM   30  C4  UNL     1     -16.466  51.508  20.329  1.00  0.00     0.101 C 
HETATM   31  C5  UNL     1     -16.205  52.204  21.645  1.00  0.00     0.026 C 
HETATM   32  C6  UNL     1     -14.744  52.126  21.977  1.00  0.00     0.004 C 
HETATM   33  C7  UNL     1     -13.850  52.180  20.771  1.00  0.00     0.032 C 
HETATM   34  C8  UNL     1     -14.150  51.150  19.737  1.00  0.00     0.120 C 
HETATM   35  C9  UNL     1     -15.406  50.417  20.151  1.00  0.00     0.057 C 
BRANCH  34  36
HETATM   36  O2  UNL     1     -13.093  50.279  19.500  1.00  0.00    -0.396 OA
ATOM     37  H2  UNL     1     -13.300  49.371  19.694  1.00  0.00     0.210 HD
ENDBRANCH  34  36
ENDBRANCH  28  30
ENDBRANCH   8  28
TORSDOF 11
ENDMDL
MODEL 5
REMARK VINA RESULT: -6.938531744      1.335      1.747
REMARK  11 active torsions:
REMARK  status: ('A' for Active; 'I' for Inactive)
REMARK    1  A    between atoms: C3_8  and  N3_9 
REMARK    2  A    between atoms: N3_9  and  C4_11 
REMARK    3  A    between atoms: C8_15  and  O2_16 
REMARK    4  A    between atoms: N5_22  and  C11_24 
REMARK    5  A    between atoms: C11_24  and  C12_25 
REMARK    6  A    between atoms: C12_25  and  C13_26 
REMARK    7  A    between atoms: C13_26  and  C14_27 
REMARK    8  A    between atoms: C14_27  and  C15_28 
REMARK    9  A    between atoms: C15_28  and  C16_29 
REMARK   10  A    between atoms: C16_29  and  C17_30 
REMARK   11  A    between atoms: C17_30  and  O3_31 
ROOT
HETATM    1  O1  UNL     1     -23.889  54.171  21.354  1.00  0.00    -0.265 OA
HETATM    2  C1  UNL     1     -23.201  54.090  20.304  1.00  0.00     0.285 A 
HETATM    3  N1  UNL     1     -23.588  53.326  19.268  1.00  0.00    -0.304 N 
ATOM      4  H1  UNL     1     -24.461  52.806  19.353  1.00  0.00     0.171 HD
HETATM    5  C2  UNL     1     -22.888  53.209  18.128  1.00  0.00     0.154 A 
HETATM    6  N2  UNL     1     -23.269  52.447  17.091  1.00  0.00    -0.174 N 
ATOM      7  H2  UNL     1     -24.144  51.930  17.183  1.00  0.00     0.186 HD
HETATM    8  C3  UNL     1     -22.597  52.314  15.953  1.00  0.00     0.681 A 
HETATM    9  N4  UNL     1     -21.442  53.002  15.844  1.00  0.00    -0.175 N 
ATOM     10  H4  UNL     1     -20.899  52.922  14.983  1.00  0.00     0.186 HD
HETATM   11  C10 UNL     1     -20.976  53.803  16.851  1.00  0.00     0.147 A 
HETATM   12  N5  UNL     1     -19.890  54.421  16.690  1.00  0.00    -0.374 N 
ATOM     13  H5  UNL     1     -19.457  54.249  15.782  1.00  0.00     0.161 HD
HETATM   14  C18 UNL     1     -21.695  53.920  18.016  1.00  0.00     0.123 A 
HETATM   15  N6  UNL     1     -21.290  54.694  19.046  1.00  0.00    -0.336 N 
ATOM     16  H6  UNL     1     -20.416  55.214  18.961  1.00  0.00     0.167 HD
HETATM   17  C19 UNL     1     -22.002  54.801  20.182  1.00  0.00     0.172 A 
HETATM   18 CL1  UNL     1     -21.531  55.780  21.538  1.00  0.00    -0.058 Cl
ENDROOT
BRANCH  12  19
HETATM   19  C11 UNL     1     -19.148  55.303  17.503  1.00  0.00     0.121 C 
BRANCH  19  20
HETATM   20  C12 UNL     1     -19.190  56.725  16.939  1.00  0.00     0.020 C 
BRANCH  20  21
HETATM   21  C13 UNL     1     -19.512  56.727  15.487  1.00  0.00     0.002 C 
BRANCH  21  22
HETATM   22  C14 UNL     1     -19.897  58.114  14.980  1.00  0.00     0.000 C 
BRANCH  22  23
HETATM   23  C15 UNL     1     -20.987  58.084  13.974  1.00  0.00     0.002 C 
BRANCH  23  24
HETATM   24  C16 UNL     1     -21.841  59.299  13.921  1.00  0.00     0.026 C 
BRANCH  24  25
HETATM   25  C17 UNL     1     -23.000  59.239  13.006  1.00  0.00     0.164 C 
BRANCH  25  26
HETATM   26  O3  UNL     1     -23.259  60.416  12.325  1.00  0.00    -0.401 OA
ATOM     27  H3  UNL     1     -24.044  60.870  12.605  1.00  0.00     0.209 HD
ENDBRANCH  25  26
ENDBRANCH  24  25
ENDBRANCH  23  24
ENDBRANCH  22  23
ENDBRANCH  21  22
ENDBRANCH  20  21
ENDBRANCH  19  20
ENDBRANCH  12  19
BRANCH   8  28
HETATM   28  N3  UNL     1     -22.975  51.572  14.951  1.00  0.00    -0.221 N 
ATOM     29  H3  UNL     1     -22.709  51.839  14.004  1.00  0.00     0.178 HD
BRANCH  28  30
HETATM   30  C4  UNL     1     -23.743  50.412  15.147  1.00  0.00     0.101 C 
HETATM   31  C5  UNL     1     -25.158  50.496  14.620  1.00  0.00     0.026 C 
HETATM   32  C6  UNL     1     -25.632  49.129  14.226  1.00  0.00     0.004 C 
HETATM   33  C7  UNL     1     -25.092  48.031  15.097  1.00  0.00     0.032 C 
HETATM   34  C8  UNL     1     -23.606  48.000  15.196  1.00  0.00     0.120 C 
HETATM   35  C9  UNL     1     -23.059  49.216  14.481  1.00  0.00     0.057 C 
BRANCH  34  36
HETATM   36  O2  UNL     1     -23.044  46.820  14.720  1.00  0.00    -0.396 OA
ATOM     37  H2  UNL     1     -22.101  46.869  14.606  1.00  0.00     0.210 HD
ENDBRANCH  34  36
ENDBRANCH  28  30
ENDBRANCH   8  28
TORSDOF 11
ENDMDL
