MODEL 1
REMARK VINA RESULT: -6.927454182      0.000      0.000
REMARK  10 active torsions:
REMARK  status: ('A' for Active; 'I' for Inactive)
REMARK    1  A    between atoms: O1_2  and  C2_3 
REMARK    2  A    between atoms: C5_9  and  C6_10 
REMARK    3  A    between atoms: C6_10  and  N2_11 
REMARK    4  A    between atoms: N2_11  and  C7_13 
REMARK    5  A    between atoms: C8_16  and  N4_17 
REMARK    6  A    between atoms: C9_22  and  C10_23 
REMARK    7  A    between atoms: C12_27  and  S1_28 
REMARK    8  A    between atoms: S1_28  and  C13_29 
REMARK    9  A    between atoms: C13_29  and  C14_30 
REMARK   10  A    between atoms: C14_30  and  N7_31 
ROOT
HETATM    1  C7  UNL     1     -22.962  51.885  15.733  1.00  0.00     0.158 A 
HETATM    2  N3  UNL     1     -23.747  51.788  16.823  1.00  0.00    -0.174 N 
ATOM      3  H3  UNL     1     -24.507  51.109  16.811  1.00  0.00     0.186 HD
HETATM    4  C8  UNL     1     -23.584  52.536  17.924  1.00  0.00     0.678 A 
HETATM    5  N5  UNL     1     -22.595  53.441  17.976  1.00  0.00    -0.186 N 
ATOM      6  H5  UNL     1     -22.465  54.013  18.811  1.00  0.00     0.184 HD
HETATM    7  C9  UNL     1     -21.768  53.589  16.910  1.00  0.00     0.119 A 
HETATM    8  C16 UNL     1     -21.933  52.822  15.778  1.00  0.00     0.190 A 
HETATM    9  F2  UNL     1     -21.112  52.971  14.725  1.00  0.00    -0.200 F 
ENDROOT
BRANCH   7  10
HETATM   10  C10 UNL     1     -20.693  54.590  16.993  1.00  0.00     0.080 A 
HETATM   11  C11 UNL     1     -19.753  54.738  17.981  1.00  0.00     0.122 A 
HETATM   12  N6  UNL     1     -18.939  55.788  17.676  1.00  0.00    -0.344 N 
HETATM   13  C12 UNL     1     -19.380  56.275  16.515  1.00  0.00     0.144 A 
ATOM     14  H6  UNL     1     -18.152  56.132  18.226  1.00  0.00     0.167 HD
HETATM   15  N10 UNL     1     -20.441  55.551  16.099  1.00  0.00    -0.334 N 
ATOM     16  H10 UNL     1     -20.967  55.712  15.240  1.00  0.00     0.168 HD
BRANCH  13  17
HETATM   17  S1  UNL     1     -18.717  57.665  15.612  1.00  0.00    -0.092 SA
BRANCH  17  18
HETATM   18  C13 UNL     1     -19.795  59.099  15.642  1.00  0.00     0.102 C 
BRANCH  18  19
HETATM   19  C14 UNL     1     -20.861  59.011  14.582  1.00  0.00     0.132 C 
BRANCH  19  20
HETATM   20  N7  UNL     1     -20.508  58.063  13.539  1.00  0.00    -0.366 N 
HETATM   21  C15 UNL     1     -20.785  58.276  12.296  1.00  0.00     0.196 C 
HETATM   22  N8  UNL     1     -21.446  59.446  11.885  1.00  0.00    -0.067 NA
HETATM   23  N9  UNL     1     -20.409  57.307  11.344  1.00  0.00    -0.067 NA
ATOM     24  H7  UNL     1     -20.026  57.201  13.797  1.00  0.00     0.161 HD
ENDBRANCH  19  20
ENDBRANCH  18  19
ENDBRANCH  17  18
ENDBRANCH  13  17
ENDBRANCH   7  10
BRANCH   4  25
HETATM   25  N4  UNL     1     -24.364  52.401  18.937  1.00  0.00    -0.234 N 
ATOM     26  H42 UNL     1     -24.035  51.886  19.753  1.00  0.00     0.174 HD
ATOM     27  H41 UNL     1     -25.302  52.802  18.936  1.00  0.00     0.174 HD
ENDBRANCH   4  25
BRANCH   1  28
HETATM   28  N2  UNL     1     -23.130  51.153  14.671  1.00  0.00    -0.369 N 
ATOM     29  H2  UNL     1     -23.025  51.535  13.731  1.00  0.00     0.161 HD
BRANCH  28  30
HETATM   30  C6  UNL     1     -23.476  49.762  14.896  1.00  0.00     0.167 C 
BRANCH  30  31
HETATM   31  C5  UNL     1     -24.750  49.442  14.178  1.00  0.00     0.050 A 
HETATM   32  C2  UNL     1     -25.946  50.105  14.248  1.00  0.00     0.152 A 
HETATM   33  N1  UNL     1     -26.845  49.486  13.438  1.00  0.00    -0.343 N 
HETATM   34  C3  UNL     1     -26.243  48.433  12.848  1.00  0.00     0.133 A 
ATOM     35  H1  UNL     1     -27.815  49.771  13.299  1.00  0.00     0.167 HD
HETATM   36  C4  UNL     1     -24.937  48.389  13.296  1.00  0.00     0.143 A 
HETATM   37  F1  UNL     1     -24.016  47.468  12.925  1.00  0.00    -0.204 F 
BRANCH  32  38
HETATM   38  O1  UNL     1     -26.169  51.223  15.029  1.00  0.00    -0.340 OA
HETATM   39  C1  UNL     1     -27.456  51.642  15.375  1.00  0.00     0.211 C 
ENDBRANCH  32  38
ENDBRANCH  30  31
ENDBRANCH  28  30
ENDBRANCH   1  28
TORSDOF 10
ENDMDL
MODEL 2
REMARK VINA RESULT: -6.778495075      2.831      4.211
REMARK  10 active torsions:
REMARK  status: ('A' for Active; 'I' for Inactive)
REMARK    1  A    between atoms: O1_2  and  C2_3 
REMARK    2  A    between atoms: C5_9  and  C6_10 
REMARK    3  A    between atoms: C6_10  and  N2_11 
REMARK    4  A    between atoms: N2_11  and  C7_13 
REMARK    5  A    between atoms: C8_16  and  N4_17 
REMARK    6  A    between atoms: C9_22  and  C10_23 
REMARK    7  A    between atoms: C12_27  and  S1_28 
REMARK    8  A    between atoms: S1_28  and  C13_29 
REMARK    9  A    between atoms: C13_29  and  C14_30 
REMARK   10  A    between atoms: C14_30  and  N7_31 
ROOT
HETATM    1  C7  UNL     1     -24.735  48.797  14.287  1.00  0.00     0.158 A 
HETATM    2  N3  UNL     1     -25.126  48.010  15.308  1.00  0.00    -0.174 N 
ATOM      3  H3  UNL     1     -25.547  47.108  15.086  1.00  0.00     0.186 HD
HETATM    4  C8  UNL     1     -24.994  48.347  16.598  1.00  0.00     0.678 A 
HETATM    5  N5  UNL     1     -24.447  49.527  16.928  1.00  0.00    -0.186 N 
ATOM      6  H5  UNL     1     -24.343  49.790  17.907  1.00  0.00     0.184 HD
HETATM    7  C9  UNL     1     -24.032  50.368  15.946  1.00  0.00     0.119 A 
HETATM    8  C16 UNL     1     -24.166  50.024  14.619  1.00  0.00     0.190 A 
HETATM    9  F2  UNL     1     -23.754  50.858  13.650  1.00  0.00    -0.200 F 
ENDROOT
BRANCH   7  10
HETATM   10  C10 UNL     1     -23.436  51.656  16.335  1.00  0.00     0.080 A 
HETATM   11  C11 UNL     1     -23.739  52.431  17.424  1.00  0.00     0.122 A 
HETATM   12  N6  UNL     1     -22.957  53.548  17.416  1.00  0.00    -0.344 N 
HETATM   13  C12 UNL     1     -22.187  53.454  16.331  1.00  0.00     0.144 A 
ATOM     14  H6  UNL     1     -22.961  54.303  18.102  1.00  0.00     0.167 HD
HETATM   15  N10 UNL     1     -22.474  52.309  15.675  1.00  0.00    -0.334 N 
ATOM     16  H10 UNL     1     -22.029  51.994  14.813  1.00  0.00     0.168 HD
BRANCH  13  17
HETATM   17  S1  UNL     1     -20.960  54.627  15.780  1.00  0.00    -0.092 SA
BRANCH  17  18
HETATM   18  C13 UNL     1     -21.523  55.640  14.411  1.00  0.00     0.102 C 
BRANCH  18  19
HETATM   19  C14 UNL     1     -20.826  56.974  14.386  1.00  0.00     0.132 C 
BRANCH  19  20
HETATM   20  N7  UNL     1     -21.565  57.955  13.609  1.00  0.00    -0.366 N 
HETATM   21  C15 UNL     1     -20.992  58.701  12.725  1.00  0.00     0.196 C 
HETATM   22  N8  UNL     1     -19.615  58.602  12.465  1.00  0.00    -0.067 NA
HETATM   23  N9  UNL     1     -21.778  59.629  12.012  1.00  0.00    -0.067 NA
ATOM     24  H7  UNL     1     -22.567  58.057  13.768  1.00  0.00     0.161 HD
ENDBRANCH  19  20
ENDBRANCH  18  19
ENDBRANCH  17  18
ENDBRANCH  13  17
ENDBRANCH   7  10
BRANCH   4  25
HETATM   25  N4  UNL     1     -25.386  47.556  17.533  1.00  0.00    -0.234 N 
ATOM     26  H42 UNL     1     -24.696  46.985  18.022  1.00  0.00     0.174 HD
ATOM     27  H41 UNL     1     -26.371  47.494  17.791  1.00  0.00     0.174 HD
ENDBRANCH   4  25
BRANCH   1  28
HETATM   28  N2  UNL     1     -24.868  48.457  13.038  1.00  0.00    -0.369 N 
ATOM     29  H2  UNL     1     -24.104  48.554  12.370  1.00  0.00     0.161 HD
BRANCH  28  30
HETATM   30  C6  UNL     1     -26.164  47.935  12.649  1.00  0.00     0.167 C 
BRANCH  30  31
HETATM   31  C5  UNL     1     -25.982  46.636  11.927  1.00  0.00     0.050 A 
HETATM   32  C2  UNL     1     -25.367  45.499  12.381  1.00  0.00     0.152 A 
HETATM   33  N1  UNL     1     -25.419  44.548  11.411  1.00  0.00    -0.343 N 
HETATM   34  C3  UNL     1     -26.060  45.058  10.339  1.00  0.00     0.133 A 
ATOM     35  H1  UNL     1     -25.037  43.605  11.482  1.00  0.00     0.167 HD
HETATM   36  C4  UNL     1     -26.418  46.358  10.642  1.00  0.00     0.143 A 
HETATM   37  F1  UNL     1     -27.081  47.197   9.810  1.00  0.00    -0.204 F 
BRANCH  32  38
HETATM   38  O1  UNL     1     -24.794  45.373  13.633  1.00  0.00    -0.340 OA
HETATM   39  C1  UNL     1     -23.459  45.002  13.803  1.00  0.00     0.211 C 
ENDBRANCH  32  38
ENDBRANCH  30  31
ENDBRANCH  28  30
ENDBRANCH   1  28
TORSDOF 10
ENDMDL
MODEL 3
REMARK VINA RESULT: -6.750494388      3.922      9.290
REMARK  10 active torsions:
REMARK  status: ('A' for Active; 'I' for Inactive)
REMARK    1  A    between atoms: O1_2  and  C2_3 
REMARK    2  A    between atoms: C5_9  and  C6_10 
REMARK    3  A    between atoms: C6_10  and  N2_11 
REMARK    4  A    between atoms: N2_11  and  C7_13 
REMARK    5  A    between atoms: C8_16  and  N4_17 
REMARK    6  A    between atoms: C9_22  and  C10_23 
REMARK    7  A    between atoms: C12_27  and  S1_28 
REMARK    8  A    between atoms: S1_28  and  C13_29 
REMARK    9  A    between atoms: C13_29  and  C14_30 
REMARK   10  A    between atoms: C14_30  and  N7_31 
ROOT
HETATM    1  C7  UNL     1     -22.615  52.182  16.161  1.00  0.00     0.158 A 
HETATM    2  N3  UNL     1     -23.473  52.719  17.050  1.00  0.00    -0.174 N 
ATOM      3  H3  UNL     1     -23.137  53.473  17.649  1.00  0.00     0.186 HD
HETATM    4  C8  UNL     1     -24.744  52.317  17.192  1.00  0.00     0.678 A 
HETATM    5  N5  UNL     1     -25.220  51.326  16.423  1.00  0.00    -0.186 N 
ATOM      6  H5  UNL     1     -26.186  51.015  16.525  1.00  0.00     0.184 HD
HETATM    7  C9  UNL     1     -24.407  50.741  15.507  1.00  0.00     0.119 A 
HETATM    8  C16 UNL     1     -23.101  51.152  15.358  1.00  0.00     0.190 A 
HETATM    9  F2  UNL     1     -22.299  50.572  14.451  1.00  0.00    -0.200 F 
ENDROOT
BRANCH   7  10
HETATM   10  C10 UNL     1     -24.955  49.656  14.677  1.00  0.00     0.080 A 
HETATM   11  C11 UNL     1     -25.842  49.756  13.637  1.00  0.00     0.122 A 
HETATM   12  N6  UNL     1     -26.093  48.513  13.137  1.00  0.00    -0.344 N 
HETATM   13  C12 UNL     1     -25.365  47.665  13.865  1.00  0.00     0.144 A 
ATOM     14  H6  UNL     1     -26.712  48.279  12.361  1.00  0.00     0.167 HD
HETATM   15  N10 UNL     1     -24.674  48.354  14.798  1.00  0.00    -0.334 N 
ATOM     16  H10 UNL     1     -24.040  47.947  15.486  1.00  0.00     0.168 HD
BRANCH  13  17
HETATM   17  S1  UNL     1     -25.284  45.891  13.686  1.00  0.00    -0.092 SA
BRANCH  17  18
HETATM   18  C13 UNL     1     -24.972  45.370  11.997  1.00  0.00     0.102 C 
BRANCH  18  19
HETATM   19  C14 UNL     1     -26.246  44.995  11.290  1.00  0.00     0.132 C 
BRANCH  19  20
HETATM   20  N7  UNL     1     -26.248  45.442   9.907  1.00  0.00    -0.366 N 
HETATM   21  C15 UNL     1     -26.713  46.595   9.561  1.00  0.00     0.196 C 
HETATM   22  N8  UNL     1     -27.246  47.484  10.510  1.00  0.00    -0.067 NA
HETATM   23  N9  UNL     1     -26.680  46.957   8.199  1.00  0.00    -0.067 NA
ATOM     24  H7  UNL     1     -25.870  44.825   9.189  1.00  0.00     0.161 HD
ENDBRANCH  19  20
ENDBRANCH  18  19
ENDBRANCH  17  18
ENDBRANCH  13  17
ENDBRANCH   7  10
BRANCH   4  25
HETATM   25  N4  UNL     1     -25.520  52.865  18.058  1.00  0.00    -0.234 N 
ATOM     26  H42 UNL     1     -25.158  53.620  18.640  1.00  0.00     0.174 HD
ATOM     27  H41 UNL     1     -26.485  52.557  18.168  1.00  0.00     0.174 HD
ENDBRANCH   4  25
BRANCH   1  28
HETATM   28  N2  UNL     1     -21.383  52.582  16.033  1.00  0.00    -0.369 N 
ATOM     29  H2  UNL     1     -20.607  52.080  16.464  1.00  0.00     0.161 HD
BRANCH  28  30
HETATM   30  C6  UNL     1     -21.176  53.781  15.243  1.00  0.00     0.167 C 
BRANCH  30  31
HETATM   31  C5  UNL     1     -20.305  54.733  16.002  1.00  0.00     0.050 A 
HETATM   32  C2  UNL     1     -19.504  54.466  17.079  1.00  0.00     0.152 A 
HETATM   33  N1  UNL     1     -18.883  55.612  17.466  1.00  0.00    -0.343 N 
HETATM   34  C3  UNL     1     -19.274  56.612  16.651  1.00  0.00     0.133 A 
ATOM     35  H1  UNL     1     -18.228  55.700  18.244  1.00  0.00     0.167 HD
HETATM   36  C4  UNL     1     -20.160  56.085  15.732  1.00  0.00     0.143 A 
HETATM   37  F1  UNL     1     -20.770  56.786  14.746  1.00  0.00    -0.204 F 
BRANCH  32  38
HETATM   38  O1  UNL     1     -19.371  53.218  17.658  1.00  0.00    -0.340 OA
HETATM   39  C1  UNL     1     -18.854  53.048  18.944  1.00  0.00     0.211 C 
ENDBRANCH  32  38
ENDBRANCH  30  31
ENDBRANCH  28  30
ENDBRANCH   1  28
TORSDOF 10
ENDMDL
MODEL 4
REMARK VINA RESULT: -6.723602548      2.100      2.687
REMARK  10 active torsions:
REMARK  status: ('A' for Active; 'I' for Inactive)
REMARK    1  A    between atoms: O1_2  and  C2_3 
REMARK    2  A    between atoms: C5_9  and  C6_10 
REMARK    3  A    between atoms: C6_10  and  N2_11 
REMARK    4  A    between atoms: N2_11  and  C7_13 
REMARK    5  A    between atoms: C8_16  and  N4_17 
REMARK    6  A    between atoms: C9_22  and  C10_23 
REMARK    7  A    between atoms: C12_27  and  S1_28 
REMARK    8  A    between atoms: S1_28  and  C13_29 
REMARK    9  A    between atoms: C13_29  and  C14_30 
REMARK   10  A    between atoms: C14_30  and  N7_31 
ROOT
HETATM    1  C7  UNL     1     -24.064  50.577  15.035  1.00  0.00     0.158 A 
HETATM    2  N3  UNL     1     -25.073  50.673  15.922  1.00  0.00    -0.174 N 
ATOM      3  H3  UNL     1     -25.879  50.059  15.802  1.00  0.00     0.186 HD
HETATM    4  C8  UNL     1     -25.078  51.531  16.951  1.00  0.00     0.678 A 
HETATM    5  N5  UNL     1     -24.036  52.355  17.139  1.00  0.00    -0.186 N 
ATOM      6  H5  UNL     1     -24.032  53.010  17.921  1.00  0.00     0.184 HD
HETATM    7  C9  UNL     1     -22.985  52.309  16.280  1.00  0.00     0.119 A 
HETATM    8  C16 UNL     1     -22.978  51.429  15.221  1.00  0.00     0.190 A 
HETATM    9  F2  UNL     1     -21.937  51.386  14.374  1.00  0.00    -0.200 F 
ENDROOT
BRANCH   7  10
HETATM   10  C10 UNL     1     -21.856  53.225  16.507  1.00  0.00     0.080 A 
HETATM   11  C11 UNL     1     -20.826  53.087  17.401  1.00  0.00     0.122 A 
HETATM   12  N6  UNL     1     -19.989  54.158  17.294  1.00  0.00    -0.344 N 
HETATM   13  C12 UNL     1     -20.505  54.940  16.345  1.00  0.00     0.144 A 
ATOM     14  H6  UNL     1     -19.139  54.327  17.832  1.00  0.00     0.167 HD
HETATM   15  N10 UNL     1     -21.635  54.377  15.867  1.00  0.00    -0.334 N 
ATOM     16  H10 UNL     1     -22.227  54.769  15.133  1.00  0.00     0.168 HD
BRANCH  13  17
HETATM   17  S1  UNL     1     -19.854  56.497  15.765  1.00  0.00    -0.092 SA
BRANCH  17  18
HETATM   18  C13 UNL     1     -20.791  57.182  14.396  1.00  0.00     0.102 C 
BRANCH  18  19
HETATM   19  C14 UNL     1     -20.651  58.679  14.325  1.00  0.00     0.132 C 
BRANCH  19  20
HETATM   20  N7  UNL     1     -21.906  59.322  13.972  1.00  0.00    -0.366 N 
HETATM   21  C15 UNL     1     -22.206  59.614  12.751  1.00  0.00     0.196 C 
HETATM   22  N8  UNL     1     -21.329  59.322  11.692  1.00  0.00    -0.067 NA
HETATM   23  N9  UNL     1     -23.443  60.237  12.489  1.00  0.00    -0.067 NA
ATOM     24  H7  UNL     1     -22.569  59.550  14.712  1.00  0.00     0.161 HD
ENDBRANCH  19  20
ENDBRANCH  18  19
ENDBRANCH  17  18
ENDBRANCH  13  17
ENDBRANCH   7  10
BRANCH   4  25
HETATM   25  N4  UNL     1     -26.070  51.580  17.768  1.00  0.00    -0.234 N 
ATOM     26  H42 UNL     1     -26.421  52.489  18.068  1.00  0.00     0.174 HD
ATOM     27  H41 UNL     1     -26.506  50.727  18.117  1.00  0.00     0.174 HD
ENDBRANCH   4  25
BRANCH   1  28
HETATM   28  N2  UNL     1     -24.072  49.739  14.039  1.00  0.00    -0.369 N 
ATOM     29  H2  UNL     1     -23.236  49.556  13.483  1.00  0.00     0.161 HD
BRANCH  28  30
HETATM   30  C6  UNL     1     -25.334  49.079  13.764  1.00  0.00     0.167 C 
BRANCH  30  31
HETATM   31  C5  UNL     1     -25.074  47.686  13.282  1.00  0.00     0.050 A 
HETATM   32  C2  UNL     1     -24.209  46.762  13.806  1.00  0.00     0.152 A 
HETATM   33  N1  UNL     1     -24.278  45.622  13.069  1.00  0.00    -0.343 N 
HETATM   34  C3  UNL     1     -25.176  45.800  12.079  1.00  0.00     0.133 A 
ATOM     35  H1  UNL     1     -23.740  44.771  13.237  1.00  0.00     0.167 HD
HETATM   36  C4  UNL     1     -25.683  47.080  12.196  1.00  0.00     0.143 A 
HETATM   37  F1  UNL     1     -26.614  47.627  11.377  1.00  0.00    -0.204 F 
BRANCH  32  38
HETATM   38  O1  UNL     1     -23.407  46.986  14.909  1.00  0.00    -0.340 OA
HETATM   39  C1  UNL     1     -23.868  46.792  16.213  1.00  0.00     0.211 C 
ENDBRANCH  32  38
ENDBRANCH  30  31
ENDBRANCH  28  30
ENDBRANCH   1  28
TORSDOF 10
ENDMDL
MODEL 5
REMARK VINA RESULT: -6.695333307      3.899      9.318
REMARK  10 active torsions:
REMARK  status: ('A' for Active; 'I' for Inactive)
REMARK    1  A    between atoms: O1_2  and  C2_3 
REMARK    2  A    between atoms: C5_9  and  C6_10 
REMARK    3  A    between atoms: C6_10  and  N2_11 
REMARK    4  A    between atoms: N2_11  and  C7_13 
REMARK    5  A    between atoms: C8_16  and  N4_17 
REMARK    6  A    between atoms: C9_22  and  C10_23 
REMARK    7  A    between atoms: C12_27  and  S1_28 
REMARK    8  A    between atoms: S1_28  and  C13_29 
REMARK    9  A    between atoms: C13_29  and  C14_30 
REMARK   10  A    between atoms: C14_30  and  N7_31 
ROOT
HETATM    1  C7  UNL     1     -23.696  51.650  16.181  1.00  0.00     0.158 A 
HETATM    2  N3  UNL     1     -24.907  51.996  16.659  1.00  0.00    -0.174 N 
ATOM      3  H3  UNL     1     -24.970  52.812  17.267  1.00  0.00     0.186 HD
HETATM    4  C8  UNL     1     -26.034  51.326  16.381  1.00  0.00     0.678 A 
HETATM    5  N5  UNL     1     -25.990  50.245  15.586  1.00  0.00    -0.186 N 
ATOM      6  H5  UNL     1     -26.844  49.732  15.369  1.00  0.00     0.184 HD
HETATM    7  C9  UNL     1     -24.800  49.843  15.072  1.00  0.00     0.119 A 
HETATM    8  C16 UNL     1     -23.640  50.530  15.355  1.00  0.00     0.190 A 
HETATM    9  F2  UNL     1     -22.465  50.129  14.844  1.00  0.00    -0.200 F 
ENDROOT
BRANCH   7  10
HETATM   10  C10 UNL     1     -24.779  48.654  14.204  1.00  0.00     0.080 A 
HETATM   11  C11 UNL     1     -24.362  48.569  12.901  1.00  0.00     0.122 A 
HETATM   12  N6  UNL     1     -24.509  47.286  12.464  1.00  0.00    -0.344 N 
HETATM   13  C12 UNL     1     -25.011  46.598  13.490  1.00  0.00     0.144 A 
ATOM     14  H6  UNL     1     -24.280  46.925  11.537  1.00  0.00     0.167 HD
HETATM   15  N10 UNL     1     -25.175  47.424  14.545  1.00  0.00    -0.334 N 
ATOM     16  H10 UNL     1     -25.543  47.153  15.458  1.00  0.00     0.168 HD
BRANCH  13  17
HETATM   17  S1  UNL     1     -25.426  44.862  13.520  1.00  0.00    -0.092 SA
BRANCH  17  18
HETATM   18  C13 UNL     1     -25.742  44.189  11.887  1.00  0.00     0.102 C 
BRANCH  18  19
HETATM   19  C14 UNL     1     -27.018  44.732  11.302  1.00  0.00     0.132 C 
BRANCH  19  20
HETATM   20  N7  UNL     1     -26.808  45.297   9.980  1.00  0.00    -0.366 N 
HETATM   21  C15 UNL     1     -26.870  46.568   9.761  1.00  0.00     0.196 C 
HETATM   22  N8  UNL     1     -27.144  47.477  10.798  1.00  0.00    -0.067 NA
HETATM   23  N9  UNL     1     -26.654  47.040   8.451  1.00  0.00    -0.067 NA
ATOM     24  H7  UNL     1     -26.607  44.671   9.201  1.00  0.00     0.161 HD
ENDBRANCH  19  20
ENDBRANCH  18  19
ENDBRANCH  17  18
ENDBRANCH  13  17
ENDBRANCH   7  10
BRANCH   4  25
HETATM   25  N4  UNL     1     -27.165  51.701  16.865  1.00  0.00    -0.234 N 
ATOM     26  H42 UNL     1     -27.953  51.843  16.233  1.00  0.00     0.174 HD
ATOM     27  H41 UNL     1     -27.282  51.856  17.866  1.00  0.00     0.174 HD
ENDBRANCH   4  25
BRANCH   1  28
HETATM   28  N2  UNL     1     -22.609  52.309  16.459  1.00  0.00    -0.369 N 
ATOM     29  H2  UNL     1     -22.324  52.496  17.420  1.00  0.00     0.161 HD
BRANCH  28  30
HETATM   30  C6  UNL     1     -21.826  52.764  15.326  1.00  0.00     0.167 C 
BRANCH  30  31
HETATM   31  C5  UNL     1     -20.950  53.902  15.749  1.00  0.00     0.050 A 
HETATM   32  C2  UNL     1     -20.969  55.193  15.294  1.00  0.00     0.152 A 
HETATM   33  N1  UNL     1     -20.008  55.906  15.939  1.00  0.00    -0.343 N 
HETATM   34  C3  UNL     1     -19.371  55.089  16.803  1.00  0.00     0.133 A 
ATOM     35  H1  UNL     1     -19.802  56.895  15.794  1.00  0.00     0.167 HD
HETATM   36  C4  UNL     1     -19.945  53.836  16.700  1.00  0.00     0.143 A 
HETATM   37  F1  UNL     1     -19.572  52.747  17.413  1.00  0.00    -0.204 F 
BRANCH  32  38
HETATM   38  O1  UNL     1     -21.840  55.664  14.329  1.00  0.00    -0.340 OA
HETATM   39  C1  UNL     1     -21.574  56.819  13.590  1.00  0.00     0.211 C 
ENDBRANCH  32  38
ENDBRANCH  30  31
ENDBRANCH  28  30
ENDBRANCH   1  28
TORSDOF 10
ENDMDL
