MODEL 1
REMARK VINA RESULT: -6.623605634      0.000      0.000
REMARK  12 active torsions:
REMARK  status: ('A' for Active; 'I' for Inactive)
REMARK    1  A    between atoms: C2_5  and  C3_6 
REMARK    2  A    between atoms: C3_6  and  C4_7 
REMARK    3  A    between atoms: C4_7  and  C5_8 
REMARK    4  A    between atoms: C5_8  and  C6_9 
REMARK    5  A    between atoms: C6_9  and  C7_10 
REMARK    6  A    between atoms: C7_10  and  C8_11 
REMARK    7  A    between atoms: C10_14  and  N3_15 
REMARK    8  A    between atoms: N3_15  and  C11_17 
REMARK    9  A    between atoms: C12_19  and  C13_20 
REMARK   10  A    between atoms: C13_20  and  O2_21 
REMARK   11  A    between atoms: C14_23  and  O3_24 
REMARK   12  A    between atoms: C15_26  and  O4_27 
ROOT
HETATM    1  N1  UNL     1     -23.459  54.256  19.405  1.00  0.00    -0.081 NA
HETATM    2  C1  UNL     1     -22.899  53.744  18.203  1.00  0.00     0.143 A 
HETATM    3  N2  UNL     1     -21.777  54.241  17.659  1.00  0.00    -0.347 N 
ATOM      4  H2  UNL     1     -21.306  55.017  18.124  1.00  0.00     0.167 HD
HETATM    5  C2  UNL     1     -21.253  53.753  16.525  1.00  0.00     0.012 A 
HETATM    6  C9  UNL     1     -21.846  52.716  15.865  1.00  0.00     0.056 A 
HETATM    7  C10 UNL     1     -23.037  52.129  16.369  1.00  0.00     0.059 A 
HETATM    8  C16 UNL     1     -23.513  52.679  17.530  1.00  0.00     0.114 A 
HETATM    9  N4  UNL     1     -24.703  52.189  18.156  1.00  0.00    -0.096 NA
ENDROOT
BRANCH   7  10
HETATM   10  N3  UNL     1     -23.559  51.177  15.741  1.00  0.00    -0.360 N 
ATOM     11  H3  UNL     1     -24.334  50.762  16.258  1.00  0.00     0.162 HD
BRANCH  10  12
HETATM   12  C11 UNL     1     -23.349  50.540  14.515  1.00  0.00     0.253 C 
HETATM   13  O1  UNL     1     -24.508  50.751  13.729  1.00  0.00    -0.354 OA
HETATM   14  C12 UNL     1     -25.334  49.706  14.131  1.00  0.00     0.179 C 
HETATM   15  C14 UNL     1     -24.385  48.529  13.846  1.00  0.00     0.182 C 
HETATM   16  C15 UNL     1     -23.166  49.039  14.612  1.00  0.00     0.198 C 
BRANCH  14  17
HETATM   17  C13 UNL     1     -26.579  49.603  13.297  1.00  0.00     0.198 C 
BRANCH  17  18
HETATM   18  O2  UNL     1     -27.367  50.726  13.351  1.00  0.00    -0.398 OA
ATOM     19  H2  UNL     1     -27.129  51.386  12.709  1.00  0.00     0.209 HD
ENDBRANCH  17  18
ENDBRANCH  14  17
BRANCH  15  20
HETATM   20  O3  UNL     1     -24.046  48.500  12.499  1.00  0.00    -0.390 OA
ATOM     21  H3  UNL     1     -23.203  48.916  12.363  1.00  0.00     0.210 HD
ENDBRANCH  15  20
BRANCH  16  22
HETATM   22  O4  UNL     1     -23.326  48.695  15.965  1.00  0.00    -0.389 OA
ATOM     23  H4  UNL     1     -22.466  48.742  16.365  1.00  0.00     0.210 HD
ENDBRANCH  16  22
ENDBRANCH  10  12
ENDBRANCH   7  10
BRANCH   5  24
HETATM   24  C3  UNL     1     -20.002  54.360  15.983  1.00  0.00     0.057 C 
BRANCH  24  25
HETATM   25  C4  UNL     1     -19.262  55.110  17.048  1.00  0.00     0.006 C 
BRANCH  25  26
HETATM   26  C5  UNL     1     -19.236  56.578  16.775  1.00  0.00     0.000 C 
BRANCH  26  27
HETATM   27  C6  UNL     1     -19.618  56.951  15.364  1.00  0.00     0.001 C 
BRANCH  27  28
HETATM   28  C7  UNL     1     -19.761  58.457  15.305  1.00  0.00     0.011 C 
BRANCH  28  29
HETATM   29  C8  UNL     1     -20.857  58.842  14.302  1.00  0.00     0.085 C 
HETATM   30 BR1  UNL     1     -21.605  57.270  13.491  1.00  0.00    -0.097 Br
ENDBRANCH  28  29
ENDBRANCH  27  28
ENDBRANCH  26  27
ENDBRANCH  25  26
ENDBRANCH  24  25
ENDBRANCH   5  24
TORSDOF 12
ENDMDL
MODEL 2
REMARK VINA RESULT: -6.577964222      6.245      8.814
REMARK  12 active torsions:
REMARK  status: ('A' for Active; 'I' for Inactive)
REMARK    1  A    between atoms: C2_5  and  C3_6 
REMARK    2  A    between atoms: C3_6  and  C4_7 
REMARK    3  A    between atoms: C4_7  and  C5_8 
REMARK    4  A    between atoms: C5_8  and  C6_9 
REMARK    5  A    between atoms: C6_9  and  C7_10 
REMARK    6  A    between atoms: C7_10  and  C8_11 
REMARK    7  A    between atoms: C10_14  and  N3_15 
REMARK    8  A    between atoms: N3_15  and  C11_17 
REMARK    9  A    between atoms: C12_19  and  C13_20 
REMARK   10  A    between atoms: C13_20  and  O2_21 
REMARK   11  A    between atoms: C14_23  and  O3_24 
REMARK   12  A    between atoms: C15_26  and  O4_27 
ROOT
HETATM    1  N1  UNL     1     -20.265  51.448  20.248  1.00  0.00    -0.081 NA
HETATM    2  C1  UNL     1     -19.842  52.564  19.476  1.00  0.00     0.143 A 
HETATM    3  N2  UNL     1     -20.162  52.712  18.181  1.00  0.00    -0.347 N 
ATOM      4  H2  UNL     1     -20.731  51.995  17.730  1.00  0.00     0.167 HD
HETATM    5  C2  UNL     1     -19.759  53.767  17.458  1.00  0.00     0.012 A 
HETATM    6  C9  UNL     1     -18.995  54.751  18.015  1.00  0.00     0.056 A 
HETATM    7  C10 UNL     1     -18.610  54.677  19.379  1.00  0.00     0.059 A 
HETATM    8  C16 UNL     1     -19.057  53.571  20.054  1.00  0.00     0.114 A 
HETATM    9  N4  UNL     1     -18.748  53.363  21.436  1.00  0.00    -0.096 NA
ENDROOT
BRANCH   7  10
HETATM   10  N3  UNL     1     -17.908  55.596  19.864  1.00  0.00    -0.360 N 
ATOM     11  H3  UNL     1     -17.005  55.252  20.192  1.00  0.00     0.162 HD
BRANCH  10  12
HETATM   12  C11 UNL     1     -18.046  56.972  20.069  1.00  0.00     0.253 C 
HETATM   13  O1  UNL     1     -16.893  57.594  19.533  1.00  0.00    -0.354 OA
HETATM   14  C12 UNL     1     -15.997  57.526  20.595  1.00  0.00     0.179 C 
HETATM   15  C14 UNL     1     -16.848  58.224  21.670  1.00  0.00     0.182 C 
HETATM   16  C15 UNL     1     -18.116  57.384  21.525  1.00  0.00     0.198 C 
BRANCH  14  17
HETATM   17  C13 UNL     1     -14.733  58.294  20.332  1.00  0.00     0.198 C 
BRANCH  17  18
HETATM   18  O2  UNL     1     -14.437  58.418  18.998  1.00  0.00    -0.398 OA
ATOM     19  H2  UNL     1     -13.722  57.859  18.715  1.00  0.00     0.209 HD
ENDBRANCH  17  18
ENDBRANCH  14  17
BRANCH  15  20
HETATM   20  O3  UNL     1     -17.160  59.517  21.272  1.00  0.00    -0.390 OA
ATOM     21  H3  UNL     1     -18.012  59.536  20.853  1.00  0.00     0.210 HD
ENDBRANCH  15  20
BRANCH  16  22
HETATM   22  O4  UNL     1     -17.954  56.215  22.288  1.00  0.00    -0.389 OA
ATOM     23  H4  UNL     1     -17.125  55.829  22.030  1.00  0.00     0.210 HD
ENDBRANCH  16  22
ENDBRANCH  10  12
ENDBRANCH   7  10
BRANCH   5  24
HETATM   24  C3  UNL     1     -20.157  53.858  16.022  1.00  0.00     0.057 C 
BRANCH  24  25
HETATM   25  C4  UNL     1     -20.485  55.269  15.642  1.00  0.00     0.006 C 
BRANCH  25  26
HETATM   26  C5  UNL     1     -21.564  55.329  14.613  1.00  0.00     0.000 C 
BRANCH  26  27
HETATM   27  C6  UNL     1     -21.598  56.616  13.826  1.00  0.00     0.001 C 
BRANCH  27  28
HETATM   28  C7  UNL     1     -20.501  57.514  14.356  1.00  0.00     0.011 C 
BRANCH  28  29
HETATM   29  C8  UNL     1     -20.984  58.970  14.388  1.00  0.00     0.085 C 
HETATM   30 BR1  UNL     1     -22.438  59.221  13.158  1.00  0.00    -0.097 Br
ENDBRANCH  28  29
ENDBRANCH  27  28
ENDBRANCH  26  27
ENDBRANCH  25  26
ENDBRANCH  24  25
ENDBRANCH   5  24
TORSDOF 12
ENDMDL
MODEL 3
REMARK VINA RESULT: -6.239499258      1.109      1.741
REMARK  12 active torsions:
REMARK  status: ('A' for Active; 'I' for Inactive)
REMARK    1  A    between atoms: C2_5  and  C3_6 
REMARK    2  A    between atoms: C3_6  and  C4_7 
REMARK    3  A    between atoms: C4_7  and  C5_8 
REMARK    4  A    between atoms: C5_8  and  C6_9 
REMARK    5  A    between atoms: C6_9  and  C7_10 
REMARK    6  A    between atoms: C7_10  and  C8_11 
REMARK    7  A    between atoms: C10_14  and  N3_15 
REMARK    8  A    between atoms: N3_15  and  C11_17 
REMARK    9  A    between atoms: C12_19  and  C13_20 
REMARK   10  A    between atoms: C13_20  and  O2_21 
REMARK   11  A    between atoms: C14_23  and  O3_24 
REMARK   12  A    between atoms: C15_26  and  O4_27 
ROOT
HETATM    1  N1  UNL     1     -23.425  54.438  19.480  1.00  0.00    -0.081 NA
HETATM    2  C1  UNL     1     -22.802  53.860  18.341  1.00  0.00     0.143 A 
HETATM    3  N2  UNL     1     -21.555  54.176  17.959  1.00  0.00    -0.347 N 
ATOM      4  H2  UNL     1     -21.031  54.859  18.506  1.00  0.00     0.167 HD
HETATM    5  C2  UNL     1     -20.973  53.627  16.883  1.00  0.00     0.012 A 
HETATM    6  C9  UNL     1     -21.632  52.708  16.118  1.00  0.00     0.056 A 
HETATM    7  C10 UNL     1     -22.956  52.315  16.448  1.00  0.00     0.059 A 
HETATM    8  C16 UNL     1     -23.485  52.918  17.559  1.00  0.00     0.114 A 
HETATM    9  N4  UNL     1     -24.809  52.617  18.013  1.00  0.00    -0.096 NA
ENDROOT
BRANCH   7  10
HETATM   10  N3  UNL     1     -23.537  51.469  15.727  1.00  0.00    -0.360 N 
ATOM     11  H3  UNL     1     -23.628  51.792  14.763  1.00  0.00     0.162 HD
BRANCH  10  12
HETATM   12  C11 UNL     1     -24.091  50.198  15.906  1.00  0.00     0.253 C 
HETATM   13  O1  UNL     1     -23.455  49.330  14.986  1.00  0.00    -0.354 OA
HETATM   14  C12 UNL     1     -24.221  49.502  13.837  1.00  0.00     0.179 C 
HETATM   15  C14 UNL     1     -25.604  49.165  14.420  1.00  0.00     0.182 C 
HETATM   16  C15 UNL     1     -25.575  50.115  15.616  1.00  0.00     0.198 C 
BRANCH  14  17
HETATM   17  C13 UNL     1     -23.850  48.536  12.748  1.00  0.00     0.198 C 
BRANCH  17  18
HETATM   18  O2  UNL     1     -24.929  47.887  12.202  1.00  0.00    -0.398 OA
ATOM     19  H2  UNL     1     -24.887  47.814  11.256  1.00  0.00     0.209 HD
ENDBRANCH  17  18
ENDBRANCH  14  17
BRANCH  15  20
HETATM   20  O3  UNL     1     -25.612  47.869  14.920  1.00  0.00    -0.390 OA
ATOM     21  H3  UNL     1     -26.485  47.499  14.859  1.00  0.00     0.210 HD
ENDBRANCH  15  20
BRANCH  16  22
HETATM   22  O4  UNL     1     -25.976  51.387  15.172  1.00  0.00    -0.389 OA
ATOM     23  H4  UNL     1     -26.488  51.775  15.872  1.00  0.00     0.210 HD
ENDBRANCH  16  22
ENDBRANCH  10  12
ENDBRANCH   7  10
BRANCH   5  24
HETATM   24  C3  UNL     1     -19.582  54.031  16.524  1.00  0.00     0.057 C 
BRANCH  24  25
HETATM   25  C4  UNL     1     -19.308  55.445  16.937  1.00  0.00     0.006 C 
BRANCH  25  26
HETATM   26  C5  UNL     1     -19.555  56.405  15.821  1.00  0.00     0.000 C 
BRANCH  26  27
HETATM   27  C6  UNL     1     -18.887  57.746  15.999  1.00  0.00     0.001 C 
BRANCH  27  28
HETATM   28  C7  UNL     1     -19.631  58.753  15.149  1.00  0.00     0.011 C 
BRANCH  28  29
HETATM   29  C8  UNL     1     -20.584  58.029  14.189  1.00  0.00     0.085 C 
HETATM   30 BR1  UNL     1     -21.993  59.207  13.627  1.00  0.00    -0.097 Br
ENDBRANCH  28  29
ENDBRANCH  27  28
ENDBRANCH  26  27
ENDBRANCH  25  26
ENDBRANCH  24  25
ENDBRANCH   5  24
TORSDOF 12
ENDMDL
MODEL 4
REMARK VINA RESULT: -6.125976787      4.883      6.977
REMARK  12 active torsions:
REMARK  status: ('A' for Active; 'I' for Inactive)
REMARK    1  A    between atoms: C2_5  and  C3_6 
REMARK    2  A    between atoms: C3_6  and  C4_7 
REMARK    3  A    between atoms: C4_7  and  C5_8 
REMARK    4  A    between atoms: C5_8  and  C6_9 
REMARK    5  A    between atoms: C6_9  and  C7_10 
REMARK    6  A    between atoms: C7_10  and  C8_11 
REMARK    7  A    between atoms: C10_14  and  N3_15 
REMARK    8  A    between atoms: N3_15  and  C11_17 
REMARK    9  A    between atoms: C12_19  and  C13_20 
REMARK   10  A    between atoms: C13_20  and  O2_21 
REMARK   11  A    between atoms: C14_23  and  O3_24 
REMARK   12  A    between atoms: C15_26  and  O4_27 
ROOT
HETATM    1  N1  UNL     1     -23.310  53.493  18.477  1.00  0.00    -0.081 NA
HETATM    2  C1  UNL     1     -21.928  53.661  18.193  1.00  0.00     0.143 A 
HETATM    3  N2  UNL     1     -21.478  54.527  17.271  1.00  0.00    -0.347 N 
ATOM      4  H2  UNL     1     -22.154  55.089  16.752  1.00  0.00     0.167 HD
HETATM    5  C2  UNL     1     -20.173  54.681  17.007  1.00  0.00     0.012 A 
HETATM    6  C9  UNL     1     -19.229  53.954  17.673  1.00  0.00     0.056 A 
HETATM    7  C10 UNL     1     -19.615  53.013  18.665  1.00  0.00     0.059 A 
HETATM    8  C16 UNL     1     -20.964  52.911  18.880  1.00  0.00     0.114 A 
HETATM    9  N4  UNL     1     -21.499  52.005  19.851  1.00  0.00    -0.096 NA
ENDROOT
BRANCH   7  10
HETATM   10  N3  UNL     1     -18.726  52.359  19.260  1.00  0.00    -0.360 N 
ATOM     11  H3  UNL     1     -18.289  51.669  18.649  1.00  0.00     0.162 HD
BRANCH  10  12
HETATM   12  C11 UNL     1     -18.181  52.334  20.547  1.00  0.00     0.253 C 
HETATM   13  O1  UNL     1     -16.796  52.604  20.422  1.00  0.00    -0.354 OA
HETATM   14  C12 UNL     1     -16.270  51.339  20.175  1.00  0.00     0.179 C 
HETATM   15  C14 UNL     1     -16.826  50.604  21.406  1.00  0.00     0.182 C 
HETATM   16  C15 UNL     1     -18.294  50.997  21.250  1.00  0.00     0.198 C 
BRANCH  14  17
HETATM   17  C13 UNL     1     -14.767  51.331  20.181  1.00  0.00     0.198 C 
BRANCH  17  18
HETATM   18  O2  UNL     1     -14.227  50.103  19.893  1.00  0.00    -0.398 OA
ATOM     19  H2  UNL     1     -13.357  50.152  19.513  1.00  0.00     0.209 HD
ENDBRANCH  17  18
ENDBRANCH  14  17
BRANCH  15  20
HETATM   20  O3  UNL     1     -16.360  51.196  22.572  1.00  0.00    -0.390 OA
ATOM     21  H3  UNL     1     -15.432  51.390  22.494  1.00  0.00     0.210 HD
ENDBRANCH  15  20
BRANCH  16  22
HETATM   22  O4  UNL     1     -18.891  50.108  20.341  1.00  0.00    -0.389 OA
ATOM     23  H4  UNL     1     -18.443  50.221  19.511  1.00  0.00     0.210 HD
ENDBRANCH  16  22
ENDBRANCH  10  12
ENDBRANCH   7  10
BRANCH   5  24
HETATM   24  C3  UNL     1     -19.754  55.666  15.967  1.00  0.00     0.057 C 
BRANCH  24  25
HETATM   25  C4  UNL     1     -19.194  56.906  16.593  1.00  0.00     0.006 C 
BRANCH  25  26
HETATM   26  C5  UNL     1     -18.856  57.939  15.569  1.00  0.00     0.000 C 
BRANCH  26  27
HETATM   27  C6  UNL     1     -20.055  58.627  14.965  1.00  0.00     0.001 C 
BRANCH  27  28
HETATM   28  C7  UNL     1     -20.111  58.260  13.497  1.00  0.00     0.011 C 
BRANCH  28  29
HETATM   29  C8  UNL     1     -21.533  57.821  13.120  1.00  0.00     0.085 C 
HETATM   30 BR1  UNL     1     -22.724  59.328  13.130  1.00  0.00    -0.097 Br
ENDBRANCH  28  29
ENDBRANCH  27  28
ENDBRANCH  26  27
ENDBRANCH  25  26
ENDBRANCH  24  25
ENDBRANCH   5  24
TORSDOF 12
ENDMDL
MODEL 5
REMARK VINA RESULT: -6.091366258      2.291      3.321
REMARK  12 active torsions:
REMARK  status: ('A' for Active; 'I' for Inactive)
REMARK    1  A    between atoms: C2_5  and  C3_6 
REMARK    2  A    between atoms: C3_6  and  C4_7 
REMARK    3  A    between atoms: C4_7  and  C5_8 
REMARK    4  A    between atoms: C5_8  and  C6_9 
REMARK    5  A    between atoms: C6_9  and  C7_10 
REMARK    6  A    between atoms: C7_10  and  C8_11 
REMARK    7  A    between atoms: C10_14  and  N3_15 
REMARK    8  A    between atoms: N3_15  and  C11_17 
REMARK    9  A    between atoms: C12_19  and  C13_20 
REMARK   10  A    between atoms: C13_20  and  O2_21 
REMARK   11  A    between atoms: C14_23  and  O3_24 
REMARK   12  A    between atoms: C15_26  and  O4_27 
ROOT
HETATM    1  N1  UNL     1     -25.587  51.160  17.999  1.00  0.00    -0.081 NA
HETATM    2  C1  UNL     1     -24.851  50.933  16.804  1.00  0.00     0.143 A 
HETATM    3  N2  UNL     1     -23.755  51.638  16.484  1.00  0.00    -0.347 N 
ATOM      4  H2  UNL     1     -23.434  52.366  17.122  1.00  0.00     0.167 HD
HETATM    5  C2  UNL     1     -23.065  51.419  15.355  1.00  0.00     0.012 A 
HETATM    6  C9  UNL     1     -23.453  50.456  14.469  1.00  0.00     0.056 A 
HETATM    7  C10 UNL     1     -24.602  49.663  14.727  1.00  0.00     0.059 A 
HETATM    8  C16 UNL     1     -25.255  49.943  15.898  1.00  0.00     0.114 A 
HETATM    9  N4  UNL     1     -26.428  49.222  16.290  1.00  0.00    -0.096 NA
ENDROOT
BRANCH   7  10
HETATM   10  N3  UNL     1     -24.935  48.786  13.894  1.00  0.00    -0.360 N 
ATOM     11  H3  UNL     1     -25.916  48.867  13.628  1.00  0.00     0.162 HD
BRANCH  10  12
HETATM   12  C11 UNL     1     -24.304  47.725  13.238  1.00  0.00     0.253 C 
HETATM   13  O1  UNL     1     -24.828  47.673  11.924  1.00  0.00    -0.354 OA
HETATM   14  C12 UNL     1     -25.968  46.893  12.089  1.00  0.00     0.179 C 
HETATM   15  C14 UNL     1     -25.320  45.656  12.733  1.00  0.00     0.182 C 
HETATM   16  C15 UNL     1     -24.562  46.365  13.854  1.00  0.00     0.198 C 
BRANCH  14  17
HETATM   17  C13 UNL     1     -26.616  46.537  10.781  1.00  0.00     0.198 C 
BRANCH  17  18
HETATM   18  O2  UNL     1     -26.970  47.631  10.031  1.00  0.00    -0.398 OA
ATOM     19  H2  UNL     1     -27.205  48.389  10.555  1.00  0.00     0.209 HD
ENDBRANCH  17  18
ENDBRANCH  14  17
BRANCH  15  20
HETATM   20  O3  UNL     1     -24.375  45.107  11.876  1.00  0.00    -0.390 OA
ATOM     21  H3  UNL     1     -24.419  44.158  11.902  1.00  0.00     0.210 HD
ENDBRANCH  15  20
BRANCH  16  22
HETATM   22  O4  UNL     1     -25.451  46.563  14.924  1.00  0.00    -0.389 OA
ATOM     23  H4  UNL     1     -25.125  46.049  15.653  1.00  0.00     0.210 HD
ENDBRANCH  16  22
ENDBRANCH  10  12
ENDBRANCH   7  10
BRANCH   5  24
HETATM   24  C3  UNL     1     -21.856  52.246  15.071  1.00  0.00     0.057 C 
BRANCH  24  25
HETATM   25  C4  UNL     1     -21.508  53.112  16.242  1.00  0.00     0.006 C 
BRANCH  25  26
HETATM   26  C5  UNL     1     -21.848  54.544  15.991  1.00  0.00     0.000 C 
BRANCH  26  27
HETATM   27  C6  UNL     1     -20.824  55.289  15.172  1.00  0.00     0.001 C 
BRANCH  27  28
HETATM   28  C7  UNL     1     -21.564  56.109  14.136  1.00  0.00     0.011 C 
BRANCH  28  29
HETATM   29  C8  UNL     1     -20.878  57.469  13.955  1.00  0.00     0.085 C 
HETATM   30 BR1  UNL     1     -22.152  58.795  13.401  1.00  0.00    -0.097 Br
ENDBRANCH  28  29
ENDBRANCH  27  28
ENDBRANCH  26  27
ENDBRANCH  25  26
ENDBRANCH  24  25
ENDBRANCH   5  24
TORSDOF 12
ENDMDL
