MODEL 1
REMARK VINA RESULT: -5.876035651      0.000      0.000
REMARK  14 active torsions:
REMARK  status: ('A' for Active; 'I' for Inactive)
REMARK    1  A    between atoms: C2_2  and  C3_3 
REMARK    2  A    between atoms: C3_3  and  C4_4 
REMARK    3  A    between atoms: C4_4  and  C5_5 
REMARK    4  A    between atoms: C6_6  and  C7_7 
REMARK    5  A    between atoms: C8_10  and  N2_11 
REMARK    6  A    between atoms: C9_16  and  N4_17 
REMARK    7  A    between atoms: N4_17  and  C10_19 
REMARK    8  A    between atoms: C10_19  and  C11_20 
REMARK    9  A    between atoms: C11_20  and  C12_21 
REMARK   10  A    between atoms: C12_21  and  O1_22 
REMARK   11  A    between atoms: C13_24  and  C14_25 
REMARK   12  A    between atoms: C14_25  and  C18_37 
REMARK   13  A    between atoms: N5_26  and  N6_28 
REMARK   14  A    between atoms: N6_28  and  C15_30 
ROOT
HETATM    1  C7  UNL     1     -19.174  55.267  18.299  1.00  0.00     0.119 A 
HETATM    2  N1  UNL     1     -18.163  55.271  19.233  1.00  0.00    -0.183 N 
ATOM      3  H1  UNL     1     -17.481  56.029  19.216  1.00  0.00     0.185 HD
HETATM    4  C8  UNL     1     -18.045  54.329  20.152  1.00  0.00     0.678 A 
HETATM    5  N3  UNL     1     -18.940  53.347  20.165  1.00  0.00    -0.176 N 
ATOM      6  H3  UNL     1     -18.866  52.613  20.869  1.00  0.00     0.186 HD
HETATM    7  C9  UNL     1     -19.924  53.302  19.289  1.00  0.00     0.132 A 
HETATM    8  C13 UNL     1     -20.090  54.293  18.277  1.00  0.00     0.072 A 
ENDROOT
BRANCH   8   9
HETATM    9  C14 UNL     1     -21.127  54.064  17.273  1.00  0.00     0.081 C 
HETATM   10  N5  UNL     1     -22.316  54.164  17.828  1.00  0.00    -0.298 N 
ATOM     11  H5  UNL     1     -22.262  54.375  18.825  1.00  0.00     0.187 HD
BRANCH  10  12
HETATM   12  N6  UNL     1     -23.551  54.060  17.409  1.00  0.00    -0.271 N 
ATOM     13  H6  UNL     1     -23.713  53.581  16.522  1.00  0.00     0.190 HD
BRANCH  12  14
HETATM   14  C15 UNL     1     -24.709  54.578  18.120  1.00  0.00     0.190 C 
HETATM   15  N7  UNL     1     -24.724  55.037  19.314  1.00  0.00    -0.360 N 
HETATM   16  C16 UNL     1     -26.024  55.475  19.727  1.00  0.00     0.142 C 
ATOM     17  H7  UNL     1     -23.898  55.087  19.909  1.00  0.00     0.162 HD
HETATM   18  C17 UNL     1     -26.776  55.590  18.425  1.00  0.00     0.142 C 
HETATM   19  N8  UNL     1     -26.018  54.659  17.599  1.00  0.00    -0.360 N 
ATOM     20  H8  UNL     1     -26.371  54.155  16.787  1.00  0.00     0.162 HD
ENDBRANCH  12  14
ENDBRANCH  10  12
BRANCH   9  21
HETATM   21  C18 UNL     1     -21.147  53.691  15.884  1.00  0.00     0.140 C 
HETATM   22  C19 UNL     1     -21.534  54.853  14.996  1.00  0.00     0.058 C 
HETATM   23  C20 UNL     1     -21.805  52.425  15.477  1.00  0.00     0.058 C 
HETATM   24  F1  UNL     1     -19.744  53.499  15.479  1.00  0.00    -0.237 F 
ENDBRANCH   9  21
ENDBRANCH   8   9
BRANCH   1  25
HETATM   25  C6  UNL     1     -19.241  56.426  17.462  1.00  0.00    -0.047 C 
HETATM   26  C5  UNL     1     -19.253  57.354  16.711  1.00  0.00    -0.100 C 
BRANCH  26  27
HETATM   27  C4  UNL     1     -19.256  58.492  15.792  1.00  0.00     0.094 C 
BRANCH  27  28
HETATM   28  C3  UNL     1     -19.928  58.085  14.480  1.00  0.00     0.012 C 
BRANCH  28  29
HETATM   29  C2  UNL     1     -21.110  58.973  14.216  1.00  0.00    -0.004 C 
HETATM   30  C1  UNL     1     -22.126  58.292  13.314  1.00  0.00     0.005 C 
ENDBRANCH  28  29
ENDBRANCH  27  28
ENDBRANCH  26  27
ENDBRANCH   1  25
BRANCH   7  31
HETATM   31  N4  UNL     1     -20.755  52.315  19.344  1.00  0.00    -0.375 N 
ATOM     32  H4  UNL     1     -21.037  51.876  18.468  1.00  0.00     0.161 HD
BRANCH  31  33
HETATM   33  C10 UNL     1     -21.302  51.803  20.554  1.00  0.00     0.123 C 
BRANCH  33  34
HETATM   34  C11 UNL     1     -22.696  52.305  20.834  1.00  0.00     0.045 C 
BRANCH  34  35
HETATM   35  C12 UNL     1     -23.694  51.460  20.086  1.00  0.00     0.165 C 
BRANCH  35  36
HETATM   36  O1  UNL     1     -23.392  51.385  18.732  1.00  0.00    -0.401 OA
ATOM     37  H1  UNL     1     -24.131  51.073  18.224  1.00  0.00     0.209 HD
ENDBRANCH  35  36
ENDBRANCH  34  35
ENDBRANCH  33  34
ENDBRANCH  31  33
ENDBRANCH   7  31
BRANCH   4  38
HETATM   38  N2  UNL     1     -17.069  54.362  21.024  1.00  0.00    -0.234 N 
ATOM     39  H22 UNL     1     -16.115  54.581  20.736  1.00  0.00     0.174 HD
ATOM     40  H21 UNL     1     -17.244  54.171  22.010  1.00  0.00     0.174 HD
ENDBRANCH   4  38
TORSDOF 14
ENDMDL
MODEL 2
REMARK VINA RESULT: -5.760714418      1.587      2.031
REMARK  14 active torsions:
REMARK  status: ('A' for Active; 'I' for Inactive)
REMARK    1  A    between atoms: C2_2  and  C3_3 
REMARK    2  A    between atoms: C3_3  and  C4_4 
REMARK    3  A    between atoms: C4_4  and  C5_5 
REMARK    4  A    between atoms: C6_6  and  C7_7 
REMARK    5  A    between atoms: C8_10  and  N2_11 
REMARK    6  A    between atoms: C9_16  and  N4_17 
REMARK    7  A    between atoms: N4_17  and  C10_19 
REMARK    8  A    between atoms: C10_19  and  C11_20 
REMARK    9  A    between atoms: C11_20  and  C12_21 
REMARK   10  A    between atoms: C12_21  and  O1_22 
REMARK   11  A    between atoms: C13_24  and  C14_25 
REMARK   12  A    between atoms: C14_25  and  C18_37 
REMARK   13  A    between atoms: N5_26  and  N6_28 
REMARK   14  A    between atoms: N6_28  and  C15_30 
ROOT
HETATM    1  C7  UNL     1     -19.124  55.455  18.285  1.00  0.00     0.119 A 
HETATM    2  N1  UNL     1     -18.117  55.508  19.222  1.00  0.00    -0.183 N 
ATOM      3  H1  UNL     1     -17.462  56.289  19.195  1.00  0.00     0.185 HD
HETATM    4  C8  UNL     1     -17.969  54.584  20.155  1.00  0.00     0.678 A 
HETATM    5  N3  UNL     1     -18.830  53.572  20.181  1.00  0.00    -0.176 N 
ATOM      6  H3  UNL     1     -18.732  52.851  20.895  1.00  0.00     0.186 HD
HETATM    7  C9  UNL     1     -19.809  53.480  19.302  1.00  0.00     0.132 A 
HETATM    8  C13 UNL     1     -20.005  54.450  18.276  1.00  0.00     0.072 A 
ENDROOT
BRANCH   8   9
HETATM    9  C14 UNL     1     -21.030  54.170  17.272  1.00  0.00     0.081 C 
HETATM   10  N5  UNL     1     -22.223  54.210  17.828  1.00  0.00    -0.298 N 
ATOM     11  H5  UNL     1     -22.179  54.421  18.825  1.00  0.00     0.187 HD
BRANCH  10  12
HETATM   12  N6  UNL     1     -23.452  54.044  17.410  1.00  0.00    -0.271 N 
ATOM     13  H6  UNL     1     -23.847  54.760  16.800  1.00  0.00     0.190 HD
BRANCH  12  14
HETATM   14  C15 UNL     1     -24.293  52.908  17.755  1.00  0.00     0.190 C 
HETATM   15  N7  UNL     1     -25.570  52.864  17.698  1.00  0.00    -0.360 N 
HETATM   16  C16 UNL     1     -26.102  51.598  18.104  1.00  0.00     0.142 C 
ATOM     17  H7  UNL     1     -26.148  53.648  17.397  1.00  0.00     0.162 HD
HETATM   18  C17 UNL     1     -24.902  50.687  18.047  1.00  0.00     0.142 C 
HETATM   19  N8  UNL     1     -23.828  51.658  18.212  1.00  0.00    -0.360 N 
ATOM     20  H8  UNL     1     -22.901  51.466  18.592  1.00  0.00     0.162 HD
ENDBRANCH  12  14
ENDBRANCH  10  12
BRANCH   9  21
HETATM   21  C18 UNL     1     -21.033  53.798  15.882  1.00  0.00     0.140 C 
HETATM   22  C19 UNL     1     -21.489  54.936  14.997  1.00  0.00     0.058 C 
HETATM   23  C20 UNL     1     -21.619  52.496  15.476  1.00  0.00     0.058 C 
HETATM   24  F1  UNL     1     -19.623  53.688  15.473  1.00  0.00    -0.237 F 
ENDBRANCH   9  21
ENDBRANCH   8   9
BRANCH   1  25
HETATM   25  C6  UNL     1     -19.228  56.599  17.431  1.00  0.00    -0.047 C 
HETATM   26  C5  UNL     1     -19.267  57.516  16.668  1.00  0.00    -0.100 C 
BRANCH  26  27
HETATM   27  C4  UNL     1     -19.304  58.641  15.734  1.00  0.00     0.094 C 
BRANCH  27  28
HETATM   28  C3  UNL     1     -19.965  58.198  14.428  1.00  0.00     0.012 C 
BRANCH  28  29
HETATM   29  C2  UNL     1     -21.224  58.986  14.202  1.00  0.00    -0.004 C 
HETATM   30  C1  UNL     1     -22.197  58.232  13.310  1.00  0.00     0.005 C 
ENDBRANCH  28  29
ENDBRANCH  27  28
ENDBRANCH  26  27
ENDBRANCH   1  25
BRANCH   7  31
HETATM   31  N4  UNL     1     -20.605  52.466  19.370  1.00  0.00    -0.375 N 
ATOM     32  H4  UNL     1     -20.842  51.984  18.503  1.00  0.00     0.161 HD
BRANCH  31  33
HETATM   33  C10 UNL     1     -21.173  51.980  20.581  1.00  0.00     0.123 C 
BRANCH  33  34
HETATM   34  C11 UNL     1     -20.961  50.502  20.784  1.00  0.00     0.045 C 
BRANCH  34  35
HETATM   35  C12 UNL     1     -19.555  50.257  21.269  1.00  0.00     0.165 C 
BRANCH  35  36
HETATM   36  O1  UNL     1     -18.627  50.393  20.244  1.00  0.00    -0.401 OA
ATOM     37  H1  UNL     1     -17.759  50.580  20.579  1.00  0.00     0.209 HD
ENDBRANCH  35  36
ENDBRANCH  34  35
ENDBRANCH  33  34
ENDBRANCH  31  33
ENDBRANCH   7  31
BRANCH   4  38
HETATM   38  N2  UNL     1     -16.998  54.664  21.029  1.00  0.00    -0.234 N 
ATOM     39  H22 UNL     1     -16.203  54.025  20.991  1.00  0.00     0.174 HD
ATOM     40  H21 UNL     1     -17.016  55.368  21.766  1.00  0.00     0.174 HD
ENDBRANCH   4  38
TORSDOF 14
ENDMDL
MODEL 3
REMARK VINA RESULT: -5.661183474      2.437      3.715
REMARK  14 active torsions:
REMARK  status: ('A' for Active; 'I' for Inactive)
REMARK    1  A    between atoms: C2_2  and  C3_3 
REMARK    2  A    between atoms: C3_3  and  C4_4 
REMARK    3  A    between atoms: C4_4  and  C5_5 
REMARK    4  A    between atoms: C6_6  and  C7_7 
REMARK    5  A    between atoms: C8_10  and  N2_11 
REMARK    6  A    between atoms: C9_16  and  N4_17 
REMARK    7  A    between atoms: N4_17  and  C10_19 
REMARK    8  A    between atoms: C10_19  and  C11_20 
REMARK    9  A    between atoms: C11_20  and  C12_21 
REMARK   10  A    between atoms: C12_21  and  O1_22 
REMARK   11  A    between atoms: C13_24  and  C14_25 
REMARK   12  A    between atoms: C14_25  and  C18_37 
REMARK   13  A    between atoms: N5_26  and  N6_28 
REMARK   14  A    between atoms: N6_28  and  C15_30 
ROOT
HETATM    1  C7  UNL     1     -19.858  53.314  18.166  1.00  0.00     0.119 A 
HETATM    2  N1  UNL     1     -18.581  52.937  18.519  1.00  0.00    -0.183 N 
ATOM      3  H1  UNL     1     -17.793  53.328  18.002  1.00  0.00     0.185 HD
HETATM    4  C8  UNL     1     -18.340  52.088  19.502  1.00  0.00     0.678 A 
HETATM    5  N3  UNL     1     -19.375  51.587  20.169  1.00  0.00    -0.176 N 
ATOM      6  H3  UNL     1     -19.207  50.933  20.932  1.00  0.00     0.186 HD
HETATM    7  C9  UNL     1     -20.614  51.918  19.864  1.00  0.00     0.132 A 
HETATM    8  C13 UNL     1     -20.923  52.826  18.809  1.00  0.00     0.072 A 
ENDROOT
BRANCH   8   9
HETATM    9  C14 UNL     1     -22.333  53.007  18.468  1.00  0.00     0.081 C 
HETATM   10  N5  UNL     1     -22.651  52.226  17.456  1.00  0.00    -0.298 N 
ATOM     11  H5  UNL     1     -21.859  51.673  17.129  1.00  0.00     0.187 HD
BRANCH  10  12
HETATM   12  N6  UNL     1     -23.739  51.989  16.769  1.00  0.00    -0.271 N 
ATOM     13  H6  UNL     1     -24.547  52.591  16.936  1.00  0.00     0.190 HD
BRANCH  12  14
HETATM   14  C15 UNL     1     -23.877  50.928  15.785  1.00  0.00     0.190 C 
HETATM   15  N7  UNL     1     -23.777  51.051  14.516  1.00  0.00    -0.360 N 
HETATM   16  C16 UNL     1     -23.962  49.814  13.818  1.00  0.00     0.142 C 
ATOM     17  H7  UNL     1     -23.585  51.938  14.049  1.00  0.00     0.162 HD
HETATM   18  C17 UNL     1     -23.798  48.781  14.904  1.00  0.00     0.142 C 
HETATM   19  N8  UNL     1     -24.145  49.574  16.076  1.00  0.00    -0.360 N 
ATOM     20  H8  UNL     1     -24.517  49.213  16.954  1.00  0.00     0.162 HD
ENDBRANCH  12  14
ENDBRANCH  10  12
BRANCH   9  21
HETATM   21  C18 UNL     1     -23.396  53.866  18.915  1.00  0.00     0.140 C 
HETATM   22  C19 UNL     1     -22.874  55.030  19.727  1.00  0.00     0.058 C 
HETATM   23  C20 UNL     1     -24.618  53.267  19.508  1.00  0.00     0.058 C 
HETATM   24  F1  UNL     1     -23.897  54.572  17.725  1.00  0.00    -0.237 F 
ENDBRANCH   9  21
ENDBRANCH   8   9
BRANCH   1  25
HETATM   25  C6  UNL     1     -19.942  54.341  17.172  1.00  0.00    -0.047 C 
HETATM   26  C5  UNL     1     -20.081  55.218  16.375  1.00  0.00    -0.100 C 
BRANCH  26  27
HETATM   27  C4  UNL     1     -20.261  56.288  15.394  1.00  0.00     0.094 C 
BRANCH  27  28
HETATM   28  C3  UNL     1     -21.353  55.889  14.400  1.00  0.00     0.012 C 
BRANCH  28  29
HETATM   29  C2  UNL     1     -21.696  57.059  13.523  1.00  0.00    -0.004 C 
HETATM   30  C1  UNL     1     -21.033  58.334  14.014  1.00  0.00     0.005 C 
ENDBRANCH  28  29
ENDBRANCH  27  28
ENDBRANCH  26  27
ENDBRANCH   1  25
BRANCH   7  31
HETATM   31  N4  UNL     1     -21.578  51.387  20.539  1.00  0.00    -0.375 N 
ATOM     32  H4  UNL     1     -22.488  51.848  20.519  1.00  0.00     0.161 HD
BRANCH  31  33
HETATM   33  C10 UNL     1     -21.449  50.198  21.310  1.00  0.00     0.123 C 
BRANCH  33  34
HETATM   34  C11 UNL     1     -22.411  49.115  20.894  1.00  0.00     0.045 C 
BRANCH  34  35
HETATM   35  C12 UNL     1     -23.692  49.740  20.407  1.00  0.00     0.165 C 
BRANCH  35  36
HETATM   36  O1  UNL     1     -23.721  49.838  19.021  1.00  0.00    -0.401 OA
ATOM     37  H1  UNL     1     -23.633  50.738  18.731  1.00  0.00     0.209 HD
ENDBRANCH  35  36
ENDBRANCH  34  35
ENDBRANCH  33  34
ENDBRANCH  31  33
ENDBRANCH   7  31
BRANCH   4  38
HETATM   38  N2  UNL     1     -17.113  51.750  19.809  1.00  0.00    -0.234 N 
ATOM     39  H22 UNL     1     -16.368  52.446  19.835  1.00  0.00     0.174 HD
ATOM     40  H21 UNL     1     -16.879  50.783  20.031  1.00  0.00     0.174 HD
ENDBRANCH   4  38
TORSDOF 14
ENDMDL
MODEL 4
REMARK VINA RESULT: -5.491502319      2.634      5.621
REMARK  14 active torsions:
REMARK  status: ('A' for Active; 'I' for Inactive)
REMARK    1  A    between atoms: C2_2  and  C3_3 
REMARK    2  A    between atoms: C3_3  and  C4_4 
REMARK    3  A    between atoms: C4_4  and  C5_5 
REMARK    4  A    between atoms: C6_6  and  C7_7 
REMARK    5  A    between atoms: C8_10  and  N2_11 
REMARK    6  A    between atoms: C9_16  and  N4_17 
REMARK    7  A    between atoms: N4_17  and  C10_19 
REMARK    8  A    between atoms: C10_19  and  C11_20 
REMARK    9  A    between atoms: C11_20  and  C12_21 
REMARK   10  A    between atoms: C12_21  and  O1_22 
REMARK   11  A    between atoms: C13_24  and  C14_25 
REMARK   12  A    between atoms: C14_25  and  C18_37 
REMARK   13  A    between atoms: N5_26  and  N6_28 
REMARK   14  A    between atoms: N6_28  and  C15_30 
ROOT
HETATM    1  C7  UNL     1     -20.814  54.578  17.220  1.00  0.00     0.119 A 
HETATM    2  N1  UNL     1     -21.664  53.834  16.432  1.00  0.00    -0.183 N 
ATOM      3  H1  UNL     1     -21.793  54.105  15.457  1.00  0.00     0.185 HD
HETATM    4  C8  UNL     1     -22.319  52.784  16.894  1.00  0.00     0.678 A 
HETATM    5  N3  UNL     1     -22.141  52.440  18.166  1.00  0.00    -0.176 N 
ATOM      6  H3  UNL     1     -22.637  51.631  18.538  1.00  0.00     0.186 HD
HETATM    7  C9  UNL     1     -21.338  53.125  18.957  1.00  0.00     0.132 A 
HETATM    8  C13 UNL     1     -20.615  54.267  18.504  1.00  0.00     0.072 A 
ENDROOT
BRANCH   8   9
HETATM    9  C14 UNL     1     -19.870  55.031  19.504  1.00  0.00     0.081 C 
HETATM   10  N5  UNL     1     -18.671  54.511  19.661  1.00  0.00    -0.298 N 
ATOM     11  H5  UNL     1     -18.520  53.697  19.064  1.00  0.00     0.187 HD
BRANCH  10  12
HETATM   12  N6  UNL     1     -17.626  54.787  20.398  1.00  0.00    -0.271 N 
ATOM     13  H6  UNL     1     -17.249  55.734  20.354  1.00  0.00     0.190 HD
BRANCH  12  14
HETATM   14  C15 UNL     1     -16.963  53.835  21.277  1.00  0.00     0.190 C 
HETATM   15  N7  UNL     1     -17.384  53.433  22.416  1.00  0.00    -0.360 N 
HETATM   16  C16 UNL     1     -16.502  52.490  23.035  1.00  0.00     0.142 C 
ATOM     17  H7  UNL     1     -18.256  53.751  22.838  1.00  0.00     0.162 HD
HETATM   18  C17 UNL     1     -15.623  52.043  21.894  1.00  0.00     0.142 C 
HETATM   19  N8  UNL     1     -15.736  53.195  21.009  1.00  0.00    -0.360 N 
ATOM     20  H8  UNL     1     -15.047  53.487  20.316  1.00  0.00     0.162 HD
ENDBRANCH  12  14
ENDBRANCH  10  12
BRANCH   9  21
HETATM   21  C18 UNL     1     -20.161  56.134  20.380  1.00  0.00     0.140 C 
HETATM   22  C19 UNL     1     -19.506  57.413  19.909  1.00  0.00     0.058 C 
HETATM   23  C20 UNL     1     -20.049  55.949  21.848  1.00  0.00     0.058 C 
HETATM   24  F1  UNL     1     -21.581  56.469  20.179  1.00  0.00    -0.237 F 
ENDBRANCH   9  21
ENDBRANCH   8   9
BRANCH   1  25
HETATM   25  C6  UNL     1     -20.080  55.599  16.536  1.00  0.00    -0.047 C 
HETATM   26  C5  UNL     1     -19.510  56.504  16.006  1.00  0.00    -0.100 C 
BRANCH  26  27
HETATM   27  C4  UNL     1     -18.822  57.617  15.352  1.00  0.00     0.094 C 
BRANCH  27  28
HETATM   28  C3  UNL     1     -19.822  58.738  15.069  1.00  0.00     0.012 C 
BRANCH  28  29
HETATM   29  C2  UNL     1     -20.849  58.268  14.079  1.00  0.00    -0.004 C 
HETATM   30  C1  UNL     1     -21.903  59.333  13.823  1.00  0.00     0.005 C 
ENDBRANCH  28  29
ENDBRANCH  27  28
ENDBRANCH  26  27
ENDBRANCH   1  25
BRANCH   7  31
HETATM   31  N4  UNL     1     -21.218  52.750  20.187  1.00  0.00    -0.375 N 
ATOM     32  H4  UNL     1     -21.182  53.472  20.906  1.00  0.00     0.161 HD
BRANCH  31  33
HETATM   33  C10 UNL     1     -21.131  51.391  20.599  1.00  0.00     0.123 C 
BRANCH  33  34
HETATM   34  C11 UNL     1     -19.924  51.107  21.456  1.00  0.00     0.045 C 
BRANCH  34  35
HETATM   35  C12 UNL     1     -18.798  50.607  20.589  1.00  0.00     0.165 C 
BRANCH  35  36
HETATM   36  O1  UNL     1     -18.330  51.595  19.733  1.00  0.00    -0.401 OA
ATOM     37  H1  UNL     1     -17.466  51.388  19.396  1.00  0.00     0.209 HD
ENDBRANCH  35  36
ENDBRANCH  34  35
ENDBRANCH  33  34
ENDBRANCH  31  33
ENDBRANCH   7  31
BRANCH   4  38
HETATM   38  N2  UNL     1     -23.122  52.101  16.118  1.00  0.00    -0.234 N 
ATOM     39  H22 UNL     1     -24.042  51.805  16.445  1.00  0.00     0.174 HD
ATOM     40  H21 UNL     1     -22.844  51.851  15.169  1.00  0.00     0.174 HD
ENDBRANCH   4  38
TORSDOF 14
ENDMDL
MODEL 5
REMARK VINA RESULT: -5.434830570      3.660      6.544
REMARK  14 active torsions:
REMARK  status: ('A' for Active; 'I' for Inactive)
REMARK    1  A    between atoms: C2_2  and  C3_3 
REMARK    2  A    between atoms: C3_3  and  C4_4 
REMARK    3  A    between atoms: C4_4  and  C5_5 
REMARK    4  A    between atoms: C6_6  and  C7_7 
REMARK    5  A    between atoms: C8_10  and  N2_11 
REMARK    6  A    between atoms: C9_16  and  N4_17 
REMARK    7  A    between atoms: N4_17  and  C10_19 
REMARK    8  A    between atoms: C10_19  and  C11_20 
REMARK    9  A    between atoms: C11_20  and  C12_21 
REMARK   10  A    between atoms: C12_21  and  O1_22 
REMARK   11  A    between atoms: C13_24  and  C14_25 
REMARK   12  A    between atoms: C14_25  and  C18_37 
REMARK   13  A    between atoms: N5_26  and  N6_28 
REMARK   14  A    between atoms: N6_28  and  C15_30 
ROOT
HETATM    1  C7  UNL     1     -19.572  55.521  17.501  1.00  0.00     0.119 A 
HETATM    2  N1  UNL     1     -19.998  54.458  16.736  1.00  0.00    -0.183 N 
ATOM      3  H1  UNL     1     -20.252  54.624  15.762  1.00  0.00     0.185 HD
HETATM    4  C8  UNL     1     -20.089  53.232  17.218  1.00  0.00     0.678 A 
HETATM    5  N3  UNL     1     -19.753  53.028  18.488  1.00  0.00    -0.176 N 
ATOM      6  H3  UNL     1     -19.814  52.087  18.876  1.00  0.00     0.186 HD
HETATM    7  C9  UNL     1     -19.342  54.016  19.258  1.00  0.00     0.132 A 
HETATM    8  C13 UNL     1     -19.232  55.356  18.783  1.00  0.00     0.072 A 
ENDROOT
BRANCH   8   9
HETATM    9  C14 UNL     1     -18.906  56.392  19.761  1.00  0.00     0.081 C 
HETATM   10  N5  UNL     1     -17.608  56.610  19.766  1.00  0.00    -0.298 N 
ATOM     11  H5  UNL     1     -17.113  56.017  19.099  1.00  0.00     0.187 HD
BRANCH  10  12
HETATM   12  N6  UNL     1     -16.799  57.404  20.420  1.00  0.00    -0.271 N 
ATOM     13  H6  UNL     1     -17.206  58.028  21.117  1.00  0.00     0.190 HD
BRANCH  12  14
HETATM   14  C15 UNL     1     -15.359  57.457  20.221  1.00  0.00     0.190 C 
HETATM   15  N7  UNL     1     -14.729  58.244  19.434  1.00  0.00    -0.360 N 
HETATM   16  C16 UNL     1     -13.311  58.050  19.468  1.00  0.00     0.142 C 
ATOM     17  H7  UNL     1     -15.189  58.937  18.844  1.00  0.00     0.162 HD
HETATM   18  C17 UNL     1     -13.103  57.260  20.735  1.00  0.00     0.142 C 
HETATM   19  N8  UNL     1     -14.414  56.639  20.875  1.00  0.00    -0.360 N 
ATOM     20  H8  UNL     1     -14.613  55.766  21.362  1.00  0.00     0.162 HD
ENDBRANCH  12  14
ENDBRANCH  10  12
BRANCH   9  21
HETATM   21  C18 UNL     1     -19.640  57.148  20.740  1.00  0.00     0.140 C 
HETATM   22  C19 UNL     1     -19.790  58.598  20.334  1.00  0.00     0.058 C 
HETATM   23  C20 UNL     1     -19.310  56.996  22.179  1.00  0.00     0.058 C 
HETATM   24  F1  UNL     1     -21.040  56.700  20.655  1.00  0.00    -0.237 F 
ENDBRANCH   9  21
ENDBRANCH   8   9
BRANCH   1  25
HETATM   25  C6  UNL     1     -19.402  56.755  16.795  1.00  0.00    -0.047 C 
HETATM   26  C5  UNL     1     -19.322  57.763  16.163  1.00  0.00    -0.100 C 
BRANCH  26  27
HETATM   27  C4  UNL     1     -19.221  58.994  15.377  1.00  0.00     0.094 C 
BRANCH  27  28
HETATM   28  C3  UNL     1     -19.987  58.823  14.064  1.00  0.00     0.012 C 
BRANCH  28  29
HETATM   29  C2  UNL     1     -21.449  59.080  14.289  1.00  0.00    -0.004 C 
HETATM   30  C1  UNL     1     -22.158  59.429  12.992  1.00  0.00     0.005 C 
ENDBRANCH  28  29
ENDBRANCH  27  28
ENDBRANCH  26  27
ENDBRANCH   1  25
BRANCH   7  31
HETATM   31  N4  UNL     1     -19.042  53.758  20.487  1.00  0.00    -0.375 N 
ATOM     32  H4  UNL     1     -19.353  54.414  21.203  1.00  0.00     0.161 HD
BRANCH  31  33
HETATM   33  C10 UNL     1     -18.306  52.613  20.903  1.00  0.00     0.123 C 
BRANCH  33  34
HETATM   34  C11 UNL     1     -16.840  52.696  20.562  1.00  0.00     0.045 C 
BRANCH  34  35
HETATM   35  C12 UNL     1     -16.112  53.441  21.652  1.00  0.00     0.165 C 
BRANCH  35  36
HETATM   36  O1  UNL     1     -16.655  54.702  21.863  1.00  0.00    -0.401 OA
ATOM     37  H1  UNL     1     -16.995  55.078  21.060  1.00  0.00     0.209 HD
ENDBRANCH  35  36
ENDBRANCH  34  35
ENDBRANCH  33  34
ENDBRANCH  31  33
ENDBRANCH   7  31
BRANCH   4  38
HETATM   38  N2  UNL     1     -20.500  52.244  16.464  1.00  0.00    -0.234 N 
ATOM     39  H22 UNL     1     -21.224  52.388  15.760  1.00  0.00     0.174 HD
ATOM     40  H21 UNL     1     -20.103  51.310  16.565  1.00  0.00     0.174 HD
ENDBRANCH   4  38
TORSDOF 14
ENDMDL
