MODEL 1
REMARK VINA RESULT: -6.646977686      0.000      0.000
REMARK  5 active torsions:
REMARK  status: ('A' for Active; 'I' for Inactive)
REMARK    1  A    between atoms: C2_2  and  C4_4 
REMARK    2  A    between atoms: C4_4  and  N1_5 
REMARK    3  A    between atoms: C5_8  and  C6_9 
REMARK    4  A    between atoms: C9_14  and  N3_15 
REMARK    5  A    between atoms: C10_20  and  N5_21 
ROOT
HETATM    1  N1  UNL     1      45.908  13.939   3.183  1.00  0.00    -0.275 N 
HETATM    2  N2  UNL     1      46.197  12.763   2.723  1.00  0.00    -0.297 N 
ATOM      3  H2  UNL     1      46.820  12.113   3.203  1.00  0.00     0.187 HD
HETATM    4  C5  UNL     1      45.590  12.479   1.540  1.00  0.00     0.082 A 
HETATM    5  C8  UNL     1      44.860  13.608   1.261  1.00  0.00     0.081 A 
HETATM    6  C9  UNL     1      44.041  13.990   0.244  1.00  0.00     0.131 A 
HETATM    7  N4  UNL     1      43.440  15.214   0.235  1.00  0.00    -0.176 N 
ATOM      8  H4  UNL     1      42.828  15.488  -0.533  1.00  0.00     0.186 HD
HETATM    9  C10 UNL     1      43.667  16.047   1.252  1.00  0.00     0.679 A 
HETATM   10  N6  UNL     1      44.470  15.705   2.270  1.00  0.00    -0.174 N 
ATOM     11  H6  UNL     1      44.623  16.368   3.030  1.00  0.00     0.186 HD
HETATM   12  C11 UNL     1      45.080  14.502   2.308  1.00  0.00     0.153 A 
ENDROOT
BRANCH   1  13
HETATM   13  C4  UNL     1      46.421  14.512   4.423  1.00  0.00     0.154 C 
BRANCH  13  14
HETATM   14  C2  UNL     1      46.562  15.995   4.395  1.00  0.00    -0.003 C 
HETATM   15  C1  UNL     1      48.059  16.293   4.388  1.00  0.00     0.011 C 
HETATM   16  C3  UNL     1      45.958  16.731   5.540  1.00  0.00     0.011 C 
ENDBRANCH  13  14
ENDBRANCH   1  13
BRANCH   4  17
HETATM   17  C6  UNL     1      45.700  11.226   0.802  1.00  0.00     0.154 C 
HETATM   18  C7  UNL     1      44.436  10.488   0.521  1.00  0.00     0.057 C 
HETATM   19 CL1  UNL     1      46.686  11.425  -0.702  1.00  0.00    -0.095 Cl
HETATM   20 CL2  UNL     1      46.730  10.094   1.762  1.00  0.00    -0.095 Cl
ENDBRANCH   4  17
BRANCH   6  21
HETATM   21  N3  UNL     1      43.845  13.199  -0.724  1.00  0.00    -0.384 N 
ATOM     22  H32 UNL     1      43.081  12.526  -0.669  1.00  0.00     0.157 HD
ATOM     23  H31 UNL     1      44.446  13.259  -1.546  1.00  0.00     0.157 HD
ENDBRANCH   6  21
BRANCH   9  24
HETATM   24  N5  UNL     1      43.113  17.200   1.264  1.00  0.00    -0.234 N 
ATOM     25  H52 UNL     1      42.970  17.687   0.379  1.00  0.00     0.174 HD
ATOM     26  H51 UNL     1      42.823  17.612   2.151  1.00  0.00     0.174 HD
ENDBRANCH   9  24
TORSDOF 5
ENDMDL
MODEL 2
REMARK VINA RESULT: -5.726446365      2.430      4.715
REMARK  5 active torsions:
REMARK  status: ('A' for Active; 'I' for Inactive)
REMARK    1  A    between atoms: C2_2  and  C4_4 
REMARK    2  A    between atoms: C4_4  and  N1_5 
REMARK    3  A    between atoms: C5_8  and  C6_9 
REMARK    4  A    between atoms: C9_14  and  N3_15 
REMARK    5  A    between atoms: C10_20  and  N5_21 
ROOT
HETATM    1  N1  UNL     1      45.092  12.760   1.557  1.00  0.00    -0.275 N 
HETATM    2  N2  UNL     1      45.516  13.344   2.632  1.00  0.00    -0.297 N 
ATOM      3  H2  UNL     1      46.018  12.856   3.373  1.00  0.00     0.187 HD
HETATM    4  C5  UNL     1      45.229  14.673   2.676  1.00  0.00     0.082 A 
HETATM    5  C8  UNL     1      44.558  14.908   1.502  1.00  0.00     0.081 A 
HETATM    6  C9  UNL     1      43.992  16.003   0.926  1.00  0.00     0.131 A 
HETATM    7  N4  UNL     1      43.370  15.931  -0.285  1.00  0.00    -0.176 N 
ATOM      8  H4  UNL     1      42.950  16.760  -0.704  1.00  0.00     0.186 HD
HETATM    9  C10 UNL     1      43.322  14.754  -0.910  1.00  0.00     0.679 A 
HETATM   10  N6  UNL     1      43.867  13.653  -0.373  1.00  0.00    -0.174 N 
ATOM     11  H6  UNL     1      43.810  12.769  -0.879  1.00  0.00     0.186 HD
HETATM   12  C11 UNL     1      44.489  13.692   0.824  1.00  0.00     0.153 A 
ENDROOT
BRANCH   1  13
HETATM   13  C4  UNL     1      45.249  11.343   1.245  1.00  0.00     0.154 C 
BRANCH  13  14
HETATM   14  C2  UNL     1      46.665  10.882   1.212  1.00  0.00    -0.003 C 
HETATM   15  C1  UNL     1      47.217  11.258  -0.162  1.00  0.00     0.011 C 
HETATM   16  C3  UNL     1      46.881   9.421   1.402  1.00  0.00     0.011 C 
ENDBRANCH  13  14
ENDBRANCH   1  13
BRANCH   4  17
HETATM   17  C6  UNL     1      45.608  15.594   3.741  1.00  0.00     0.154 C 
HETATM   18  C7  UNL     1      46.590  16.663   3.401  1.00  0.00     0.057 C 
HETATM   19 CL1  UNL     1      44.155  16.285   4.570  1.00  0.00    -0.095 Cl
HETATM   20 CL2  UNL     1      46.362  14.636   5.075  1.00  0.00    -0.095 Cl
ENDBRANCH   4  17
BRANCH   6  21
HETATM   21  N3  UNL     1      44.029  17.111   1.536  1.00  0.00    -0.384 N 
ATOM     22  H32 UNL     1      43.265  17.358   2.167  1.00  0.00     0.157 HD
ATOM     23  H31 UNL     1      44.827  17.731   1.398  1.00  0.00     0.157 HD
ENDBRANCH   6  21
BRANCH   9  24
HETATM   24  N5  UNL     1      42.744  14.663  -2.048  1.00  0.00    -0.234 N 
ATOM     25  H52 UNL     1      41.748  14.440  -2.078  1.00  0.00     0.174 HD
ATOM     26  H51 UNL     1      43.281  14.814  -2.901  1.00  0.00     0.174 HD
ENDBRANCH   9  24
TORSDOF 5
ENDMDL
MODEL 3
REMARK VINA RESULT: -5.500536442      2.705      4.594
REMARK  5 active torsions:
REMARK  status: ('A' for Active; 'I' for Inactive)
REMARK    1  A    between atoms: C2_2  and  C4_4 
REMARK    2  A    between atoms: C4_4  and  N1_5 
REMARK    3  A    between atoms: C5_8  and  C6_9 
REMARK    4  A    between atoms: C9_14  and  N3_15 
REMARK    5  A    between atoms: C10_20  and  N5_21 
ROOT
HETATM    1  N1  UNL     1      44.146  13.857   0.764  1.00  0.00    -0.275 N 
HETATM    2  N2  UNL     1      43.607  14.052  -0.398  1.00  0.00    -0.297 N 
ATOM      3  H2  UNL     1      43.010  14.851  -0.610  1.00  0.00     0.187 HD
HETATM    4  C5  UNL     1      43.913  13.088  -1.306  1.00  0.00     0.082 A 
HETATM    5  C8  UNL     1      44.722  12.221  -0.613  1.00  0.00     0.081 A 
HETATM    6  C9  UNL     1      45.362  11.060  -0.918  1.00  0.00     0.131 A 
HETATM    7  N4  UNL     1      46.114  10.397   0.007  1.00  0.00    -0.176 N 
ATOM      8  H4  UNL     1      46.588   9.528  -0.234  1.00  0.00     0.186 HD
HETATM    9  C10 UNL     1      46.218  10.910   1.234  1.00  0.00     0.679 A 
HETATM   10  N6  UNL     1      45.601  12.052   1.570  1.00  0.00    -0.174 N 
ATOM     11  H6  UNL     1      45.701  12.414   2.518  1.00  0.00     0.186 HD
HETATM   12  C11 UNL     1      44.848  12.730   0.678  1.00  0.00     0.153 A 
ENDROOT
BRANCH   1  13
HETATM   13  C4  UNL     1      43.983  14.721   1.928  1.00  0.00     0.154 C 
BRANCH  13  14
HETATM   14  C2  UNL     1      44.489  16.108   1.731  1.00  0.00    -0.003 C 
HETATM   15  C1  UNL     1      45.128  16.534   3.051  1.00  0.00     0.011 C 
HETATM   16  C3  UNL     1      43.467  17.130   1.372  1.00  0.00     0.011 C 
ENDBRANCH  13  14
ENDBRANCH   1  13
BRANCH   4  17
HETATM   17  C6  UNL     1      43.481  13.057  -2.699  1.00  0.00     0.154 C 
HETATM   18  C7  UNL     1      44.528  13.244  -3.743  1.00  0.00     0.057 C 
HETATM   19 CL1  UNL     1      42.467  11.599  -3.047  1.00  0.00    -0.095 Cl
HETATM   20 CL2  UNL     1      42.289  14.393  -2.949  1.00  0.00    -0.095 Cl
ENDBRANCH   4  17
BRANCH   6  21
HETATM   21  N3  UNL     1      45.242  10.573  -2.079  1.00  0.00    -0.384 N 
ATOM     22  H32 UNL     1      44.753  11.110  -2.796  1.00  0.00     0.157 HD
ATOM     23  H31 UNL     1      45.649   9.660  -2.282  1.00  0.00     0.157 HD
ENDBRANCH   6  21
BRANCH   9  24
HETATM   24  N5  UNL     1      46.920  10.306   2.117  1.00  0.00    -0.234 N 
ATOM     25  H52 UNL     1      46.646   9.367   2.405  1.00  0.00     0.174 HD
ATOM     26  H51 UNL     1      47.737  10.768   2.516  1.00  0.00     0.174 HD
ENDBRANCH   9  24
TORSDOF 5
ENDMDL
MODEL 4
REMARK VINA RESULT: -5.387543022      2.530      4.316
REMARK  5 active torsions:
REMARK  status: ('A' for Active; 'I' for Inactive)
REMARK    1  A    between atoms: C2_2  and  C4_4 
REMARK    2  A    between atoms: C4_4  and  N1_5 
REMARK    3  A    between atoms: C5_8  and  C6_9 
REMARK    4  A    between atoms: C9_14  and  N3_15 
REMARK    5  A    between atoms: C10_20  and  N5_21 
ROOT
HETATM    1  N1  UNL     1      44.550  13.653   1.348  1.00  0.00    -0.275 N 
HETATM    2  N2  UNL     1      44.021  14.009   0.220  1.00  0.00    -0.297 N 
ATOM      3  H2  UNL     1      43.463  14.855   0.107  1.00  0.00     0.187 HD
HETATM    4  C5  UNL     1      44.282  13.145  -0.797  1.00  0.00     0.082 A 
HETATM    5  C8  UNL     1      45.049  12.166  -0.215  1.00  0.00     0.081 A 
HETATM    6  C9  UNL     1      45.633  11.020  -0.657  1.00  0.00     0.131 A 
HETATM    7  N4  UNL     1      46.354  10.219   0.180  1.00  0.00    -0.176 N 
ATOM      8  H4  UNL     1      46.786   9.362  -0.165  1.00  0.00     0.186 HD
HETATM    9  C10 UNL     1      46.481  10.578   1.458  1.00  0.00     0.679 A 
HETATM   10  N6  UNL     1      45.918  11.700   1.929  1.00  0.00    -0.174 N 
ATOM     11  H6  UNL     1      46.035  11.944   2.912  1.00  0.00     0.186 HD
HETATM   12  C11 UNL     1      45.199  12.513   1.127  1.00  0.00     0.153 A 
ENDROOT
BRANCH   1  13
HETATM   13  C4  UNL     1      44.428  14.381   2.607  1.00  0.00     0.154 C 
BRANCH  13  14
HETATM   14  C2  UNL     1      45.620  15.207   2.949  1.00  0.00    -0.003 C 
HETATM   15  C1  UNL     1      46.356  14.474   4.068  1.00  0.00     0.011 C 
HETATM   16  C3  UNL     1      45.341  16.591   3.422  1.00  0.00     0.011 C 
ENDBRANCH  13  14
ENDBRANCH   1  13
BRANCH   4  17
HETATM   17  C6  UNL     1      43.849  13.299  -2.181  1.00  0.00     0.154 C 
HETATM   18  C7  UNL     1      44.900  13.593  -3.196  1.00  0.00     0.057 C 
HETATM   19 CL1  UNL     1      42.805  11.918  -2.707  1.00  0.00    -0.095 Cl
HETATM   20 CL2  UNL     1      42.686  14.680  -2.259  1.00  0.00    -0.095 Cl
ENDBRANCH   4  17
BRANCH   6  21
HETATM   21  N3  UNL     1      45.491  10.679  -1.867  1.00  0.00    -0.384 N 
ATOM     22  H32 UNL     1      45.002   9.811  -2.085  1.00  0.00     0.157 HD
ATOM     23  H31 UNL     1      45.855  11.285  -2.602  1.00  0.00     0.157 HD
ENDBRANCH   6  21
BRANCH   9  24
HETATM   24  N5  UNL     1      47.154   9.843   2.260  1.00  0.00    -0.234 N 
ATOM     25  H52 UNL     1      46.672   9.099   2.766  1.00  0.00     0.174 HD
ATOM     26  H51 UNL     1      48.153  10.008   2.381  1.00  0.00     0.174 HD
ENDBRANCH   9  24
TORSDOF 5
ENDMDL
MODEL 5
REMARK VINA RESULT: -5.371582523      2.288      2.991
REMARK  5 active torsions:
REMARK  status: ('A' for Active; 'I' for Inactive)
REMARK    1  A    between atoms: C2_2  and  C4_4 
REMARK    2  A    between atoms: C4_4  and  N1_5 
REMARK    3  A    between atoms: C5_8  and  C6_9 
REMARK    4  A    between atoms: C9_14  and  N3_15 
REMARK    5  A    between atoms: C10_20  and  N5_21 
ROOT
HETATM    1  N1  UNL     1      44.016  14.218   0.750  1.00  0.00    -0.275 N 
HETATM    2  N2  UNL     1      44.034  12.934   0.582  1.00  0.00    -0.297 N 
ATOM      3  H2  UNL     1      43.896  12.268   1.342  1.00  0.00     0.187 HD
HETATM    4  C5  UNL     1      44.255  12.558  -0.706  1.00  0.00     0.082 A 
HETATM    5  C8  UNL     1      44.384  13.747  -1.382  1.00  0.00     0.081 A 
HETATM    6  C9  UNL     1      44.620  14.089  -2.678  1.00  0.00     0.131 A 
HETATM    7  N4  UNL     1      44.704  15.394  -3.066  1.00  0.00    -0.176 N 
ATOM      8  H4  UNL     1      44.882  15.637  -4.040  1.00  0.00     0.186 HD
HETATM    9  C10 UNL     1      44.550  16.347  -2.145  1.00  0.00     0.679 A 
HETATM   10  N6  UNL     1      44.318  16.047  -0.859  1.00  0.00    -0.174 N 
ATOM     11  H6  UNL     1      44.205  16.801  -0.182  1.00  0.00     0.186 HD
HETATM   12  C11 UNL     1      44.230  14.766  -0.444  1.00  0.00     0.153 A 
ENDROOT
BRANCH   1  13
HETATM   13  C4  UNL     1      43.810  14.902   2.022  1.00  0.00     0.154 C 
BRANCH  13  14
HETATM   14  C2  UNL     1      45.048  15.496   2.600  1.00  0.00    -0.003 C 
HETATM   15  C1  UNL     1      45.822  14.350   3.249  1.00  0.00     0.011 C 
HETATM   16  C3  UNL     1      44.847  16.549   3.633  1.00  0.00     0.011 C 
ENDBRANCH  13  14
ENDBRANCH   1  13
BRANCH   4  17
HETATM   17  C6  UNL     1      44.296  11.188  -1.202  1.00  0.00     0.154 C 
HETATM   18  C7  UNL     1      43.233  10.778  -2.164  1.00  0.00     0.057 C 
HETATM   19 CL1  UNL     1      45.939  10.756  -1.826  1.00  0.00    -0.095 Cl
HETATM   20 CL2  UNL     1      44.143  10.071   0.210  1.00  0.00    -0.095 Cl
ENDBRANCH   4  17
BRANCH   6  21
HETATM   21  N3  UNL     1      44.783  13.177  -3.540  1.00  0.00    -0.384 N 
ATOM     22  H32 UNL     1      43.970  12.664  -3.881  1.00  0.00     0.157 HD
ATOM     23  H31 UNL     1      45.721  12.982  -3.888  1.00  0.00     0.157 HD
ENDBRANCH   6  21
BRANCH   9  24
HETATM   24  N5  UNL     1      44.623  17.578  -2.487  1.00  0.00    -0.234 N 
ATOM     25  H52 UNL     1      44.734  17.808  -3.475  1.00  0.00     0.174 HD
ATOM     26  H51 UNL     1      44.570  18.304  -1.774  1.00  0.00     0.174 HD
ENDBRANCH   9  24
TORSDOF 5
ENDMDL
