MODEL 1
REMARK VINA RESULT: -6.837605228      0.000      0.000
REMARK  4 active torsions:
REMARK  status: ('A' for Active; 'I' for Inactive)
REMARK    1  A    between atoms: N1_1  and  C1_4 
REMARK    2  A    between atoms: C4_14  and  C5_15 
REMARK    3  A    between atoms: C5_15  and  C6_16 
REMARK    4  A    between atoms: C6_16  and  C7_17 
ROOT
HETATM    1  C1  UNL     1      44.888  10.563   0.187  1.00  0.00     0.132 A 
HETATM    2  N2  UNL     1      45.828   9.649   0.491  1.00  0.00    -0.317 N 
ATOM      3  H2  UNL     1      45.861   8.756   0.000  1.00  0.00     0.170 HD
HETATM    4  C2  UNL     1      46.723   9.934   1.455  1.00  0.00     0.182 A 
HETATM    5 CL1  UNL     1      47.971   8.753   1.880  1.00  0.00    -0.045 Cl
HETATM    6  N3  UNL     1      46.685  11.123   2.113  1.00  0.00    -0.317 N 
ATOM      7  H3  UNL     1      47.372  11.321   2.840  1.00  0.00     0.170 HD
HETATM    8  C3  UNL     1      45.748  12.041   1.813  1.00  0.00     0.140 A 
HETATM    9  N4  UNL     1      45.457  13.282   2.276  1.00  0.00    -0.330 N 
ATOM     10  H4  UNL     1      45.979  13.753   3.015  1.00  0.00     0.168 HD
HETATM   11  C4  UNL     1      44.417  13.807   1.655  1.00  0.00     0.083 A 
HETATM   12  N7  UNL     1      44.037  12.836   0.752  1.00  0.00    -0.340 N 
ATOM     13  H7  UNL     1      43.254  12.921   0.105  1.00  0.00     0.167 HD
HETATM   14  C10 UNL     1      44.829  11.775   0.839  1.00  0.00     0.122 A 
ENDROOT
BRANCH  11  15
HETATM   15  C5  UNL     1      43.731  15.086   1.811  1.00  0.00     0.083 C 
BRANCH  15  16
HETATM   16  C6  UNL     1      44.540  16.276   2.128  1.00  0.00     0.066 C 
BRANCH  16  17
HETATM   17  C7  UNL     1      45.309  16.325   3.378  1.00  0.00     0.027 A 
HETATM   18  C8  UNL     1      44.923  16.108   4.679  1.00  0.00     0.115 A 
HETATM   19  N5  UNL     1      46.044  16.313   5.429  1.00  0.00    -0.341 N 
HETATM   20  C9  UNL     1      47.049  16.636   4.608  1.00  0.00     0.179 A 
ATOM     21  H5  UNL     1      46.105  16.233   6.443  1.00  0.00     0.167 HD
HETATM   22 CL2  UNL     1      48.718  17.000   5.080  1.00  0.00    -0.045 Cl
HETATM   23  N6  UNL     1      46.641  16.655   3.336  1.00  0.00    -0.335 N 
ATOM     24  H6  UNL     1      47.199  16.869   2.511  1.00  0.00     0.168 HD
ENDBRANCH  16  17
ENDBRANCH  15  16
ENDBRANCH  11  15
BRANCH   1  25
HETATM   25  N1  UNL     1      44.034  10.278  -0.741  1.00  0.00    -0.383 N 
ATOM     26  H12 UNL     1      44.310  10.305  -1.723  1.00  0.00     0.157 HD
ATOM     27  H11 UNL     1      43.086  10.026  -0.463  1.00  0.00     0.157 HD
ENDBRANCH   1  25
TORSDOF 4
ENDMDL
MODEL 2
REMARK VINA RESULT: -6.789284693      1.794      2.197
REMARK  4 active torsions:
REMARK  status: ('A' for Active; 'I' for Inactive)
REMARK    1  A    between atoms: N1_1  and  C1_4 
REMARK    2  A    between atoms: C4_14  and  C5_15 
REMARK    3  A    between atoms: C5_15  and  C6_16 
REMARK    4  A    between atoms: C6_16  and  C7_17 
ROOT
HETATM    1  C1  UNL     1      43.677  12.294  -1.792  1.00  0.00     0.132 A 
HETATM    2  N2  UNL     1      43.741  10.960  -1.627  1.00  0.00    -0.317 N 
ATOM      3  H2  UNL     1      43.587  10.331  -2.415  1.00  0.00     0.170 HD
HETATM    4  C2  UNL     1      44.011  10.470  -0.403  1.00  0.00     0.182 A 
HETATM    5 CL1  UNL     1      44.102   8.720  -0.151  1.00  0.00    -0.045 Cl
HETATM    6  N3  UNL     1      44.218  11.303   0.652  1.00  0.00    -0.317 N 
ATOM      7  H3  UNL     1      44.423  10.912   1.572  1.00  0.00     0.170 HD
HETATM    8  C3  UNL     1      44.156  12.637   0.492  1.00  0.00     0.140 A 
HETATM    9  N4  UNL     1      44.310  13.697   1.323  1.00  0.00    -0.330 N 
ATOM     10  H4  UNL     1      44.524  13.617   2.318  1.00  0.00     0.168 HD
HETATM   11  C4  UNL     1      44.151  14.845   0.691  1.00  0.00     0.083 A 
HETATM   12  N7  UNL     1      43.881  14.478  -0.611  1.00  0.00    -0.340 N 
ATOM     13  H7  UNL     1      43.704  15.133  -1.373  1.00  0.00     0.167 HD
HETATM   14  C10 UNL     1      43.883  13.158  -0.739  1.00  0.00     0.122 A 
ENDROOT
BRANCH  11  15
HETATM   15  C5  UNL     1      44.204  16.229   1.153  1.00  0.00     0.083 C 
BRANCH  15  16
HETATM   16  C6  UNL     1      43.852  16.510   2.555  1.00  0.00     0.066 C 
BRANCH  16  17
HETATM   17  C7  UNL     1      44.871  16.379   3.604  1.00  0.00     0.027 A 
HETATM   18  C8  UNL     1      44.752  16.084   4.941  1.00  0.00     0.115 A 
HETATM   19  N5  UNL     1      46.022  16.119   5.436  1.00  0.00    -0.341 N 
HETATM   20  C9  UNL     1      46.858  16.421   4.435  1.00  0.00     0.179 A 
ATOM     21  H5  UNL     1      46.290  15.945   6.404  1.00  0.00     0.167 HD
HETATM   22 CL2  UNL     1      48.618  16.589   4.549  1.00  0.00    -0.045 Cl
HETATM   23  N6  UNL     1      46.191  16.589   3.290  1.00  0.00    -0.335 N 
ATOM     24  H6  UNL     1      46.580  16.823   2.377  1.00  0.00     0.168 HD
ENDBRANCH  16  17
ENDBRANCH  15  16
ENDBRANCH  11  15
BRANCH   1  25
HETATM   25  N1  UNL     1      43.416  12.752  -2.973  1.00  0.00    -0.383 N 
ATOM     26  H12 UNL     1      43.247  12.112  -3.750  1.00  0.00     0.157 HD
ATOM     27  H11 UNL     1      43.383  13.763  -3.102  1.00  0.00     0.157 HD
ENDBRANCH   1  25
TORSDOF 4
ENDMDL
MODEL 3
REMARK VINA RESULT: -6.645914278      1.413      2.168
REMARK  4 active torsions:
REMARK  status: ('A' for Active; 'I' for Inactive)
REMARK    1  A    between atoms: N1_1  and  C1_4 
REMARK    2  A    between atoms: C4_14  and  C5_15 
REMARK    3  A    between atoms: C5_15  and  C6_16 
REMARK    4  A    between atoms: C6_16  and  C7_17 
ROOT
HETATM    1  C1  UNL     1      45.772  10.813   1.133  1.00  0.00     0.132 A 
HETATM    2  N2  UNL     1      45.471   9.731   0.391  1.00  0.00    -0.317 N 
ATOM      3  H2  UNL     1      45.950   8.845   0.547  1.00  0.00     0.170 HD
HETATM    4  C2  UNL     1      44.526   9.840  -0.561  1.00  0.00     0.182 A 
HETATM    5 CL1  UNL     1      44.106   8.438  -1.555  1.00  0.00    -0.045 Cl
HETATM    6  N3  UNL     1      43.883  11.020  -0.774  1.00  0.00    -0.317 N 
ATOM      7  H3  UNL     1      43.170  11.082  -1.500  1.00  0.00     0.170 HD
HETATM    8  C3  UNL     1      44.180  12.104  -0.035  1.00  0.00     0.140 A 
HETATM    9  N4  UNL     1      43.729  13.382  -0.007  1.00  0.00    -0.330 N 
ATOM     10  H4  UNL     1      43.005  13.746  -0.627  1.00  0.00     0.168 HD
HETATM   11  C4  UNL     1      44.340  14.099   0.917  1.00  0.00     0.083 A 
HETATM   12  N7  UNL     1      45.224  13.215   1.500  1.00  0.00    -0.340 N 
ATOM     13  H7  UNL     1      45.861  13.450   2.261  1.00  0.00     0.167 HD
HETATM   14  C10 UNL     1      45.135  12.018   0.936  1.00  0.00     0.122 A 
ENDROOT
BRANCH  11  15
HETATM   15  C5  UNL     1      44.211  15.499   1.309  1.00  0.00     0.083 C 
BRANCH  15  16
HETATM   16  C6  UNL     1      43.802  15.802   2.692  1.00  0.00     0.066 C 
BRANCH  16  17
HETATM   17  C7  UNL     1      44.824  16.017   3.724  1.00  0.00     0.027 A 
HETATM   18  C8  UNL     1      44.713  16.125   5.090  1.00  0.00     0.115 A 
HETATM   19  N5  UNL     1      45.981  16.344   5.542  1.00  0.00    -0.341 N 
HETATM   20  C9  UNL     1      46.807  16.363   4.490  1.00  0.00     0.179 A 
ATOM     21  H5  UNL     1      46.253  16.471   6.516  1.00  0.00     0.167 HD
HETATM   22 CL2  UNL     1      48.562  16.612   4.534  1.00  0.00    -0.045 Cl
HETATM   23  N6  UNL     1      46.137  16.166   3.352  1.00  0.00    -0.335 N 
ATOM     24  H6  UNL     1      46.519  16.133   2.407  1.00  0.00     0.168 HD
ENDBRANCH  16  17
ENDBRANCH  15  16
ENDBRANCH  11  15
BRANCH   1  25
HETATM   25  N1  UNL     1      46.682  10.695   2.045  1.00  0.00    -0.383 N 
ATOM     26  H12 UNL     1      46.932   9.775   2.409  1.00  0.00     0.157 HD
ATOM     27  H11 UNL     1      47.137  11.542   2.384  1.00  0.00     0.157 HD
ENDBRANCH   1  25
TORSDOF 4
ENDMDL
MODEL 4
REMARK VINA RESULT: -6.522773367      2.077      6.661
REMARK  4 active torsions:
REMARK  status: ('A' for Active; 'I' for Inactive)
REMARK    1  A    between atoms: N1_1  and  C1_4 
REMARK    2  A    between atoms: C4_14  and  C5_15 
REMARK    3  A    between atoms: C5_15  and  C6_16 
REMARK    4  A    between atoms: C6_16  and  C7_17 
ROOT
HETATM    1  C1  UNL     1      44.357  15.361   2.537  1.00  0.00     0.132 A 
HETATM    2  N2  UNL     1      44.742  16.159   3.550  1.00  0.00    -0.317 N 
ATOM      3  H2  UNL     1      44.284  17.057   3.705  1.00  0.00     0.170 HD
HETATM    4  C2  UNL     1      45.740  15.752   4.355  1.00  0.00     0.182 A 
HETATM    5 CL1  UNL     1      46.270  16.778   5.695  1.00  0.00    -0.045 Cl
HETATM    6  N3  UNL     1      46.353  14.554   4.154  1.00  0.00    -0.317 N 
ATOM      7  H3  UNL     1      47.108  14.263   4.775  1.00  0.00     0.170 HD
HETATM    8  C3  UNL     1      45.973  13.752   3.143  1.00  0.00     0.140 A 
HETATM    9  N4  UNL     1      46.377  12.537   2.698  1.00  0.00    -0.330 N 
ATOM     10  H4  UNL     1      47.125  11.991   3.125  1.00  0.00     0.168 HD
HETATM   11  C4  UNL     1      45.685  12.145   1.643  1.00  0.00     0.083 A 
HETATM   12  N7  UNL     1      44.798  13.178   1.419  1.00  0.00    -0.340 N 
ATOM     13  H7  UNL     1      44.109  13.196   0.668  1.00  0.00     0.167 HD
HETATM   14  C10 UNL     1      44.963  14.144   2.314  1.00  0.00     0.122 A 
ENDROOT
BRANCH  11  15
HETATM   15  C5  UNL     1      45.761  10.943   0.819  1.00  0.00     0.083 C 
BRANCH  15  16
HETATM   16  C6  UNL     1      47.043  10.220   0.757  1.00  0.00     0.066 C 
BRANCH  16  17
HETATM   17  C7  UNL     1      47.189   8.933   1.449  1.00  0.00     0.027 A 
HETATM   18  C8  UNL     1      46.799   7.667   1.085  1.00  0.00     0.115 A 
HETATM   19  N5  UNL     1      47.169   6.861   2.120  1.00  0.00    -0.341 N 
HETATM   20  C9  UNL     1      47.753   7.616   3.057  1.00  0.00     0.179 A 
ATOM     21  H5  UNL     1      47.024   5.852   2.172  1.00  0.00     0.167 HD
HETATM   22 CL2  UNL     1      48.414   7.053   4.602  1.00  0.00    -0.045 Cl
HETATM   23  N6  UNL     1      47.787   8.898   2.685  1.00  0.00    -0.335 N 
ATOM     24  H6  UNL     1      48.174   9.683   3.207  1.00  0.00     0.168 HD
ENDBRANCH  16  17
ENDBRANCH  15  16
ENDBRANCH  11  15
BRANCH   1  25
HETATM   25  N1  UNL     1      43.397  15.763   1.770  1.00  0.00    -0.383 N 
ATOM     26  H12 UNL     1      43.578  16.441   1.029  1.00  0.00     0.157 HD
ATOM     27  H11 UNL     1      42.463  15.386   1.928  1.00  0.00     0.157 HD
ENDBRANCH   1  25
TORSDOF 4
ENDMDL
MODEL 5
REMARK VINA RESULT: -6.477199688      2.308      6.815
REMARK  4 active torsions:
REMARK  status: ('A' for Active; 'I' for Inactive)
REMARK    1  A    between atoms: N1_1  and  C1_4 
REMARK    2  A    between atoms: C4_14  and  C5_15 
REMARK    3  A    between atoms: C5_15  and  C6_16 
REMARK    4  A    between atoms: C6_16  and  C7_17 
ROOT
HETATM    1  C1  UNL     1      45.051  15.390   2.963  1.00  0.00     0.132 A 
HETATM    2  N2  UNL     1      44.510  16.607   2.768  1.00  0.00    -0.317 N 
ATOM      3  H2  UNL     1      44.692  17.366   3.424  1.00  0.00     0.170 HD
HETATM    4  C2  UNL     1      43.726  16.804   1.693  1.00  0.00     0.182 A 
HETATM    5 CL1  UNL     1      42.999  18.393   1.408  1.00  0.00    -0.045 Cl
HETATM    6  N3  UNL     1      43.480  15.796   0.814  1.00  0.00    -0.317 N 
ATOM      7  H3  UNL     1      42.883  15.965   0.005  1.00  0.00     0.170 HD
HETATM    8  C3  UNL     1      44.018  14.577   1.003  1.00  0.00     0.140 A 
HETATM    9  N4  UNL     1      43.962  13.404   0.327  1.00  0.00    -0.330 N 
ATOM     10  H4  UNL     1      43.434  13.266  -0.535  1.00  0.00     0.168 HD
HETATM   11  C4  UNL     1      44.674  12.461   0.917  1.00  0.00     0.083 A 
HETATM   12  N7  UNL     1      45.204  13.085   2.028  1.00  0.00    -0.340 N 
ATOM     13  H7  UNL     1      45.811  12.634   2.711  1.00  0.00     0.167 HD
HETATM   14  C10 UNL     1      44.817  14.353   2.087  1.00  0.00     0.122 A 
ENDROOT
BRANCH  11  15
HETATM   15  C5  UNL     1      44.905  11.060   0.583  1.00  0.00     0.083 C 
BRANCH  15  16
HETATM   16  C6  UNL     1      46.296  10.589   0.473  1.00  0.00     0.066 C 
BRANCH  16  17
HETATM   17  C7  UNL     1      46.702   9.346   1.140  1.00  0.00     0.027 A 
HETATM   18  C8  UNL     1      46.396   8.035   0.861  1.00  0.00     0.115 A 
HETATM   19  N5  UNL     1      47.027   7.302   1.822  1.00  0.00    -0.341 N 
HETATM   20  C9  UNL     1      47.678   8.141   2.636  1.00  0.00     0.179 A 
ATOM     21  H5  UNL     1      47.006   6.286   1.907  1.00  0.00     0.167 HD
HETATM   22 CL2  UNL     1      48.654   7.695   4.046  1.00  0.00    -0.045 Cl
HETATM   23  N6  UNL     1      47.505   9.409   2.252  1.00  0.00    -0.335 N 
ATOM     24  H6  UNL     1      47.887  10.245   2.692  1.00  0.00     0.168 HD
ENDBRANCH  16  17
ENDBRANCH  15  16
ENDBRANCH  11  15
BRANCH   1  25
HETATM   25  N1  UNL     1      45.803  15.213   4.000  1.00  0.00    -0.383 N 
ATOM     26  H12 UNL     1      45.465  15.460   4.931  1.00  0.00     0.157 HD
ATOM     27  H11 UNL     1      46.733  14.820   3.860  1.00  0.00     0.157 HD
ENDBRANCH   1  25
TORSDOF 4
ENDMDL
