MODEL 1
REMARK VINA RESULT: -7.184313185      0.000      0.000
REMARK  11 active torsions:
REMARK  status: ('A' for Active; 'I' for Inactive)
REMARK    1  A    between atoms: S1_2  and  C2_3 
REMARK    2  A    between atoms: C2_3  and  N3_9 
REMARK    3  A    between atoms: N1_4  and  N2_6 
REMARK    4  A    between atoms: N3_9  and  C3_11 
REMARK    5  A    between atoms: C6_14  and  N4_15 
REMARK    6  A    between atoms: C7_19  and  O1_20 
REMARK    7  A    between atoms: C8_22  and  N5_23 
REMARK    8  A    between atoms: C9_27  and  N6_28 
REMARK       I    between atoms: N6_28  and  C10_30 
REMARK    9  A    between atoms: C10_30  and  C11_32 
REMARK   10  A    between atoms: C11_32  and  N7_33 
REMARK   11  A    between atoms: C11_32  and  C12_37 
ROOT
HETATM    1  C3  UNL     1       8.388  86.157  42.922  1.00  0.00     0.108 C 
HETATM    2  C4  UNL     1       7.234  87.056  43.263  1.00  0.00     0.029 C 
HETATM    3  C5  UNL     1       5.919  86.362  43.363  1.00  0.00     0.037 C 
HETATM    4  C6  UNL     1       5.671  85.895  44.745  1.00  0.00     0.214 C 
HETATM    5  C7  UNL     1       6.708  85.144  45.435  1.00  0.00     0.181 C 
HETATM    6  C8  UNL     1       7.692  84.388  44.588  1.00  0.00     0.238 C 
HETATM    7  C9  UNL     1       8.771  85.218  44.010  1.00  0.00     0.140 C 
ENDROOT
BRANCH   7   8
HETATM    8  N6  UNL     1       9.829  84.356  43.537  1.00  0.00    -0.350 N 
HETATM    9  C10 UNL     1      11.051  84.874  43.030  1.00  0.00     0.257 C 
HETATM   10  O2  UNL     1      11.220  86.118  42.990  1.00  0.00    -0.271 OA
ATOM     11  H6  UNL     1       9.696  83.345  43.568  1.00  0.00     0.163 HD
BRANCH   9  12
HETATM   12  C11 UNL     1      12.121  83.964  42.550  1.00  0.00     0.362 C 
BRANCH  12  13
HETATM   13  N7  UNL     1      13.410  84.606  42.779  1.00  0.00    -0.058 N 
ATOM     14  H73 UNL     1      13.495  84.990  43.720  1.00  0.00     0.275 HD
ATOM     15  H72 UNL     1      14.177  83.937  42.832  1.00  0.00     0.275 HD
ATOM     16  H71 UNL     1      13.553  85.310  42.054  1.00  0.00     0.275 HD
ENDBRANCH  12  13
BRANCH  12  17
HETATM   17  C12 UNL     1      11.945  83.554  41.157  1.00  0.00     0.271 C 
HETATM   18  N8  UNL     1      12.905  82.752  40.485  1.00  0.00    -0.060 NA
HETATM   19  O3  UNL     1      10.926  83.911  40.528  1.00  0.00    -0.274 OA
ENDBRANCH  12  17
ENDBRANCH   9  12
ENDBRANCH   7   8
BRANCH   1  20
HETATM   20  N3  UNL     1       8.276  85.556  41.626  1.00  0.00    -0.363 N 
ATOM     21  H3  UNL     1       8.233  84.541  41.545  1.00  0.00     0.162 HD
BRANCH  20  22
HETATM   22  C2  UNL     1       8.223  86.360  40.444  1.00  0.00     0.154 C 
HETATM   23  N1  UNL     1       9.324  86.707  39.959  1.00  0.00    -0.287 N 
ATOM     24  H1  UNL     1      10.159  86.386  40.451  1.00  0.00     0.188 HD
BRANCH  22  25
HETATM   25  S1  UNL     1       6.661  86.797  39.764  1.00  0.00    -0.097 SA
HETATM   26  C1  UNL     1       6.179  88.477  40.158  1.00  0.00     0.099 C 
ENDBRANCH  22  25
BRANCH  23  27
HETATM   27  N2  UNL     1       9.530  87.466  38.845  1.00  0.00    -0.343 N 
ATOM     28  H22 UNL     1       8.684  87.792  38.377  1.00  0.00     0.176 HD
ATOM     29  H21 UNL     1      10.427  87.735  38.441  1.00  0.00     0.176 HD
ENDBRANCH  23  27
ENDBRANCH  20  22
ENDBRANCH   1  20
BRANCH   6  30
HETATM   30  N5  UNL     1       7.019  83.518  43.690  1.00  0.00    -0.070 N 
ATOM     31  H53 UNL     1       6.006  83.583  43.788  1.00  0.00     0.274 HD
ATOM     32  H52 UNL     1       7.101  83.836  42.724  1.00  0.00     0.274 HD
ATOM     33  H51 UNL     1       7.349  82.558  43.801  1.00  0.00     0.274 HD
ENDBRANCH   6  30
BRANCH   5  34
HETATM   34  O1  UNL     1       6.110  84.192  46.294  1.00  0.00    -0.391 OA
ATOM     35  H1  UNL     1       6.327  84.397  47.197  1.00  0.00     0.210 HD
ENDBRANCH   5  34
BRANCH   4  36
HETATM   36  N4  UNL     1       5.332  87.084  45.545  1.00  0.00    -0.072 N 
ATOM     37  H43 UNL     1       5.508  87.961  45.054  1.00  0.00     0.274 HD
ATOM     38  H42 UNL     1       4.328  87.208  45.674  1.00  0.00     0.274 HD
ATOM     39  H41 UNL     1       5.843  87.007  46.423  1.00  0.00     0.274 HD
ENDBRANCH   4  36
TORSDOF 11
ENDMDL
MODEL 2
REMARK VINA RESULT: -7.113710008      2.903      5.320
REMARK  11 active torsions:
REMARK  status: ('A' for Active; 'I' for Inactive)
REMARK    1  A    between atoms: S1_2  and  C2_3 
REMARK    2  A    between atoms: C2_3  and  N3_9 
REMARK    3  A    between atoms: N1_4  and  N2_6 
REMARK    4  A    between atoms: N3_9  and  C3_11 
REMARK    5  A    between atoms: C6_14  and  N4_15 
REMARK    6  A    between atoms: C7_19  and  O1_20 
REMARK    7  A    between atoms: C8_22  and  N5_23 
REMARK    8  A    between atoms: C9_27  and  N6_28 
REMARK       I    between atoms: N6_28  and  C10_30 
REMARK    9  A    between atoms: C10_30  and  C11_32 
REMARK   10  A    between atoms: C11_32  and  N7_33 
REMARK   11  A    between atoms: C11_32  and  C12_37 
ROOT
HETATM    1  C3  UNL     1       7.951  85.025  43.195  1.00  0.00     0.108 C 
HETATM    2  C4  UNL     1       7.833  84.037  44.321  1.00  0.00     0.029 C 
HETATM    3  C5  UNL     1       7.495  84.642  45.641  1.00  0.00     0.037 C 
HETATM    4  C6  UNL     1       6.030  84.698  45.837  1.00  0.00     0.214 C 
HETATM    5  C7  UNL     1       5.195  85.252  44.783  1.00  0.00     0.181 C 
HETATM    6  C8  UNL     1       5.831  86.239  43.846  1.00  0.00     0.238 C 
HETATM    7  C9  UNL     1       6.657  85.631  42.781  1.00  0.00     0.140 C 
ENDROOT
BRANCH   7   8
HETATM    8  N6  UNL     1       6.907  86.618  41.755  1.00  0.00    -0.350 N 
HETATM    9  C10 UNL     1       5.958  86.901  40.737  1.00  0.00     0.257 C 
HETATM   10  O2  UNL     1       4.867  86.278  40.724  1.00  0.00    -0.271 OA
ATOM     11  H6  UNL     1       7.792  87.126  41.762  1.00  0.00     0.163 HD
BRANCH   9  12
HETATM   12  C11 UNL     1       6.243  87.920  39.695  1.00  0.00     0.362 C 
BRANCH  12  13
HETATM   13  N7  UNL     1       7.684  87.970  39.480  1.00  0.00    -0.058 N 
ATOM     14  H73 UNL     1       8.181  87.235  39.983  1.00  0.00     0.275 HD
ATOM     15  H72 UNL     1       7.949  87.694  38.535  1.00  0.00     0.275 HD
ATOM     16  H71 UNL     1       8.014  88.904  39.724  1.00  0.00     0.275 HD
ENDBRANCH  12  13
BRANCH  12  17
HETATM   17  C12 UNL     1       5.682  89.234  40.007  1.00  0.00     0.271 C 
HETATM   18  N8  UNL     1       6.040  89.940  41.185  1.00  0.00    -0.060 NA
HETATM   19  O3  UNL     1       4.863  89.762  39.225  1.00  0.00    -0.274 OA
ENDBRANCH  12  17
ENDBRANCH   9  12
ENDBRANCH   7   8
BRANCH   1  20
HETATM   20  N3  UNL     1       9.021  85.961  43.370  1.00  0.00    -0.363 N 
ATOM     21  H3  UNL     1       8.851  86.829  43.877  1.00  0.00     0.162 HD
BRANCH  20  22
HETATM   22  C2  UNL     1      10.324  85.695  42.843  1.00  0.00     0.154 C 
HETATM   23  N1  UNL     1      11.255  86.410  43.281  1.00  0.00    -0.287 N 
ATOM     24  H1  UNL     1      11.000  87.117  43.971  1.00  0.00     0.188 HD
BRANCH  22  25
HETATM   25  S1  UNL     1      10.533  84.418  41.652  1.00  0.00    -0.097 SA
HETATM   26  C1  UNL     1      11.873  83.302  42.062  1.00  0.00     0.099 C 
ENDBRANCH  22  25
BRANCH  23  27
HETATM   27  N2  UNL     1      12.572  86.346  42.935  1.00  0.00    -0.343 N 
ATOM     28  H22 UNL     1      12.757  86.143  41.953  1.00  0.00     0.176 HD
ATOM     29  H21 UNL     1      13.377  86.480  43.549  1.00  0.00     0.176 HD
ENDBRANCH  23  27
ENDBRANCH  20  22
ENDBRANCH   1  20
BRANCH   6  30
HETATM   30  N5  UNL     1       6.424  87.308  44.568  1.00  0.00    -0.070 N 
ATOM     31  H53 UNL     1       6.693  87.025  45.510  1.00  0.00     0.274 HD
ATOM     32  H52 UNL     1       7.349  87.540  44.207  1.00  0.00     0.274 HD
ATOM     33  H51 UNL     1       5.809  88.122  44.579  1.00  0.00     0.274 HD
ENDBRANCH   6  30
BRANCH   5  34
HETATM   34  O1  UNL     1       4.082  85.910  45.357  1.00  0.00    -0.391 OA
ATOM     35  H1  UNL     1       3.461  86.139  44.676  1.00  0.00     0.210 HD
ENDBRANCH   5  34
BRANCH   4  36
HETATM   36  N4  UNL     1       5.584  83.324  46.126  1.00  0.00    -0.072 N 
ATOM     37  H43 UNL     1       6.357  82.674  46.272  1.00  0.00     0.274 HD
ATOM     38  H42 UNL     1       5.156  83.226  47.046  1.00  0.00     0.274 HD
ATOM     39  H41 UNL     1       4.966  83.046  45.363  1.00  0.00     0.274 HD
ENDBRANCH   4  36
TORSDOF 11
ENDMDL
MODEL 3
REMARK VINA RESULT: -6.926404210      2.565      4.816
REMARK  11 active torsions:
REMARK  status: ('A' for Active; 'I' for Inactive)
REMARK    1  A    between atoms: S1_2  and  C2_3 
REMARK    2  A    between atoms: C2_3  and  N3_9 
REMARK    3  A    between atoms: N1_4  and  N2_6 
REMARK    4  A    between atoms: N3_9  and  C3_11 
REMARK    5  A    between atoms: C6_14  and  N4_15 
REMARK    6  A    between atoms: C7_19  and  O1_20 
REMARK    7  A    between atoms: C8_22  and  N5_23 
REMARK    8  A    between atoms: C9_27  and  N6_28 
REMARK       I    between atoms: N6_28  and  C10_30 
REMARK    9  A    between atoms: C10_30  and  C11_32 
REMARK   10  A    between atoms: C11_32  and  N7_33 
REMARK   11  A    between atoms: C11_32  and  C12_37 
ROOT
HETATM    1  C3  UNL     1       7.972  84.063  44.119  1.00  0.00     0.108 C 
HETATM    2  C4  UNL     1       7.888  82.972  45.148  1.00  0.00     0.029 C 
HETATM    3  C5  UNL     1       7.649  83.450  46.539  1.00  0.00     0.037 C 
HETATM    4  C6  UNL     1       6.200  83.527  46.830  1.00  0.00     0.214 C 
HETATM    5  C7  UNL     1       5.324  84.206  45.889  1.00  0.00     0.181 C 
HETATM    6  C8  UNL     1       5.936  85.264  45.015  1.00  0.00     0.238 C 
HETATM    7  C9  UNL     1       6.677  84.742  43.846  1.00  0.00     0.140 C 
ENDROOT
BRANCH   7   8
HETATM    8  N6  UNL     1       6.900  85.819  42.909  1.00  0.00    -0.350 N 
HETATM    9  C10 UNL     1       6.017  86.066  41.823  1.00  0.00     0.257 C 
HETATM   10  O2  UNL     1       5.011  85.328  41.670  1.00  0.00    -0.271 OA
ATOM     11  H6  UNL     1       7.715  86.421  43.029  1.00  0.00     0.163 HD
BRANCH   9  12
HETATM   12  C11 UNL     1       6.271  87.179  40.875  1.00  0.00     0.362 C 
BRANCH  12  13
HETATM   13  N7  UNL     1       5.106  87.322  40.009  1.00  0.00    -0.058 N 
ATOM     14  H73 UNL     1       4.481  88.068  40.313  1.00  0.00     0.275 HD
ATOM     15  H72 UNL     1       5.343  87.703  39.094  1.00  0.00     0.275 HD
ATOM     16  H71 UNL     1       4.637  86.418  39.948  1.00  0.00     0.275 HD
ENDBRANCH  12  13
BRANCH  12  17
HETATM   17  C12 UNL     1       7.510  87.016  40.116  1.00  0.00     0.271 C 
HETATM   18  N8  UNL     1       8.639  87.849  40.337  1.00  0.00    -0.060 NA
HETATM   19  O3  UNL     1       7.594  86.123  39.246  1.00  0.00    -0.274 OA
ENDBRANCH  12  17
ENDBRANCH   9  12
ENDBRANCH   7   8
BRANCH   1  20
HETATM   20  N3  UNL     1       9.081  84.947  44.318  1.00  0.00    -0.363 N 
ATOM     21  H3  UNL     1       9.257  85.331  45.245  1.00  0.00     0.162 HD
BRANCH  20  22
HETATM   22  C2  UNL     1       9.946  85.298  43.234  1.00  0.00     0.154 C 
HETATM   23  N1  UNL     1      10.090  86.522  43.013  1.00  0.00    -0.287 N 
ATOM     24  H1  UNL     1       9.577  87.158  43.624  1.00  0.00     0.188 HD
BRANCH  22  25
HETATM   25  S1  UNL     1      10.733  84.026  42.307  1.00  0.00    -0.097 SA
HETATM   26  C1  UNL     1      12.519  84.076  42.441  1.00  0.00     0.099 C 
ENDBRANCH  22  25
BRANCH  23  27
HETATM   27  N2  UNL     1      10.858  87.098  42.045  1.00  0.00    -0.343 N 
ATOM     28  H22 UNL     1      11.026  86.522  41.220  1.00  0.00     0.176 HD
ATOM     29  H21 UNL     1      11.273  88.030  42.062  1.00  0.00     0.176 HD
ENDBRANCH  23  27
ENDBRANCH  20  22
ENDBRANCH   1  20
BRANCH   6  30
HETATM   30  N5  UNL     1       6.606  86.239  45.800  1.00  0.00    -0.070 N 
ATOM     31  H53 UNL     1       6.655  85.966  46.782  1.00  0.00     0.274 HD
ATOM     32  H52 UNL     1       7.606  86.264  45.598  1.00  0.00     0.274 HD
ATOM     33  H51 UNL     1       6.174  87.156  45.684  1.00  0.00     0.274 HD
ENDBRANCH   6  30
BRANCH   5  34
HETATM   34  O1  UNL     1       4.269  84.834  46.593  1.00  0.00    -0.391 OA
ATOM     35  H1  UNL     1       3.533  84.238  46.662  1.00  0.00     0.210 HD
ENDBRANCH   5  34
BRANCH   4  36
HETATM   36  N4  UNL     1       5.727  82.144  47.010  1.00  0.00    -0.072 N 
ATOM     37  H43 UNL     1       5.989  81.527  46.241  1.00  0.00     0.274 HD
ATOM     38  H42 UNL     1       6.218  81.645  47.751  1.00  0.00     0.274 HD
ATOM     39  H41 UNL     1       4.719  82.193  47.159  1.00  0.00     0.274 HD
ENDBRANCH   4  36
TORSDOF 11
ENDMDL
MODEL 4
REMARK VINA RESULT: -6.919044691      2.900      5.213
REMARK  11 active torsions:
REMARK  status: ('A' for Active; 'I' for Inactive)
REMARK    1  A    between atoms: S1_2  and  C2_3 
REMARK    2  A    between atoms: C2_3  and  N3_9 
REMARK    3  A    between atoms: N1_4  and  N2_6 
REMARK    4  A    between atoms: N3_9  and  C3_11 
REMARK    5  A    between atoms: C6_14  and  N4_15 
REMARK    6  A    between atoms: C7_19  and  O1_20 
REMARK    7  A    between atoms: C8_22  and  N5_23 
REMARK    8  A    between atoms: C9_27  and  N6_28 
REMARK       I    between atoms: N6_28  and  C10_30 
REMARK    9  A    between atoms: C10_30  and  C11_32 
REMARK   10  A    between atoms: C11_32  and  N7_33 
REMARK   11  A    between atoms: C11_32  and  C12_37 
ROOT
HETATM    1  C3  UNL     1       7.554  85.275  43.540  1.00  0.00     0.108 C 
HETATM    2  C4  UNL     1       7.747  84.062  44.405  1.00  0.00     0.029 C 
HETATM    3  C5  UNL     1       7.592  84.313  45.866  1.00  0.00     0.037 C 
HETATM    4  C6  UNL     1       6.189  84.115  46.291  1.00  0.00     0.214 C 
HETATM    5  C7  UNL     1       5.124  84.757  45.537  1.00  0.00     0.181 C 
HETATM    6  C8  UNL     1       5.472  86.004  44.774  1.00  0.00     0.238 C 
HETATM    7  C9  UNL     1       6.151  85.764  43.482  1.00  0.00     0.140 C 
ENDROOT
BRANCH   7   8
HETATM    8  N6  UNL     1       6.106  86.973  42.693  1.00  0.00    -0.350 N 
HETATM    9  C10 UNL     1       5.649  86.977  41.347  1.00  0.00     0.257 C 
HETATM   10  O2  UNL     1       5.271  85.899  40.825  1.00  0.00    -0.271 OA
ATOM     11  H6  UNL     1       6.413  87.851  43.113  1.00  0.00     0.163 HD
BRANCH   9  12
HETATM   12  C11 UNL     1       5.615  88.235  40.560  1.00  0.00     0.362 C 
BRANCH  12  13
HETATM   13  N7  UNL     1       6.701  88.199  39.587  1.00  0.00    -0.058 N 
ATOM     14  H73 UNL     1       7.441  88.868  39.800  1.00  0.00     0.275 HD
ATOM     15  H72 UNL     1       7.259  87.349  39.655  1.00  0.00     0.275 HD
ATOM     16  H71 UNL     1       6.305  88.335  38.657  1.00  0.00     0.275 HD
ENDBRANCH  12  13
BRANCH  12  17
HETATM   17  C12 UNL     1       5.655  89.436  41.393  1.00  0.00     0.271 C 
HETATM   18  N8  UNL     1       4.806  89.595  42.520  1.00  0.00    -0.060 NA
HETATM   19  O3  UNL     1       6.454  90.357  41.118  1.00  0.00    -0.274 OA
ENDBRANCH  12  17
ENDBRANCH   9  12
ENDBRANCH   7   8
BRANCH   1  20
HETATM   20  N3  UNL     1       8.534  86.295  43.765  1.00  0.00    -0.363 N 
ATOM     21  H3  UNL     1       8.397  86.965  44.521  1.00  0.00     0.162 HD
BRANCH  20  22
HETATM   22  C2  UNL     1       9.704  86.386  42.946  1.00  0.00     0.154 C 
HETATM   23  N1  UNL     1      10.804  86.287  43.537  1.00  0.00    -0.287 N 
ATOM     24  H1  UNL     1      10.767  86.152  44.547  1.00  0.00     0.188 HD
BRANCH  22  25
HETATM   25  S1  UNL     1       9.529  86.622  41.212  1.00  0.00    -0.097 SA
HETATM   26  C1  UNL     1       9.869  88.307  40.705  1.00  0.00     0.099 C 
ENDBRANCH  22  25
BRANCH  23  27
HETATM   27  N2  UNL     1      12.045  86.341  42.976  1.00  0.00    -0.343 N 
ATOM     28  H22 UNL     1      12.066  86.313  41.957  1.00  0.00     0.176 HD
ATOM     29  H21 UNL     1      12.939  86.405  43.465  1.00  0.00     0.176 HD
ENDBRANCH  23  27
ENDBRANCH  20  22
ENDBRANCH   1  20
BRANCH   6  30
HETATM   30  N5  UNL     1       6.070  86.967  45.629  1.00  0.00    -0.070 N 
ATOM     31  H53 UNL     1       6.329  86.563  46.530  1.00  0.00     0.274 HD
ATOM     32  H52 UNL     1       7.002  87.231  45.306  1.00  0.00     0.274 HD
ATOM     33  H51 UNL     1       5.464  87.780  45.739  1.00  0.00     0.274 HD
ENDBRANCH   6  30
BRANCH   5  34
HETATM   34  O1  UNL     1       4.070  85.111  46.413  1.00  0.00    -0.391 OA
ATOM     35  H1  UNL     1       4.107  86.042  46.597  1.00  0.00     0.210 HD
ENDBRANCH   5  34
BRANCH   4  36
HETATM   36  N4  UNL     1       5.949  82.662  46.311  1.00  0.00    -0.072 N 
ATOM     37  H43 UNL     1       6.763  82.117  46.026  1.00  0.00     0.274 HD
ATOM     38  H42 UNL     1       5.862  82.283  47.254  1.00  0.00     0.274 HD
ATOM     39  H41 UNL     1       5.128  82.489  45.731  1.00  0.00     0.274 HD
ENDBRANCH   4  36
TORSDOF 11
ENDMDL
MODEL 5
REMARK VINA RESULT: -6.837782930      2.730      5.072
REMARK  11 active torsions:
REMARK  status: ('A' for Active; 'I' for Inactive)
REMARK    1  A    between atoms: S1_2  and  C2_3 
REMARK    2  A    between atoms: C2_3  and  N3_9 
REMARK    3  A    between atoms: N1_4  and  N2_6 
REMARK    4  A    between atoms: N3_9  and  C3_11 
REMARK    5  A    between atoms: C6_14  and  N4_15 
REMARK    6  A    between atoms: C7_19  and  O1_20 
REMARK    7  A    between atoms: C8_22  and  N5_23 
REMARK    8  A    between atoms: C9_27  and  N6_28 
REMARK       I    between atoms: N6_28  and  C10_30 
REMARK    9  A    between atoms: C10_30  and  C11_32 
REMARK   10  A    between atoms: C11_32  and  N7_33 
REMARK   11  A    between atoms: C11_32  and  C12_37 
ROOT
HETATM    1  C3  UNL     1       7.776  83.950  44.064  1.00  0.00     0.108 C 
HETATM    2  C4  UNL     1       7.767  82.921  45.158  1.00  0.00     0.029 C 
HETATM    3  C5  UNL     1       7.599  83.478  46.530  1.00  0.00     0.037 C 
HETATM    4  C6  UNL     1       6.168  83.553  46.898  1.00  0.00     0.214 C 
HETATM    5  C7  UNL     1       5.229  84.164  45.971  1.00  0.00     0.181 C 
HETATM    6  C8  UNL     1       5.774  85.176  45.003  1.00  0.00     0.238 C 
HETATM    7  C9  UNL     1       6.456  84.596  43.827  1.00  0.00     0.140 C 
ENDROOT
BRANCH   7   8
HETATM    8  N6  UNL     1       6.608  85.618  42.816  1.00  0.00    -0.350 N 
HETATM    9  C10 UNL     1       5.628  85.833  41.811  1.00  0.00     0.257 C 
HETATM   10  O2  UNL     1       4.597  85.116  41.796  1.00  0.00    -0.271 OA
ATOM     11  H6  UNL     1       7.445  86.203  42.825  1.00  0.00     0.163 HD
BRANCH   9  12
HETATM   12  C11 UNL     1       5.811  86.890  40.785  1.00  0.00     0.362 C 
BRANCH  12  13
HETATM   13  N7  UNL     1       6.876  86.475  39.880  1.00  0.00    -0.058 N 
ATOM     14  H73 UNL     1       6.981  87.103  39.083  1.00  0.00     0.275 HD
ATOM     15  H72 UNL     1       7.804  86.605  40.282  1.00  0.00     0.275 HD
ATOM     16  H71 UNL     1       6.702  85.510  39.599  1.00  0.00     0.275 HD
ENDBRANCH  12  13
BRANCH  12  17
HETATM   17  C12 UNL     1       6.054  88.213  41.359  1.00  0.00     0.271 C 
HETATM   18  N8  UNL     1       5.775  88.500  42.722  1.00  0.00    -0.060 NA
HETATM   19  O3  UNL     1       6.519  89.125  40.644  1.00  0.00    -0.274 OA
ENDBRANCH  12  17
ENDBRANCH   9  12
ENDBRANCH   7   8
BRANCH   1  20
HETATM   20  N3  UNL     1       8.880  84.858  44.147  1.00  0.00    -0.363 N 
ATOM     21  H3  UNL     1       8.878  85.587  44.860  1.00  0.00     0.162 HD
BRANCH  20  22
HETATM   22  C2  UNL     1       9.985  84.758  43.244  1.00  0.00     0.154 C 
HETATM   23  N1  UNL     1      11.002  84.169  43.675  1.00  0.00    -0.287 N 
ATOM     24  H1  UNL     1      10.952  83.815  44.631  1.00  0.00     0.188 HD
BRANCH  22  25
HETATM   25  S1  UNL     1       9.850  85.447  41.631  1.00  0.00    -0.097 SA
HETATM   26  C1  UNL     1       9.869  87.239  41.639  1.00  0.00     0.099 C 
ENDBRANCH  22  25
BRANCH  23  27
HETATM   27  N2  UNL     1      12.170  83.949  43.007  1.00  0.00    -0.343 N 
ATOM     28  H22 UNL     1      12.078  83.462  42.115  1.00  0.00     0.176 HD
ATOM     29  H21 UNL     1      13.109  84.217  43.304  1.00  0.00     0.176 HD
ENDBRANCH  23  27
ENDBRANCH  20  22
ENDBRANCH   1  20
BRANCH   6  30
HETATM   30  N5  UNL     1       6.471  86.204  45.690  1.00  0.00    -0.070 N 
ATOM     31  H53 UNL     1       5.868  87.003  45.888  1.00  0.00     0.274 HD
ATOM     32  H52 UNL     1       6.690  85.936  46.650  1.00  0.00     0.274 HD
ATOM     33  H51 UNL     1       7.307  86.481  45.175  1.00  0.00     0.274 HD
ENDBRANCH   6  30
BRANCH   5  34
HETATM   34  O1  UNL     1       4.206  84.819  46.696  1.00  0.00    -0.391 OA
ATOM     35  H1  UNL     1       3.631  85.276  46.093  1.00  0.00     0.210 HD
ENDBRANCH   5  34
BRANCH   4  36
HETATM   36  N4  UNL     1       5.728  82.177  47.185  1.00  0.00    -0.072 N 
ATOM     37  H43 UNL     1       5.176  81.767  46.432  1.00  0.00     0.274 HD
ATOM     38  H42 UNL     1       6.491  81.500  47.170  1.00  0.00     0.274 HD
ATOM     39  H41 UNL     1       5.233  82.204  48.077  1.00  0.00     0.274 HD
ENDBRANCH   4  36
TORSDOF 11
ENDMDL
