MODEL 1
REMARK VINA RESULT: -9.208095159      0.000      0.000
REMARK  5 active torsions:
REMARK  status: ('A' for Active; 'I' for Inactive)
REMARK       I    between atoms: N1_2  and  C2_4 
REMARK    1  A    between atoms: C2_4  and  C3_6 
REMARK    2  A    between atoms: C7_10  and  N2_11 
REMARK    3  A    between atoms: C9_18  and  O2_19 
REMARK    4  A    between atoms: C10_24  and  N6_25 
REMARK       I    between atoms: N6_25  and  C11_27 
REMARK       I    between atoms: C11_27  and  N8_31 
REMARK    5  A    between atoms: N8_31  and  N9_33 
ROOT
HETATM    1  N2  UNL     1       7.624  86.733  41.741  1.00  0.00    -0.144 N 
HETATM    2  C8  UNL     1       7.143  87.772  40.898  1.00  0.00     0.678 C 
HETATM    3  N3  UNL     1       6.223  88.616  41.216  1.00  0.00    -0.235 N 
ATOM      4  H31 UNL     1       5.877  89.362  40.612  1.00  0.00     0.174 HD
ATOM      5  H32 UNL     1       5.831  88.498  42.150  1.00  0.00     0.174 HD
HETATM    6  N4  UNL     1       7.697  87.938  39.580  1.00  0.00    -0.174 N 
ATOM      7  H4  UNL     1       7.172  88.389  38.830  1.00  0.00     0.182 HD
HETATM    8  C9  UNL     1       9.036  87.434  39.373  1.00  0.00     0.445 C 
HETATM    9  N5  UNL     1       9.113  86.124  39.960  1.00  0.00     0.009 N 
ATOM     10  H51 UNL     1       9.986  85.657  39.715  1.00  0.00     0.287 HD
ATOM     11  H52 UNL     1       8.458  85.478  39.519  1.00  0.00     0.287 HD
HETATM   12  C10 UNL     1       8.922  86.174  41.397  1.00  0.00     0.427 C 
ENDROOT
BRANCH   1  13
HETATM   13  C7  UNL     1       6.799  86.333  42.831  1.00  0.00     0.245 C 
HETATM   14  C6  UNL     1       6.302  87.466  43.681  1.00  0.00     0.055 C 
HETATM   15  C5  UNL     1       5.290  86.893  44.654  1.00  0.00     0.007 C 
HETATM   16  C4  UNL     1       5.853  85.729  45.433  1.00  0.00     0.042 C 
HETATM   17  C3  UNL     1       6.493  84.802  44.435  1.00  0.00     0.216 C 
HETATM   18  O5  UNL     1       7.479  85.458  43.704  1.00  0.00    -0.351 OA
BRANCH  17  19
HETATM   19  C2  UNL     1       6.967  83.548  45.032  1.00  0.00     0.246 C 
HETATM   20  N1  UNL     1       6.650  83.130  46.349  1.00  0.00    -0.363 N 
HETATM   21  C1  UNL     1       7.110  81.909  46.935  1.00  0.00     0.149 C 
ATOM     22  H1  UNL     1       6.057  83.738  46.914  1.00  0.00     0.162 HD
HETATM   23  O1  UNL     1       7.695  82.795  44.349  1.00  0.00    -0.271 OA
ENDBRANCH  17  19
ENDBRANCH   1  13
BRANCH  12  24
HETATM   24  N6  UNL     1      10.011  86.915  41.955  1.00  0.00    -0.178 N 
HETATM   25  C11 UNL     1      10.845  86.305  42.930  1.00  0.00     0.694 C 
HETATM   26  N7  UNL     1      10.288  85.788  43.978  1.00  0.00    -0.233 N 
HETATM   27  N8  UNL     1      12.261  86.234  42.814  1.00  0.00    -0.072 N 
ATOM     28  H72 UNL     1       9.273  85.838  44.062  1.00  0.00     0.174 HD
ATOM     29  H71 UNL     1      10.886  85.350  44.678  1.00  0.00     0.174 HD
ATOM     30  H8  UNL     1      12.799  87.093  42.701  1.00  0.00     0.212 HD
ATOM     31  H6  UNL     1      10.188  87.874  41.656  1.00  0.00     0.181 HD
BRANCH  27  32
HETATM   32  N9  UNL     1      12.925  85.005  42.854  1.00  0.00    -0.024 N 
HETATM   33  O3  UNL     1      12.313  83.929  42.933  1.00  0.00    -0.516 OA
HETATM   34  O4  UNL     1      14.310  84.942  42.806  1.00  0.00    -0.516 OA
ENDBRANCH  27  32
ENDBRANCH  12  24
BRANCH   8  35
HETATM   35  O2  UNL     1       9.378  87.380  38.029  1.00  0.00    -0.354 OA
ATOM     36  H2  UNL     1      10.125  86.815  37.868  1.00  0.00     0.214 HD
ENDBRANCH   8  35
TORSDOF 5
ENDMDL
MODEL 2
REMARK VINA RESULT: -8.606120135      3.288      5.715
REMARK  5 active torsions:
REMARK  status: ('A' for Active; 'I' for Inactive)
REMARK       I    between atoms: N1_2  and  C2_4 
REMARK    1  A    between atoms: C2_4  and  C3_6 
REMARK    2  A    between atoms: C7_10  and  N2_11 
REMARK    3  A    between atoms: C9_18  and  O2_19 
REMARK    4  A    between atoms: C10_24  and  N6_25 
REMARK       I    between atoms: N6_25  and  C11_27 
REMARK       I    between atoms: C11_27  and  N8_31 
REMARK    5  A    between atoms: N8_31  and  N9_33 
ROOT
HETATM    1  N2  UNL     1       7.161  87.014  40.929  1.00  0.00    -0.144 N 
HETATM    2  C8  UNL     1       8.479  87.280  40.467  1.00  0.00     0.678 C 
HETATM    3  N3  UNL     1       8.818  88.285  39.738  1.00  0.00    -0.235 N 
ATOM      4  H31 UNL     1       9.764  88.477  39.406  1.00  0.00     0.174 HD
ATOM      5  H32 UNL     1       8.057  88.917  39.490  1.00  0.00     0.174 HD
HETATM    6  N4  UNL     1       9.554  86.387  40.818  1.00  0.00    -0.174 N 
ATOM      7  H4  UNL     1      10.395  86.310  40.246  1.00  0.00     0.182 HD
HETATM    8  C9  UNL     1       9.379  85.606  42.021  1.00  0.00     0.445 C 
HETATM    9  N5  UNL     1       8.049  85.063  42.009  1.00  0.00     0.009 N 
ATOM     10  H51 UNL     1       7.917  84.382  42.757  1.00  0.00     0.287 HD
ATOM     11  H52 UNL     1       7.903  84.449  41.208  1.00  0.00     0.287 HD
HETATM   12  C10 UNL     1       7.047  86.111  42.063  1.00  0.00     0.427 C 
ENDROOT
BRANCH   1  13
HETATM   13  C7  UNL     1       6.083  87.644  40.244  1.00  0.00     0.245 C 
HETATM   14  C6  UNL     1       5.990  89.126  40.465  1.00  0.00     0.055 C 
HETATM   15  C5  UNL     1       4.934  89.660  39.517  1.00  0.00     0.007 C 
HETATM   16  C4  UNL     1       3.623  88.925  39.662  1.00  0.00     0.042 C 
HETATM   17  C3  UNL     1       3.940  87.454  39.627  1.00  0.00     0.216 C 
HETATM   18  O5  UNL     1       4.837  87.111  40.635  1.00  0.00    -0.351 OA
BRANCH  17  19
HETATM   19  C2  UNL     1       2.743  86.605  39.619  1.00  0.00     0.246 C 
HETATM   20  N1  UNL     1       2.565  85.480  40.462  1.00  0.00    -0.363 N 
HETATM   21  C1  UNL     1       1.399  84.650  40.457  1.00  0.00     0.149 C 
ATOM     22  H1  UNL     1       3.314  85.248  41.113  1.00  0.00     0.162 HD
HETATM   23  O1  UNL     1       1.817  86.881  38.824  1.00  0.00    -0.271 OA
ENDBRANCH  17  19
ENDBRANCH   1  13
BRANCH  12  24
HETATM   24  N6  UNL     1       7.182  86.779  43.321  1.00  0.00    -0.178 N 
HETATM   25  C11 UNL     1       6.218  86.554  44.340  1.00  0.00     0.694 C 
HETATM   26  N7  UNL     1       4.969  86.738  44.055  1.00  0.00    -0.233 N 
HETATM   27  N8  UNL     1       6.555  86.138  45.657  1.00  0.00    -0.072 N 
ATOM     28  H72 UNL     1       4.726  87.036  43.111  1.00  0.00     0.174 HD
ATOM     29  H71 UNL     1       4.276  86.577  44.786  1.00  0.00     0.174 HD
ATOM     30  H8  UNL     1       7.202  86.699  46.211  1.00  0.00     0.212 HD
ATOM     31  H6  UNL     1       7.965  87.412  43.486  1.00  0.00     0.181 HD
BRANCH  27  32
HETATM   32  N9  UNL     1       6.012  84.971  46.204  1.00  0.00    -0.024 N 
HETATM   33  O3  UNL     1       6.697  83.955  46.399  1.00  0.00    -0.516 OA
HETATM   34  O4  UNL     1       4.671  84.906  46.551  1.00  0.00    -0.516 OA
ENDBRANCH  27  32
ENDBRANCH  12  24
BRANCH   8  35
HETATM   35  O2  UNL     1      10.315  84.587  42.130  1.00  0.00    -0.354 OA
ATOM     36  H2  UNL     1      10.841  84.662  42.918  1.00  0.00     0.214 HD
ENDBRANCH   8  35
TORSDOF 5
ENDMDL
MODEL 3
REMARK VINA RESULT: -8.491778176      2.289      3.149
REMARK  5 active torsions:
REMARK  status: ('A' for Active; 'I' for Inactive)
REMARK       I    between atoms: N1_2  and  C2_4 
REMARK    1  A    between atoms: C2_4  and  C3_6 
REMARK    2  A    between atoms: C7_10  and  N2_11 
REMARK    3  A    between atoms: C9_18  and  O2_19 
REMARK    4  A    between atoms: C10_24  and  N6_25 
REMARK       I    between atoms: N6_25  and  C11_27 
REMARK       I    between atoms: C11_27  and  N8_31 
REMARK    5  A    between atoms: N8_31  and  N9_33 
ROOT
HETATM    1  N2  UNL     1       7.412  86.407  41.467  1.00  0.00    -0.144 N 
HETATM    2  C8  UNL     1       6.965  87.500  40.675  1.00  0.00     0.678 C 
HETATM    3  N3  UNL     1       5.934  88.227  40.933  1.00  0.00    -0.235 N 
ATOM      4  H31 UNL     1       5.613  89.012  40.365  1.00  0.00     0.174 HD
ATOM      5  H32 UNL     1       5.423  87.970  41.777  1.00  0.00     0.174 HD
HETATM    6  N4  UNL     1       7.688  87.862  39.483  1.00  0.00    -0.174 N 
ATOM      7  H4  UNL     1       7.238  88.358  38.713  1.00  0.00     0.182 HD
HETATM    8  C9  UNL     1       9.083  87.489  39.435  1.00  0.00     0.445 C 
HETATM    9  N5  UNL     1       9.195  86.129  39.884  1.00  0.00     0.009 N 
ATOM     10  H51 UNL     1      10.134  85.760  39.730  1.00  0.00     0.287 HD
ATOM     11  H52 UNL     1       8.674  85.492  39.281  1.00  0.00     0.287 HD
HETATM   12  C10 UNL     1       8.792  85.993  41.271  1.00  0.00     0.427 C 
ENDROOT
BRANCH   1  13
HETATM   13  C7  UNL     1       6.478  85.819  42.366  1.00  0.00     0.245 C 
HETATM   14  C6  UNL     1       7.051  84.742  43.241  1.00  0.00     0.055 C 
HETATM   15  C5  UNL     1       5.993  84.374  44.262  1.00  0.00     0.007 C 
HETATM   16  C4  UNL     1       4.681  84.013  43.608  1.00  0.00     0.042 C 
HETATM   17  C3  UNL     1       4.372  85.102  42.615  1.00  0.00     0.216 C 
HETATM   18  O5  UNL     1       5.395  85.230  41.680  1.00  0.00    -0.351 OA
BRANCH  17  19
HETATM   19  C2  UNL     1       3.050  84.959  41.995  1.00  0.00     0.246 C 
HETATM   20  N1  UNL     1       2.669  85.598  40.788  1.00  0.00    -0.363 N 
HETATM   21  C1  UNL     1       1.382  85.462  40.180  1.00  0.00     0.149 C 
ATOM     22  H1  UNL     1       3.357  86.191  40.324  1.00  0.00     0.162 HD
HETATM   23  O1  UNL     1       2.199  84.234  42.556  1.00  0.00    -0.271 OA
ENDBRANCH  17  19
ENDBRANCH   1  13
BRANCH  12  24
HETATM   24  N6  UNL     1       9.715  86.742  42.068  1.00  0.00    -0.178 N 
HETATM   25  C11 UNL     1      10.614  86.056  42.928  1.00  0.00     0.694 C 
HETATM   26  N7  UNL     1      10.126  85.212  43.780  1.00  0.00    -0.233 N 
HETATM   27  N8  UNL     1      12.022  86.251  42.902  1.00  0.00    -0.072 N 
ATOM     28  H72 UNL     1       9.116  85.072  43.798  1.00  0.00     0.174 HD
ATOM     29  H71 UNL     1      10.771  84.720  44.398  1.00  0.00     0.174 HD
ATOM     30  H8  UNL     1      12.403  87.188  43.036  1.00  0.00     0.212 HD
ATOM     31  H6  UNL     1       9.728  87.761  42.019  1.00  0.00     0.181 HD
BRANCH  27  32
HETATM   32  N9  UNL     1      12.893  85.177  42.697  1.00  0.00    -0.024 N 
HETATM   33  O3  UNL     1      12.497  84.001  42.688  1.00  0.00    -0.516 OA
HETATM   34  O4  UNL     1      14.249  85.388  42.495  1.00  0.00    -0.516 OA
ENDBRANCH  27  32
ENDBRANCH  12  24
BRANCH   8  35
HETATM   35  O2  UNL     1       9.622  87.621  38.162  1.00  0.00    -0.354 OA
ATOM     36  H2  UNL     1       9.815  88.526  37.944  1.00  0.00     0.214 HD
ENDBRANCH   8  35
TORSDOF 5
ENDMDL
MODEL 4
REMARK VINA RESULT: -7.886601371      2.179      4.684
REMARK  5 active torsions:
REMARK  status: ('A' for Active; 'I' for Inactive)
REMARK       I    between atoms: N1_2  and  C2_4 
REMARK    1  A    between atoms: C2_4  and  C3_6 
REMARK    2  A    between atoms: C7_10  and  N2_11 
REMARK    3  A    between atoms: C9_18  and  O2_19 
REMARK    4  A    between atoms: C10_24  and  N6_25 
REMARK       I    between atoms: N6_25  and  C11_27 
REMARK       I    between atoms: C11_27  and  N8_31 
REMARK    5  A    between atoms: N8_31  and  N9_33 
ROOT
HETATM    1  N2  UNL     1       8.296  85.296  43.701  1.00  0.00    -0.144 N 
HETATM    2  C8  UNL     1       9.294  84.288  43.807  1.00  0.00     0.678 C 
HETATM    3  N3  UNL     1       9.071  83.054  44.097  1.00  0.00    -0.235 N 
ATOM      4  H31 UNL     1       9.787  82.330  44.173  1.00  0.00     0.174 HD
ATOM      5  H32 UNL     1       8.092  82.816  44.257  1.00  0.00     0.174 HD
HETATM    6  N4  UNL     1      10.676  84.624  43.581  1.00  0.00    -0.174 N 
ATOM      7  H4  UNL     1      11.435  84.076  43.986  1.00  0.00     0.182 HD
HETATM    8  C9  UNL     1      10.932  85.778  42.749  1.00  0.00     0.445 C 
HETATM    9  N5  UNL     1      10.059  86.836  43.174  1.00  0.00     0.009 N 
ATOM     10  H51 UNL     1      10.298  87.721  42.725  1.00  0.00     0.287 HD
ATOM     11  H52 UNL     1      10.235  87.099  44.144  1.00  0.00     0.287 HD
HETATM   12  C10 UNL     1       8.665  86.492  42.963  1.00  0.00     0.427 C 
ENDROOT
BRANCH   1  13
HETATM   13  C7  UNL     1       7.039  85.047  44.324  1.00  0.00     0.245 C 
HETATM   14  C6  UNL     1       6.176  86.264  44.489  1.00  0.00     0.055 C 
HETATM   15  C5  UNL     1       4.817  85.796  44.971  1.00  0.00     0.007 C 
HETATM   16  C4  UNL     1       4.925  84.936  46.207  1.00  0.00     0.042 C 
HETATM   17  C3  UNL     1       5.983  83.902  45.931  1.00  0.00     0.216 C 
HETATM   18  O5  UNL     1       7.198  84.503  45.615  1.00  0.00    -0.351 OA
BRANCH  17  19
HETATM   19  C2  UNL     1       6.104  82.901  46.997  1.00  0.00     0.246 C 
HETATM   20  N1  UNL     1       7.341  82.439  47.512  1.00  0.00    -0.363 N 
HETATM   21  C1  UNL     1       7.464  81.463  48.551  1.00  0.00     0.149 C 
ATOM     22  H1  UNL     1       8.198  82.827  47.117  1.00  0.00     0.162 HD
HETATM   23  O1  UNL     1       5.060  82.418  47.488  1.00  0.00    -0.271 OA
ENDBRANCH  17  19
ENDBRANCH   1  13
BRANCH  12  24
HETATM   24  N6  UNL     1       8.459  86.361  41.552  1.00  0.00    -0.178 N 
HETATM   25  C11 UNL     1       7.189  86.680  40.999  1.00  0.00     0.694 C 
HETATM   26  N7  UNL     1       6.141  86.104  41.493  1.00  0.00    -0.233 N 
HETATM   27  N8  UNL     1       7.013  87.600  39.929  1.00  0.00    -0.072 N 
ATOM     28  H72 UNL     1       6.268  85.445  42.261  1.00  0.00     0.174 HD
ATOM     29  H71 UNL     1       5.230  86.332  41.096  1.00  0.00     0.174 HD
ATOM     30  H8  UNL     1       7.504  87.447  39.049  1.00  0.00     0.212 HD
ATOM     31  H6  UNL     1       9.216  86.041  40.949  1.00  0.00     0.181 HD
BRANCH  27  32
HETATM   32  N9  UNL     1       6.173  88.709  40.066  1.00  0.00    -0.024 N 
HETATM   33  O3  UNL     1       5.153  88.852  39.375  1.00  0.00    -0.516 OA
HETATM   34  O4  UNL     1       6.455  89.705  40.991  1.00  0.00    -0.516 OA
ENDBRANCH  27  32
ENDBRANCH  12  24
BRANCH   8  35
HETATM   35  O2  UNL     1      12.256  86.191  42.812  1.00  0.00    -0.354 OA
ATOM     36  H2  UNL     1      12.392  87.035  42.396  1.00  0.00     0.214 HD
ENDBRANCH   8  35
TORSDOF 5
ENDMDL
MODEL 5
REMARK VINA RESULT: -7.829641246      4.153      7.122
REMARK  5 active torsions:
REMARK  status: ('A' for Active; 'I' for Inactive)
REMARK       I    between atoms: N1_2  and  C2_4 
REMARK    1  A    between atoms: C2_4  and  C3_6 
REMARK    2  A    between atoms: C7_10  and  N2_11 
REMARK    3  A    between atoms: C9_18  and  O2_19 
REMARK    4  A    between atoms: C10_24  and  N6_25 
REMARK       I    between atoms: N6_25  and  C11_27 
REMARK       I    between atoms: C11_27  and  N8_31 
REMARK    5  A    between atoms: N8_31  and  N9_33 
ROOT
HETATM    1  N2  UNL     1       5.796  87.096  40.696  1.00  0.00    -0.144 N 
HETATM    2  C8  UNL     1       6.519  88.060  39.941  1.00  0.00     0.678 C 
HETATM    3  N3  UNL     1       7.751  87.947  39.583  1.00  0.00    -0.235 N 
ATOM      4  H31 UNL     1       8.269  88.638  39.040  1.00  0.00     0.174 HD
ATOM      5  H32 UNL     1       8.213  87.089  39.883  1.00  0.00     0.174 HD
HETATM    6  N4  UNL     1       5.866  89.271  39.516  1.00  0.00    -0.174 N 
ATOM      7  H4  UNL     1       6.392  90.122  39.314  1.00  0.00     0.182 HD
HETATM    8  C9  UNL     1       4.427  89.221  39.392  1.00  0.00     0.445 C 
HETATM    9  N5  UNL     1       3.903  88.564  40.557  1.00  0.00     0.009 N 
ATOM     10  H51 UNL     1       2.886  88.632  40.599  1.00  0.00     0.287 HD
ATOM     11  H52 UNL     1       4.130  89.077  41.409  1.00  0.00     0.287 HD
HETATM   12  C10 UNL     1       4.347  87.185  40.635  1.00  0.00     0.427 C 
ENDROOT
BRANCH   1  13
HETATM   13  C7  UNL     1       6.549  86.144  41.442  1.00  0.00     0.245 C 
HETATM   14  C6  UNL     1       5.852  85.622  42.665  1.00  0.00     0.055 C 
HETATM   15  C5  UNL     1       6.693  84.488  43.217  1.00  0.00     0.007 C 
HETATM   16  C4  UNL     1       8.124  84.907  43.447  1.00  0.00     0.042 C 
HETATM   17  C3  UNL     1       8.586  85.596  42.191  1.00  0.00     0.216 C 
HETATM   18  O5  UNL     1       7.773  86.684  41.890  1.00  0.00    -0.351 OA
BRANCH  17  19
HETATM   19  C2  UNL     1      10.012  85.940  42.212  1.00  0.00     0.246 C 
HETATM   20  N1  UNL     1      11.019  85.110  42.766  1.00  0.00    -0.363 N 
HETATM   21  C1  UNL     1      12.410  85.442  42.788  1.00  0.00     0.149 C 
ATOM     22  H1  UNL     1      10.733  84.221  43.174  1.00  0.00     0.162 HD
HETATM   23  O1  UNL     1      10.374  87.029  41.714  1.00  0.00    -0.271 OA
ENDBRANCH  17  19
ENDBRANCH   1  13
BRANCH  12  24
HETATM   24  N6  UNL     1       3.795  86.487  39.514  1.00  0.00    -0.178 N 
HETATM   25  C11 UNL     1       2.472  85.974  39.592  1.00  0.00     0.694 C 
HETATM   26  N7  UNL     1       2.170  85.199  40.584  1.00  0.00    -0.233 N 
HETATM   27  N8  UNL     1       1.462  86.268  38.635  1.00  0.00    -0.072 N 
ATOM     28  H72 UNL     1       2.894  84.989  41.271  1.00  0.00     0.174 HD
ATOM     29  H71 UNL     1       1.221  84.831  40.640  1.00  0.00     0.174 HD
ATOM     30  H8  UNL     1       1.626  86.057  37.650  1.00  0.00     0.212 HD
ATOM     31  H6  UNL     1       4.346  86.358  38.666  1.00  0.00     0.181 HD
BRANCH  27  32
HETATM   32  N9  UNL     1       0.248  86.841  39.023  1.00  0.00    -0.024 N 
HETATM   33  O3  UNL     1       0.036  87.206  40.190  1.00  0.00    -0.516 OA
HETATM   34  O4  UNL     1      -0.778  87.024  38.107  1.00  0.00    -0.516 OA
ENDBRANCH  27  32
ENDBRANCH  12  24
BRANCH   8  35
HETATM   35  O2  UNL     1       3.864  90.482  39.256  1.00  0.00    -0.354 OA
ATOM     36  H2  UNL     1       4.020  91.032  40.015  1.00  0.00     0.214 HD
ENDBRANCH   8  35
TORSDOF 5
ENDMDL
