MODEL 1
REMARK VINA RESULT: -7.024362542      0.000      0.000
REMARK  7 active torsions:
REMARK  status: ('A' for Active; 'I' for Inactive)
REMARK       I    between atoms: C1_4  and  N2_5 
REMARK       I    between atoms: C1_4  and  N5_14 
REMARK    1  A    between atoms: N2_5  and  N3_7 
REMARK    2  A    between atoms: N3_7  and  C2_8 
REMARK    3  A    between atoms: C2_8  and  C3_9 
REMARK    4  A    between atoms: C3_9  and  N4_10 
REMARK       I    between atoms: N5_14  and  C4_16 
REMARK    5  A    between atoms: C4_16  and  C5_18 
REMARK    6  A    between atoms: C5_18  and  O2_19 
REMARK    7  A    between atoms: C13_34  and  N8_35 
ROOT
HETATM    1  C5  UNL     1       9.409  84.180  43.627  1.00  0.00     0.143 C 
HETATM    2  C6  UNL     1       8.932  82.872  44.269  1.00  0.00     0.067 C 
HETATM    3  C7  UNL     1       8.834  83.074  45.739  1.00  0.00     0.117 C 
HETATM    4  N6  UNL     1       8.109  82.047  46.435  1.00  0.00    -0.419 N 
ATOM      5  H6  UNL     1       8.566  81.407  47.085  1.00  0.00     0.153 HD
HETATM    6  C8  UNL     1       6.722  81.976  46.162  1.00  0.00     0.140 C 
HETATM    7  C9  UNL     1       5.861  82.954  46.895  1.00  0.00     0.186 C 
HETATM    8  O3  UNL     1       6.147  84.271  46.669  1.00  0.00    -0.388 OA
HETATM    9  C10 UNL     1       5.057  84.962  46.207  1.00  0.00     0.187 C 
HETATM   10  C11 UNL     1       5.364  86.208  45.450  1.00  0.00     0.148 C 
HETATM   11  N7  UNL     1       6.729  86.425  45.114  1.00  0.00    -0.357 N 
ATOM     12  H7  UNL     1       7.343  86.651  45.896  1.00  0.00     0.162 HD
HETATM   13  C12 UNL     1       7.349  86.370  43.849  1.00  0.00     0.248 C 
HETATM   14  O4  UNL     1       8.094  87.350  43.471  1.00  0.00    -0.271 OA
HETATM   15  C13 UNL     1       7.248  85.284  42.859  1.00  0.00     0.278 C 
HETATM   16  C14 UNL     1       8.504  84.599  42.503  1.00  0.00     0.090 C 
ENDROOT
BRANCH   1  17
HETATM   17  C4  UNL     1      10.713  83.874  42.990  1.00  0.00     0.270 C 
HETATM   18  N5  UNL     1      10.770  83.491  41.636  1.00  0.00    -0.156 N 
HETATM   19  C1  UNL     1      11.993  83.190  40.981  1.00  0.00     0.690 C 
ATOM     20  H5  UNL     1       9.900  83.427  41.107  1.00  0.00     0.187 HD
HETATM   21  N1  UNL     1      12.003  82.841  39.743  1.00  0.00    -0.234 N 
HETATM   22  N2  UNL     1      13.232  83.267  41.670  1.00  0.00    -0.137 N 
ATOM     23  H12 UNL     1      12.881  82.625  39.272  1.00  0.00     0.174 HD
ATOM     24  H11 UNL     1      11.112  82.786  39.247  1.00  0.00     0.174 HD
ATOM     25  H2  UNL     1      13.548  82.492  42.252  1.00  0.00     0.201 HD
HETATM   26  O1  UNL     1      11.749  83.966  43.686  1.00  0.00    -0.269 OA
BRANCH  22  27
HETATM   27  N3  UNL     1      14.004  84.406  41.538  1.00  0.00    -0.125 NA
BRANCH  27  28
HETATM   28  C2  UNL     1      14.769  84.742  42.707  1.00  0.00     0.162 C 
BRANCH  28  29
HETATM   29  C3  UNL     1      14.498  86.192  43.126  1.00  0.00     0.247 C 
BRANCH  29  30
HETATM   30  N4  UNL     1      13.058  86.429  43.037  1.00  0.00    -0.078 N 
ATOM     31  H43 UNL     1      12.614  85.885  42.296  1.00  0.00     0.274 HD
ATOM     32  H42 UNL     1      12.544  86.034  43.825  1.00  0.00     0.274 HD
ATOM     33  H41 UNL     1      12.908  87.432  42.932  1.00  0.00     0.274 HD
ENDBRANCH  29  30
ENDBRANCH  28  29
ENDBRANCH  27  28
ENDBRANCH  22  27
ENDBRANCH   1  17
BRANCH   1  34
HETATM   34  O2  UNL     1       9.617  85.167  44.560  1.00  0.00    -0.380 OA
ATOM     35  H2  UNL     1       8.866  85.747  44.543  1.00  0.00     0.211 HD
ENDBRANCH   1  34
BRANCH  15  36
HETATM   36  N8  UNL     1       6.208  84.327  43.121  1.00  0.00    -0.066 N 
ATOM     37  H83 UNL     1       6.562  83.572  43.710  1.00  0.00     0.275 HD
ATOM     38  H82 UNL     1       5.509  84.725  43.748  1.00  0.00     0.275 HD
ATOM     39  H81 UNL     1       5.759  83.945  42.288  1.00  0.00     0.275 HD
ENDBRANCH  15  36
TORSDOF 7
ENDMDL
MODEL 2
REMARK VINA RESULT: -6.702339202      2.591      3.600
REMARK  7 active torsions:
REMARK  status: ('A' for Active; 'I' for Inactive)
REMARK       I    between atoms: C1_4  and  N2_5 
REMARK       I    between atoms: C1_4  and  N5_14 
REMARK    1  A    between atoms: N2_5  and  N3_7 
REMARK    2  A    between atoms: N3_7  and  C2_8 
REMARK    3  A    between atoms: C2_8  and  C3_9 
REMARK    4  A    between atoms: C3_9  and  N4_10 
REMARK       I    between atoms: N5_14  and  C4_16 
REMARK    5  A    between atoms: C4_16  and  C5_18 
REMARK    6  A    between atoms: C5_18  and  O2_19 
REMARK    7  A    between atoms: C13_34  and  N8_35 
ROOT
HETATM    1  C5  UNL     1       9.132  85.803  41.536  1.00  0.00     0.143 C 
HETATM    2  C6  UNL     1       8.256  85.429  42.736  1.00  0.00     0.067 C 
HETATM    3  C7  UNL     1       8.255  86.566  43.695  1.00  0.00     0.117 C 
HETATM    4  N6  UNL     1       7.240  86.490  44.708  1.00  0.00    -0.419 N 
ATOM      5  H6  UNL     1       7.467  86.348  45.693  1.00  0.00     0.153 HD
HETATM    6  C8  UNL     1       5.905  86.623  44.258  1.00  0.00     0.140 C 
HETATM    7  C9  UNL     1       5.433  88.022  44.018  1.00  0.00     0.186 C 
HETATM    8  O3  UNL     1       6.139  88.726  43.084  1.00  0.00    -0.388 OA
HETATM    9  C10 UNL     1       5.336  89.194  42.077  1.00  0.00     0.187 C 
HETATM   10  C11 UNL     1       6.030  89.494  40.793  1.00  0.00     0.148 C 
HETATM   11  N7  UNL     1       7.382  89.068  40.690  1.00  0.00    -0.357 N 
ATOM     12  H7  UNL     1       8.050  89.582  41.265  1.00  0.00     0.162 HD
HETATM   13  C12 UNL     1       7.928  88.034  39.902  1.00  0.00     0.248 C 
HETATM   14  O4  UNL     1       8.951  88.280  39.161  1.00  0.00    -0.271 OA
HETATM   15  C13 UNL     1       7.453  86.642  39.816  1.00  0.00     0.278 C 
HETATM   16  C14 UNL     1       8.401  85.595  40.239  1.00  0.00     0.090 C 
ENDROOT
BRANCH   1  17
HETATM   17  C4  UNL     1      10.248  84.827  41.520  1.00  0.00     0.270 C 
HETATM   18  N5  UNL     1      10.505  84.059  40.368  1.00  0.00    -0.156 N 
HETATM   19  C1  UNL     1      11.561  83.113  40.303  1.00  0.00     0.690 C 
ATOM     20  H5  UNL     1       9.909  84.187  39.549  1.00  0.00     0.187 HD
HETATM   21  N1  UNL     1      11.761  82.428  39.232  1.00  0.00    -0.234 N 
HETATM   22  N2  UNL     1      12.421  82.897  41.411  1.00  0.00    -0.137 N 
ATOM     23  H12 UNL     1      12.520  81.749  39.185  1.00  0.00     0.174 HD
ATOM     24  H11 UNL     1      11.143  82.583  38.435  1.00  0.00     0.174 HD
ATOM     25  H2  UNL     1      12.140  82.279  42.172  1.00  0.00     0.201 HD
HETATM   26  O1  UNL     1      10.946  84.708  42.552  1.00  0.00    -0.269 OA
BRANCH  22  27
HETATM   27  N3  UNL     1      13.647  83.537  41.444  1.00  0.00    -0.125 NA
BRANCH  27  28
HETATM   28  C2  UNL     1      14.034  84.010  42.744  1.00  0.00     0.162 C 
BRANCH  28  29
HETATM   29  C3  UNL     1      14.532  85.457  42.661  1.00  0.00     0.247 C 
BRANCH  29  30
HETATM   30  N4  UNL     1      13.463  86.334  43.137  1.00  0.00    -0.078 N 
ATOM     31  H43 UNL     1      12.766  86.532  42.419  1.00  0.00     0.274 HD
ATOM     32  H42 UNL     1      12.845  85.873  43.805  1.00  0.00     0.274 HD
ATOM     33  H41 UNL     1      13.890  87.179  43.514  1.00  0.00     0.274 HD
ENDBRANCH  29  30
ENDBRANCH  28  29
ENDBRANCH  27  28
ENDBRANCH  22  27
ENDBRANCH   1  17
BRANCH   1  34
HETATM   34  O2  UNL     1       9.674  87.059  41.663  1.00  0.00    -0.380 OA
ATOM     35  H2  UNL     1      10.619  86.969  41.670  1.00  0.00     0.211 HD
ENDBRANCH   1  34
BRANCH  15  36
HETATM   36  N8  UNL     1       6.157  86.412  40.394  1.00  0.00    -0.066 N 
ATOM     37  H83 UNL     1       6.252  86.018  41.331  1.00  0.00     0.275 HD
ATOM     38  H82 UNL     1       5.708  87.299  40.621  1.00  0.00     0.275 HD
ATOM     39  H81 UNL     1       5.534  85.834  39.829  1.00  0.00     0.275 HD
ENDBRANCH  15  36
TORSDOF 7
ENDMDL
MODEL 3
REMARK VINA RESULT: -6.510040643      1.145      2.313
REMARK  7 active torsions:
REMARK  status: ('A' for Active; 'I' for Inactive)
REMARK       I    between atoms: C1_4  and  N2_5 
REMARK       I    between atoms: C1_4  and  N5_14 
REMARK    1  A    between atoms: N2_5  and  N3_7 
REMARK    2  A    between atoms: N3_7  and  C2_8 
REMARK    3  A    between atoms: C2_8  and  C3_9 
REMARK    4  A    between atoms: C3_9  and  N4_10 
REMARK       I    between atoms: N5_14  and  C4_16 
REMARK    5  A    between atoms: C4_16  and  C5_18 
REMARK    6  A    between atoms: C5_18  and  O2_19 
REMARK    7  A    between atoms: C13_34  and  N8_35 
ROOT
HETATM    1  C5  UNL     1       9.157  84.552  43.416  1.00  0.00     0.143 C 
HETATM    2  C6  UNL     1       8.916  83.170  44.033  1.00  0.00     0.067 C 
HETATM    3  C7  UNL     1       8.922  83.304  45.514  1.00  0.00     0.117 C 
HETATM    4  N6  UNL     1       8.403  82.163  46.217  1.00  0.00    -0.419 N 
ATOM      5  H6  UNL     1       8.996  81.569  46.796  1.00  0.00     0.153 HD
HETATM    6  C8  UNL     1       7.019  81.915  46.057  1.00  0.00     0.140 C 
HETATM    7  C9  UNL     1       6.105  82.741  46.906  1.00  0.00     0.186 C 
HETATM    8  O3  UNL     1       6.193  84.091  46.718  1.00  0.00    -0.388 OA
HETATM    9  C10 UNL     1       4.986  84.644  46.382  1.00  0.00     0.187 C 
HETATM   10  C11 UNL     1       5.057  85.948  45.662  1.00  0.00     0.148 C 
HETATM   11  N7  UNL     1       6.346  86.359  45.225  1.00  0.00    -0.357 N 
ATOM     12  H7  UNL     1       6.993  86.638  45.964  1.00  0.00     0.162 HD
HETATM   13  C12 UNL     1       6.854  86.434  43.912  1.00  0.00     0.248 C 
HETATM   14  O4  UNL     1       7.427  87.519  43.520  1.00  0.00    -0.271 OA
HETATM   15  C13 UNL     1       6.810  85.381  42.883  1.00  0.00     0.278 C 
HETATM   16  C14 UNL     1       8.109  84.885  42.393  1.00  0.00     0.090 C 
ENDROOT
BRANCH   1  17
HETATM   17  C4  UNL     1      10.428  84.449  42.660  1.00  0.00     0.270 C 
HETATM   18  N5  UNL     1      11.661  84.649  43.310  1.00  0.00    -0.156 N 
HETATM   19  C1  UNL     1      12.904  84.559  42.630  1.00  0.00     0.690 C 
ATOM     20  H5  UNL     1      11.661  84.866  44.307  1.00  0.00     0.187 HD
HETATM   21  N1  UNL     1      14.009  84.751  43.260  1.00  0.00    -0.234 N 
HETATM   22  N2  UNL     1      12.961  84.255  41.245  1.00  0.00    -0.137 N 
ATOM     23  H12 UNL     1      14.902  84.687  42.771  1.00  0.00     0.174 HD
ATOM     24  H11 UNL     1      13.968  84.969  44.255  1.00  0.00     0.174 HD
ATOM     25  H2  UNL     1      12.825  84.987  40.548  1.00  0.00     0.201 HD
HETATM   26  O1  UNL     1      10.371  84.181  41.438  1.00  0.00    -0.269 OA
BRANCH  22  27
HETATM   27  N3  UNL     1      13.206  82.952  40.852  1.00  0.00    -0.125 NA
BRANCH  27  28
HETATM   28  C2  UNL     1      12.062  82.271  40.311  1.00  0.00     0.162 C 
BRANCH  28  29
HETATM   29  C3  UNL     1      12.019  82.424  38.787  1.00  0.00     0.247 C 
BRANCH  29  30
HETATM   30  N4  UNL     1      10.900  83.303  38.450  1.00  0.00    -0.078 N 
ATOM     31  H43 UNL     1      11.110  84.288  38.612  1.00  0.00     0.274 HD
ATOM     32  H42 UNL     1      10.733  83.361  37.445  1.00  0.00     0.274 HD
ATOM     33  H41 UNL     1      10.080  82.984  38.967  1.00  0.00     0.274 HD
ENDBRANCH  29  30
ENDBRANCH  28  29
ENDBRANCH  27  28
ENDBRANCH  22  27
ENDBRANCH   1  17
BRANCH   1  34
HETATM   34  O2  UNL     1       9.315  85.524  44.374  1.00  0.00    -0.380 OA
ATOM     35  H2  UNL     1      10.135  85.972  44.202  1.00  0.00     0.211 HD
ENDBRANCH   1  34
BRANCH  15  36
HETATM   36  N8  UNL     1       5.932  84.283  43.185  1.00  0.00    -0.066 N 
ATOM     37  H83 UNL     1       6.045  83.997  44.158  1.00  0.00     0.275 HD
ATOM     38  H82 UNL     1       4.963  84.599  43.206  1.00  0.00     0.275 HD
ATOM     39  H81 UNL     1       6.028  83.477  42.566  1.00  0.00     0.275 HD
ENDBRANCH  15  36
TORSDOF 7
ENDMDL
MODEL 4
REMARK VINA RESULT: -5.165652818      3.399      6.577
REMARK  7 active torsions:
REMARK  status: ('A' for Active; 'I' for Inactive)
REMARK       I    between atoms: C1_4  and  N2_5 
REMARK       I    between atoms: C1_4  and  N5_14 
REMARK    1  A    between atoms: N2_5  and  N3_7 
REMARK    2  A    between atoms: N3_7  and  C2_8 
REMARK    3  A    between atoms: C2_8  and  C3_9 
REMARK    4  A    between atoms: C3_9  and  N4_10 
REMARK       I    between atoms: N5_14  and  C4_16 
REMARK    5  A    between atoms: C4_16  and  C5_18 
REMARK    6  A    between atoms: C5_18  and  O2_19 
REMARK    7  A    between atoms: C13_34  and  N8_35 
ROOT
HETATM    1  C5  UNL     1       6.564  86.303  43.372  1.00  0.00     0.143 C 
HETATM    2  C6  UNL     1       7.861  85.755  42.766  1.00  0.00     0.067 C 
HETATM    3  C7  UNL     1       8.938  85.849  43.788  1.00  0.00     0.117 C 
HETATM    4  N6  UNL     1      10.120  85.095  43.478  1.00  0.00    -0.419 N 
ATOM      5  H6  UNL     1      11.010  85.546  43.264  1.00  0.00     0.153 HD
HETATM    6  C8  UNL     1       9.975  83.687  43.486  1.00  0.00     0.140 C 
HETATM    7  C9  UNL     1      10.021  83.033  44.831  1.00  0.00     0.186 C 
HETATM    8  O3  UNL     1       9.060  83.441  45.712  1.00  0.00    -0.388 OA
HETATM    9  C10 UNL     1       8.309  82.393  46.177  1.00  0.00     0.187 C 
HETATM   10  C11 UNL     1       6.959  82.753  46.695  1.00  0.00     0.148 C 
HETATM   11  N7  UNL     1       6.526  84.086  46.458  1.00  0.00    -0.357 N 
ATOM     12  H7  UNL     1       7.012  84.808  46.990  1.00  0.00     0.162 HD
HETATM   13  C12 UNL     1       5.516  84.548  45.589  1.00  0.00     0.248 C 
HETATM   14  O4  UNL     1       4.617  85.352  46.040  1.00  0.00    -0.271 OA
HETATM   15  C13 UNL     1       5.350  84.210  44.164  1.00  0.00     0.278 C 
HETATM   16  C14 UNL     1       5.430  85.330  43.209  1.00  0.00     0.090 C 
ENDROOT
BRANCH   1  17
HETATM   17  C4  UNL     1       6.193  87.481  42.552  1.00  0.00     0.270 C 
HETATM   18  N5  UNL     1       6.420  87.481  41.163  1.00  0.00    -0.156 N 
HETATM   19  C1  UNL     1       6.081  88.584  40.335  1.00  0.00     0.690 C 
ATOM     20  H5  UNL     1       6.845  86.658  40.735  1.00  0.00     0.187 HD
HETATM   21  N1  UNL     1       6.308  88.545  39.070  1.00  0.00    -0.234 N 
HETATM   22  N2  UNL     1       5.484  89.752  40.878  1.00  0.00    -0.137 N 
ATOM     23  H12 UNL     1       6.064  89.337  38.475  1.00  0.00     0.174 HD
ATOM     24  H11 UNL     1       6.737  87.706  38.679  1.00  0.00     0.174 HD
ATOM     25  H2  UNL     1       6.060  90.472  41.314  1.00  0.00     0.201 HD
HETATM   26  O1  UNL     1       5.675  88.465  43.128  1.00  0.00    -0.269 OA
BRANCH  22  27
HETATM   27  N3  UNL     1       4.111  89.899  40.807  1.00  0.00    -0.125 NA
BRANCH  27  28
HETATM   28  C2  UNL     1       3.511  89.311  39.642  1.00  0.00     0.162 C 
BRANCH  28  29
HETATM   29  C3  UNL     1       2.709  88.063  40.025  1.00  0.00     0.247 C 
BRANCH  29  30
HETATM   30  N4  UNL     1       3.079  86.986  39.107  1.00  0.00    -0.078 N 
ATOM     31  H43 UNL     1       3.428  87.332  38.213  1.00  0.00     0.274 HD
ATOM     32  H42 UNL     1       3.920  86.490  39.401  1.00  0.00     0.274 HD
ATOM     33  H41 UNL     1       2.274  86.368  39.002  1.00  0.00     0.274 HD
ENDBRANCH  29  30
ENDBRANCH  28  29
ENDBRANCH  27  28
ENDBRANCH  22  27
ENDBRANCH   1  17
BRANCH   1  34
HETATM   34  O2  UNL     1       6.738  86.729  44.667  1.00  0.00    -0.380 OA
ATOM     35  H2  UNL     1       7.556  86.366  44.985  1.00  0.00     0.211 HD
ENDBRANCH   1  34
BRANCH  15  36
HETATM   36  N8  UNL     1       6.149  83.103  43.712  1.00  0.00    -0.066 N 
ATOM     37  H83 UNL     1       6.868  83.427  43.065  1.00  0.00     0.275 HD
ATOM     38  H82 UNL     1       6.737  82.758  44.471  1.00  0.00     0.275 HD
ATOM     39  H81 UNL     1       5.619  82.336  43.298  1.00  0.00     0.275 HD
ENDBRANCH  15  36
TORSDOF 7
ENDMDL
MODEL 5
REMARK VINA RESULT: -5.092006980      3.583      5.083
REMARK  7 active torsions:
REMARK  status: ('A' for Active; 'I' for Inactive)
REMARK       I    between atoms: C1_4  and  N2_5 
REMARK       I    between atoms: C1_4  and  N5_14 
REMARK    1  A    between atoms: N2_5  and  N3_7 
REMARK    2  A    between atoms: N3_7  and  C2_8 
REMARK    3  A    between atoms: C2_8  and  C3_9 
REMARK    4  A    between atoms: C3_9  and  N4_10 
REMARK       I    between atoms: N5_14  and  C4_16 
REMARK    5  A    between atoms: C4_16  and  C5_18 
REMARK    6  A    between atoms: C5_18  and  O2_19 
REMARK    7  A    between atoms: C13_34  and  N8_35 
ROOT
HETATM    1  C5  UNL     1       6.772  86.332  41.924  1.00  0.00     0.143 C 
HETATM    2  C6  UNL     1       5.836  85.123  41.816  1.00  0.00     0.067 C 
HETATM    3  C7  UNL     1       4.589  85.420  42.570  1.00  0.00     0.117 C 
HETATM    4  N6  UNL     1       3.503  84.518  42.302  1.00  0.00    -0.419 N 
ATOM      5  H6  UNL     1       3.149  83.872  43.008  1.00  0.00     0.153 HD
HETATM    6  C8  UNL     1       2.954  84.582  40.999  1.00  0.00     0.140 C 
HETATM    7  C9  UNL     1       1.977  85.687  40.754  1.00  0.00     0.186 C 
HETATM    8  O3  UNL     1       2.465  86.950  40.938  1.00  0.00    -0.388 OA
HETATM    9  C10 UNL     1       2.319  87.726  39.818  1.00  0.00     0.187 C 
HETATM   10  C11 UNL     1       3.249  88.887  39.718  1.00  0.00     0.148 C 
HETATM   11  N7  UNL     1       4.304  88.935  40.670  1.00  0.00    -0.357 N 
ATOM     12  H7  UNL     1       4.023  89.139  41.629  1.00  0.00     0.162 HD
HETATM   13  C12 UNL     1       5.687  88.741  40.470  1.00  0.00     0.248 C 
HETATM   14  O4  UNL     1       6.517  89.611  40.929  1.00  0.00    -0.271 OA
HETATM   15  C13 UNL     1       6.331  87.616  39.770  1.00  0.00     0.278 C 
HETATM   16  C14 UNL     1       7.245  86.780  40.570  1.00  0.00     0.090 C 
ENDROOT
BRANCH   1  17
HETATM   17  C4  UNL     1       7.986  85.851  42.627  1.00  0.00     0.270 C 
HETATM   18  N5  UNL     1       8.039  84.540  43.138  1.00  0.00    -0.156 N 
HETATM   19  C1  UNL     1       9.178  84.033  43.816  1.00  0.00     0.690 C 
ATOM     20  H5  UNL     1       7.229  83.933  43.017  1.00  0.00     0.187 HD
HETATM   21  N1  UNL     1       9.186  82.830  44.272  1.00  0.00    -0.234 N 
HETATM   22  N2  UNL     1      10.334  84.835  44.009  1.00  0.00    -0.137 N 
ATOM     23  H12 UNL     1      10.005  82.465  44.759  1.00  0.00     0.174 HD
ATOM     24  H11 UNL     1       8.356  82.254  44.133  1.00  0.00     0.174 HD
ATOM     25  H2  UNL     1      10.379  85.500  44.781  1.00  0.00     0.201 HD
HETATM   26  O1  UNL     1       8.951  86.639  42.749  1.00  0.00    -0.269 OA
BRANCH  22  27
HETATM   27  N3  UNL     1      11.397  84.701  43.136  1.00  0.00    -0.125 NA
BRANCH  27  28
HETATM   28  C2  UNL     1      11.125  83.875  41.992  1.00  0.00     0.162 C 
BRANCH  28  29
HETATM   29  C3  UNL     1      12.415  83.219  41.485  1.00  0.00     0.247 C 
BRANCH  29  30
HETATM   30  N4  UNL     1      12.218  82.851  40.084  1.00  0.00    -0.078 N 
ATOM     31  H43 UNL     1      11.445  82.198  39.953  1.00  0.00     0.274 HD
ATOM     32  H42 UNL     1      11.845  83.618  39.524  1.00  0.00     0.274 HD
ATOM     33  H41 UNL     1      13.101  82.493  39.723  1.00  0.00     0.274 HD
ENDBRANCH  29  30
ENDBRANCH  28  29
ENDBRANCH  27  28
ENDBRANCH  22  27
ENDBRANCH   1  17
BRANCH   1  34
HETATM   34  O2  UNL     1       6.223  87.344  42.675  1.00  0.00    -0.380 OA
ATOM     35  H2  UNL     1       5.592  87.800  42.132  1.00  0.00     0.211 HD
ENDBRANCH   1  34
BRANCH  15  36
HETATM   36  N8  UNL     1       5.436  86.793  39.004  1.00  0.00    -0.066 N 
ATOM     37  H83 UNL     1       5.941  86.330  38.248  1.00  0.00     0.275 HD
ATOM     38  H82 UNL     1       5.149  85.979  39.548  1.00  0.00     0.275 HD
ATOM     39  H81 UNL     1       4.617  87.280  38.637  1.00  0.00     0.275 HD
ENDBRANCH  15  36
TORSDOF 7
ENDMDL
