MODEL 1
REMARK VINA RESULT: -7.358348658      0.000      0.000
REMARK  12 active torsions:
REMARK  status: ('A' for Active; 'I' for Inactive)
REMARK    1  A    between atoms: N1_1  and  C1_5 
REMARK    2  A    between atoms: C3_7  and  N2_8 
REMARK    3  A    between atoms: C5_13  and  N3_14 
REMARK       I    between atoms: N3_14  and  C6_16 
REMARK    4  A    between atoms: C6_16  and  C7_18 
REMARK    5  A    between atoms: C7_18  and  N4_19 
REMARK    6  A    between atoms: C7_18  and  C8_23 
REMARK    7  A    between atoms: C8_23  and  C9_24 
REMARK    8  A    between atoms: C9_24  and  O2_25 
REMARK    9  A    between atoms: C9_24  and  C10_27 
REMARK   10  A    between atoms: C12_32  and  N6_33 
REMARK   11  A    between atoms: C14_38  and  N7_39 
REMARK   12  A    between atoms: C15_43  and  N8_44 
ROOT
HETATM    1  C7  UNL     1       8.601  86.620  40.024  1.00  0.00     0.277 C 
ENDROOT
BRANCH   1   2
HETATM    2  C6  UNL     1       8.523  86.637  41.520  1.00  0.00     0.248 C 
HETATM    3  N3  UNL     1       7.460  86.038  42.200  1.00  0.00    -0.353 N 
ATOM      4  H3  UNL     1       6.746  85.592  41.625  1.00  0.00     0.163 HD
HETATM    5  O1  UNL     1       9.485  87.228  42.055  1.00  0.00    -0.271 OA
BRANCH   3   6
HETATM    6  C5  UNL     1       7.261  85.981  43.637  1.00  0.00     0.116 C 
HETATM    7  C4  UNL     1       7.918  84.826  44.280  1.00  0.00     0.060 C 
HETATM    8  C3  UNL     1       7.371  84.182  45.469  1.00  0.00     0.187 C 
HETATM    9  C2  UNL     1       6.506  84.993  46.381  1.00  0.00     0.065 C 
HETATM   10  C1  UNL     1       5.097  85.139  45.925  1.00  0.00     0.187 C 
HETATM   11  C16 UNL     1       4.958  85.246  44.415  1.00  0.00     0.067 C 
HETATM   12  C15 UNL     1       5.871  86.321  43.958  1.00  0.00     0.208 C 
BRANCH   8  13
HETATM   13  N2  UNL     1       6.740  82.881  45.158  1.00  0.00    -0.075 N 
ATOM     14  H23 UNL     1       5.852  83.001  44.672  1.00  0.00     0.274 HD
ATOM     15  H22 UNL     1       7.250  82.381  44.429  1.00  0.00     0.274 HD
ATOM     16  H21 UNL     1       6.635  82.314  45.999  1.00  0.00     0.274 HD
ENDBRANCH   8  13
BRANCH  10  17
HETATM   17  N1  UNL     1       4.206  84.129  46.437  1.00  0.00    -0.075 N 
ATOM     18  H13 UNL     1       4.252  83.287  45.864  1.00  0.00     0.274 HD
ATOM     19  H12 UNL     1       4.556  83.758  47.319  1.00  0.00     0.274 HD
ATOM     20  H11 UNL     1       3.239  84.439  46.539  1.00  0.00     0.274 HD
ENDBRANCH  10  17
BRANCH  12  21
HETATM   21  N8  UNL     1       5.730  87.412  44.948  1.00  0.00    -0.073 N 
ATOM     22  H83 UNL     1       5.168  87.104  45.742  1.00  0.00     0.274 HD
ATOM     23  H82 UNL     1       6.617  87.582  45.421  1.00  0.00     0.274 HD
ATOM     24  H81 UNL     1       5.357  88.279  44.561  1.00  0.00     0.274 HD
ENDBRANCH  12  21
ENDBRANCH   3   6
ENDBRANCH   1   2
BRANCH   1  25
HETATM   25  N4  UNL     1       9.447  87.720  39.632  1.00  0.00    -0.066 N 
ATOM     26  H43 UNL     1      10.068  88.033  40.378  1.00  0.00     0.275 HD
ATOM     27  H42 UNL     1      10.170  87.451  38.965  1.00  0.00     0.275 HD
ATOM     28  H41 UNL     1       8.835  88.459  39.284  1.00  0.00     0.275 HD
ENDBRANCH   1  25
BRANCH   1  29
HETATM   29  C8  UNL     1       7.304  86.696  39.350  1.00  0.00     0.076 C 
BRANCH  29  30
HETATM   30  C9  UNL     1       6.549  87.940  39.676  1.00  0.00     0.153 C 
BRANCH  30  31
HETATM   31  O2  UNL     1       7.255  88.842  40.483  1.00  0.00    -0.393 OA
ATOM     32  H2  UNL     1       6.815  89.059  41.296  1.00  0.00     0.210 HD
ENDBRANCH  30  31
BRANCH  30  33
HETATM   33  C10 UNL     1       5.169  87.767  40.175  1.00  0.00     0.244 C 
HETATM   34  N5  UNL     1       4.477  86.788  39.327  1.00  0.00    -0.065 N 
HETATM   35  C11 UNL     1       3.169  86.435  39.865  1.00  0.00     0.265 C 
ATOM     36  H52 UNL     1       4.406  87.116  38.363  1.00  0.00     0.277 HD
ATOM     37  H51 UNL     1       5.051  85.959  39.172  1.00  0.00     0.277 HD
HETATM   38  C12 UNL     1       2.360  87.680  40.173  1.00  0.00     0.211 C 
HETATM   39  C13 UNL     1       3.020  88.796  39.375  1.00  0.00     0.069 C 
HETATM   40  C14 UNL     1       4.367  89.052  40.013  1.00  0.00     0.218 C 
BRANCH  38  41
HETATM   41  N6  UNL     1       0.976  87.557  39.821  1.00  0.00    -0.073 N 
ATOM     42  H63 UNL     1       0.438  88.344  40.185  1.00  0.00     0.274 HD
ATOM     43  H62 UNL     1       0.841  87.709  38.821  1.00  0.00     0.274 HD
ATOM     44  H61 UNL     1       0.564  86.670  40.112  1.00  0.00     0.274 HD
ENDBRANCH  38  41
BRANCH  40  45
HETATM   45  N7  UNL     1       5.033  90.056  39.247  1.00  0.00    -0.073 N 
ATOM     46  H73 UNL     1       5.340  89.679  38.351  1.00  0.00     0.274 HD
ATOM     47  H72 UNL     1       4.368  90.757  38.919  1.00  0.00     0.274 HD
ATOM     48  H71 UNL     1       5.811  90.501  39.734  1.00  0.00     0.274 HD
ENDBRANCH  40  45
ENDBRANCH  30  33
ENDBRANCH  29  30
ENDBRANCH   1  29
TORSDOF 12
ENDMDL
MODEL 2
REMARK VINA RESULT: -6.772512391      1.489      2.053
REMARK  12 active torsions:
REMARK  status: ('A' for Active; 'I' for Inactive)
REMARK    1  A    between atoms: N1_1  and  C1_5 
REMARK    2  A    between atoms: C3_7  and  N2_8 
REMARK    3  A    between atoms: C5_13  and  N3_14 
REMARK       I    between atoms: N3_14  and  C6_16 
REMARK    4  A    between atoms: C6_16  and  C7_18 
REMARK    5  A    between atoms: C7_18  and  N4_19 
REMARK    6  A    between atoms: C7_18  and  C8_23 
REMARK    7  A    between atoms: C8_23  and  C9_24 
REMARK    8  A    between atoms: C9_24  and  O2_25 
REMARK    9  A    between atoms: C9_24  and  C10_27 
REMARK   10  A    between atoms: C12_32  and  N6_33 
REMARK   11  A    between atoms: C14_38  and  N7_39 
REMARK   12  A    between atoms: C15_43  and  N8_44 
ROOT
HETATM    1  C7  UNL     1       8.679  86.304  40.386  1.00  0.00     0.277 C 
ENDROOT
BRANCH   1   2
HETATM    2  C6  UNL     1       8.809  86.101  41.865  1.00  0.00     0.248 C 
HETATM    3  N3  UNL     1       8.081  85.111  42.530  1.00  0.00    -0.353 N 
ATOM      4  H3  UNL     1       7.461  84.540  41.957  1.00  0.00     0.163 HD
HETATM    5  O1  UNL     1       9.614  86.893  42.399  1.00  0.00    -0.271 OA
BRANCH   3   6
HETATM    6  C5  UNL     1       8.112  84.808  43.950  1.00  0.00     0.116 C 
HETATM    7  C4  UNL     1       8.687  83.485  44.259  1.00  0.00     0.060 C 
HETATM    8  C3  UNL     1       8.252  82.696  45.407  1.00  0.00     0.187 C 
HETATM    9  C2  UNL     1       7.674  83.415  46.585  1.00  0.00     0.065 C 
HETATM   10  C1  UNL     1       6.246  83.804  46.428  1.00  0.00     0.187 C 
HETATM   11  C16 UNL     1       5.882  84.210  45.009  1.00  0.00     0.067 C 
HETATM   12  C15 UNL     1       6.856  85.239  44.574  1.00  0.00     0.208 C 
BRANCH   8  13
HETATM   13  N2  UNL     1       7.396  81.558  45.007  1.00  0.00    -0.075 N 
ATOM     14  H23 UNL     1       6.820  81.788  44.198  1.00  0.00     0.274 HD
ATOM     15  H22 UNL     1       7.943  80.801  44.599  1.00  0.00     0.274 HD
ATOM     16  H21 UNL     1       6.830  81.232  45.791  1.00  0.00     0.274 HD
ENDBRANCH   8  13
BRANCH  10  17
HETATM   17  N1  UNL     1       5.312  82.826  46.922  1.00  0.00    -0.075 N 
ATOM     18  H13 UNL     1       5.792  82.126  47.488  1.00  0.00     0.274 HD
ATOM     19  H12 UNL     1       4.707  83.237  47.633  1.00  0.00     0.274 HD
ATOM     20  H11 UNL     1       4.755  82.377  46.196  1.00  0.00     0.274 HD
ENDBRANCH  10  17
BRANCH  12  21
HETATM   21  N8  UNL     1       7.038  86.133  45.740  1.00  0.00    -0.073 N 
ATOM     22  H83 UNL     1       7.532  86.982  45.466  1.00  0.00     0.274 HD
ATOM     23  H82 UNL     1       6.146  86.536  46.024  1.00  0.00     0.274 HD
ATOM     24  H81 UNL     1       7.501  85.690  46.534  1.00  0.00     0.274 HD
ENDBRANCH  12  21
ENDBRANCH   3   6
ENDBRANCH   1   2
BRANCH   1  25
HETATM   25  N4  UNL     1       9.551  87.397  40.031  1.00  0.00    -0.066 N 
ATOM     26  H43 UNL     1       9.082  88.302  40.044  1.00  0.00     0.275 HD
ATOM     27  H42 UNL     1      10.249  87.600  40.747  1.00  0.00     0.275 HD
ATOM     28  H41 UNL     1       9.960  87.170  39.124  1.00  0.00     0.275 HD
ENDBRANCH   1  25
BRANCH   1  29
HETATM   29  C8  UNL     1       7.312  86.560  39.929  1.00  0.00     0.076 C 
BRANCH  29  30
HETATM   30  C9  UNL     1       6.599  87.572  40.760  1.00  0.00     0.153 C 
BRANCH  30  31
HETATM   31  O2  UNL     1       5.867  87.026  41.822  1.00  0.00    -0.393 OA
ATOM     32  H2  UNL     1       6.035  86.103  41.973  1.00  0.00     0.210 HD
ENDBRANCH  30  31
BRANCH  30  33
HETATM   33  C10 UNL     1       5.793  88.577  40.036  1.00  0.00     0.244 C 
HETATM   34  N5  UNL     1       5.272  89.553  41.000  1.00  0.00    -0.065 N 
HETATM   35  C11 UNL     1       4.616  90.673  40.337  1.00  0.00     0.265 C 
ATOM     36  H52 UNL     1       4.654  89.110  41.680  1.00  0.00     0.277 HD
ATOM     37  H51 UNL     1       6.004  89.874  41.635  1.00  0.00     0.277 HD
HETATM   38  C12 UNL     1       3.593  90.178  39.332  1.00  0.00     0.211 C 
HETATM   39  C13 UNL     1       3.304  88.737  39.730  1.00  0.00     0.069 C 
HETATM   40  C14 UNL     1       4.552  87.940  39.424  1.00  0.00     0.218 C 
BRANCH  38  41
HETATM   41  N6  UNL     1       2.387  90.953  39.324  1.00  0.00    -0.073 N 
ATOM     42  H63 UNL     1       2.092  91.173  40.276  1.00  0.00     0.274 HD
ATOM     43  H62 UNL     1       2.565  91.896  38.980  1.00  0.00     0.274 HD
ATOM     44  H61 UNL     1       1.629  90.513  38.802  1.00  0.00     0.274 HD
ENDBRANCH  38  41
BRANCH  40  45
HETATM   45  N7  UNL     1       4.327  86.593  39.843  1.00  0.00    -0.073 N 
ATOM     46  H73 UNL     1       5.131  86.240  40.361  1.00  0.00     0.274 HD
ATOM     47  H72 UNL     1       3.620  86.559  40.577  1.00  0.00     0.274 HD
ATOM     48  H71 UNL     1       4.084  85.959  39.081  1.00  0.00     0.274 HD
ENDBRANCH  40  45
ENDBRANCH  30  33
ENDBRANCH  29  30
ENDBRANCH   1  29
TORSDOF 12
ENDMDL
MODEL 3
REMARK VINA RESULT: -6.555083398      1.451      5.820
REMARK  12 active torsions:
REMARK  status: ('A' for Active; 'I' for Inactive)
REMARK    1  A    between atoms: N1_1  and  C1_5 
REMARK    2  A    between atoms: C3_7  and  N2_8 
REMARK    3  A    between atoms: C5_13  and  N3_14 
REMARK       I    between atoms: N3_14  and  C6_16 
REMARK    4  A    between atoms: C6_16  and  C7_18 
REMARK    5  A    between atoms: C7_18  and  N4_19 
REMARK    6  A    between atoms: C7_18  and  C8_23 
REMARK    7  A    between atoms: C8_23  and  C9_24 
REMARK    8  A    between atoms: C9_24  and  O2_25 
REMARK    9  A    between atoms: C9_24  and  C10_27 
REMARK   10  A    between atoms: C12_32  and  N6_33 
REMARK   11  A    between atoms: C14_38  and  N7_39 
REMARK   12  A    between atoms: C15_43  and  N8_44 
ROOT
HETATM    1  C7  UNL     1       9.497  85.813  41.363  1.00  0.00     0.277 C 
ENDROOT
BRANCH   1   2
HETATM    2  C6  UNL     1       8.630  86.614  40.440  1.00  0.00     0.248 C 
HETATM    3  N3  UNL     1       7.291  86.875  40.741  1.00  0.00    -0.353 N 
ATOM      4  H3  UNL     1       6.941  86.492  41.619  1.00  0.00     0.163 HD
HETATM    5  O1  UNL     1       9.231  87.000  39.415  1.00  0.00    -0.271 OA
BRANCH   3   6
HETATM    6  C5  UNL     1       6.345  87.633  39.942  1.00  0.00     0.116 C 
HETATM    7  C4  UNL     1       6.315  89.072  40.267  1.00  0.00     0.060 C 
HETATM    8  C3  UNL     1       5.102  89.873  40.141  1.00  0.00     0.187 C 
HETATM    9  C2  UNL     1       4.060  89.434  39.162  1.00  0.00     0.065 C 
HETATM   10  C1  UNL     1       3.176  88.341  39.652  1.00  0.00     0.187 C 
HETATM   11  C16 UNL     1       3.894  87.333  40.535  1.00  0.00     0.067 C 
HETATM   12  C15 UNL     1       5.098  86.874  39.802  1.00  0.00     0.208 C 
BRANCH   8  13
HETATM   13  N2  UNL     1       4.499  90.180  41.456  1.00  0.00    -0.075 N 
ATOM     14  H23 UNL     1       3.786  90.906  41.382  1.00  0.00     0.274 HD
ATOM     15  H22 UNL     1       3.910  89.416  41.788  1.00  0.00     0.274 HD
ATOM     16  H21 UNL     1       5.216  90.426  42.139  1.00  0.00     0.274 HD
ENDBRANCH   8  13
BRANCH  10  17
HETATM   17  N1  UNL     1       1.974  88.802  40.298  1.00  0.00    -0.075 N 
ATOM     18  H13 UNL     1       1.882  88.384  41.223  1.00  0.00     0.274 HD
ATOM     19  H12 UNL     1       2.062  89.783  40.560  1.00  0.00     0.274 HD
ATOM     20  H11 UNL     1       1.124  88.652  39.753  1.00  0.00     0.274 HD
ENDBRANCH  10  17
BRANCH  12  21
HETATM   21  N8  UNL     1       4.662  86.684  38.400  1.00  0.00    -0.073 N 
ATOM     22  H83 UNL     1       5.189  85.930  37.960  1.00  0.00     0.274 HD
ATOM     23  H82 UNL     1       3.726  86.281  38.368  1.00  0.00     0.274 HD
ATOM     24  H81 UNL     1       4.708  87.531  37.833  1.00  0.00     0.274 HD
ENDBRANCH  12  21
ENDBRANCH   3   6
ENDBRANCH   1   2
BRANCH   1  25
HETATM   25  N4  UNL     1      10.097  84.765  40.575  1.00  0.00    -0.066 N 
ATOM     26  H43 UNL     1       9.580  83.887  40.619  1.00  0.00     0.275 HD
ATOM     27  H42 UNL     1      10.009  84.919  39.571  1.00  0.00     0.275 HD
ATOM     28  H41 UNL     1      11.065  84.675  40.885  1.00  0.00     0.275 HD
ENDBRANCH   1  25
BRANCH   1  29
HETATM   29  C8  UNL     1       8.794  85.257  42.521  1.00  0.00     0.076 C 
BRANCH  29  30
HETATM   30  C9  UNL     1       8.131  86.298  43.357  1.00  0.00     0.153 C 
BRANCH  30  31
HETATM   31  O2  UNL     1       8.949  87.396  43.656  1.00  0.00    -0.393 OA
ATOM     32  H2  UNL     1       9.673  87.192  44.236  1.00  0.00     0.210 HD
ENDBRANCH  30  31
BRANCH  30  33
HETATM   33  C10 UNL     1       7.427  85.828  44.567  1.00  0.00     0.244 C 
HETATM   34  N5  UNL     1       6.759  84.557  44.264  1.00  0.00    -0.065 N 
HETATM   35  C11 UNL     1       6.192  83.946  45.460  1.00  0.00     0.265 C 
ATOM     36  H52 UNL     1       6.054  84.672  43.536  1.00  0.00     0.277 HD
ATOM     37  H51 UNL     1       7.385  83.914  43.779  1.00  0.00     0.277 HD
HETATM   38  C12 UNL     1       5.333  84.940  46.217  1.00  0.00     0.211 C 
HETATM   39  C13 UNL     1       5.007  86.037  45.213  1.00  0.00     0.069 C 
HETATM   40  C14 UNL     1       6.296  86.778  44.941  1.00  0.00     0.218 C 
BRANCH  38  41
HETATM   41  N6  UNL     1       4.131  84.363  46.744  1.00  0.00    -0.073 N 
ATOM     42  H63 UNL     1       4.232  84.161  47.739  1.00  0.00     0.274 HD
ATOM     43  H62 UNL     1       3.385  85.058  46.789  1.00  0.00     0.274 HD
ATOM     44  H61 UNL     1       3.825  83.534  46.235  1.00  0.00     0.274 HD
ENDBRANCH  38  41
BRANCH  40  45
HETATM   45  N7  UNL     1       6.030  87.777  43.956  1.00  0.00    -0.073 N 
ATOM     46  H73 UNL     1       6.404  88.679  44.251  1.00  0.00     0.274 HD
ATOM     47  H72 UNL     1       6.597  87.620  43.123  1.00  0.00     0.274 HD
ATOM     48  H71 UNL     1       5.044  87.861  43.708  1.00  0.00     0.274 HD
ENDBRANCH  40  45
ENDBRANCH  30  33
ENDBRANCH  29  30
ENDBRANCH   1  29
TORSDOF 12
ENDMDL
MODEL 4
REMARK VINA RESULT: -6.411379990      1.541      6.421
REMARK  12 active torsions:
REMARK  status: ('A' for Active; 'I' for Inactive)
REMARK    1  A    between atoms: N1_1  and  C1_5 
REMARK    2  A    between atoms: C3_7  and  N2_8 
REMARK    3  A    between atoms: C5_13  and  N3_14 
REMARK       I    between atoms: N3_14  and  C6_16 
REMARK    4  A    between atoms: C6_16  and  C7_18 
REMARK    5  A    between atoms: C7_18  and  N4_19 
REMARK    6  A    between atoms: C7_18  and  C8_23 
REMARK    7  A    between atoms: C8_23  and  C9_24 
REMARK    8  A    between atoms: C9_24  and  O2_25 
REMARK    9  A    between atoms: C9_24  and  C10_27 
REMARK   10  A    between atoms: C12_32  and  N6_33 
REMARK   11  A    between atoms: C14_38  and  N7_39 
REMARK   12  A    between atoms: C15_43  and  N8_44 
ROOT
HETATM    1  C7  UNL     1       9.269  85.814  41.719  1.00  0.00     0.277 C 
ENDROOT
BRANCH   1   2
HETATM    2  C6  UNL     1       8.475  86.587  40.710  1.00  0.00     0.248 C 
HETATM    3  N3  UNL     1       7.138  86.922  40.937  1.00  0.00    -0.353 N 
ATOM      4  H3  UNL     1       6.737  86.613  41.821  1.00  0.00     0.163 HD
HETATM    5  O1  UNL     1       9.133  86.878  39.688  1.00  0.00    -0.271 OA
BRANCH   3   6
HETATM    6  C5  UNL     1       6.259  87.662  40.050  1.00  0.00     0.116 C 
HETATM    7  C4  UNL     1       6.265  89.118  40.291  1.00  0.00     0.060 C 
HETATM    8  C3  UNL     1       5.089  89.951  40.060  1.00  0.00     0.187 C 
HETATM    9  C2  UNL     1       4.079  89.490  39.058  1.00  0.00     0.065 C 
HETATM   10  C1  UNL     1       3.134  88.458  39.566  1.00  0.00     0.187 C 
HETATM   11  C16 UNL     1       3.774  87.480  40.538  1.00  0.00     0.067 C 
HETATM   12  C15 UNL     1       4.993  86.938  39.892  1.00  0.00     0.208 C 
BRANCH   8  13
HETATM   13  N2  UNL     1       4.437  90.354  41.324  1.00  0.00    -0.075 N 
ATOM     14  H23 UNL     1       3.744  89.669  41.625  1.00  0.00     0.274 HD
ATOM     15  H22 UNL     1       5.076  90.287  42.116  1.00  0.00     0.274 HD
ATOM     16  H21 UNL     1       4.033  91.288  41.246  1.00  0.00     0.274 HD
ENDBRANCH   8  13
BRANCH  10  17
HETATM   17  N1  UNL     1       1.921  88.995  40.124  1.00  0.00    -0.075 N 
ATOM     18  H13 UNL     1       1.227  89.148  39.392  1.00  0.00     0.274 HD
ATOM     19  H12 UNL     1       1.437  88.287  40.675  1.00  0.00     0.274 HD
ATOM     20  H11 UNL     1       2.054  89.845  40.672  1.00  0.00     0.274 HD
ENDBRANCH  10  17
BRANCH  12  21
HETATM   21  N8  UNL     1       4.617  86.681  38.484  1.00  0.00    -0.073 N 
ATOM     22  H83 UNL     1       4.389  87.555  38.009  1.00  0.00     0.274 HD
ATOM     23  H82 UNL     1       5.432  86.398  37.941  1.00  0.00     0.274 HD
ATOM     24  H81 UNL     1       3.860  86.006  38.373  1.00  0.00     0.274 HD
ENDBRANCH  12  21
ENDBRANCH   3   6
ENDBRANCH   1   2
BRANCH   1  25
HETATM   25  N4  UNL     1      10.260  85.062  40.991  1.00  0.00    -0.066 N 
ATOM     26  H43 UNL     1       9.956  84.802  40.053  1.00  0.00     0.275 HD
ATOM     27  H42 UNL     1      11.067  85.623  40.717  1.00  0.00     0.275 HD
ATOM     28  H41 UNL     1      10.509  84.258  41.569  1.00  0.00     0.275 HD
ENDBRANCH   1  25
BRANCH   1  29
HETATM   29  C8  UNL     1       8.468  84.932  42.571  1.00  0.00     0.076 C 
BRANCH  29  30
HETATM   30  C9  UNL     1       7.789  85.655  43.684  1.00  0.00     0.153 C 
BRANCH  30  31
HETATM   31  O2  UNL     1       8.306  86.933  43.935  1.00  0.00    -0.393 OA
ATOM     32  H2  UNL     1       8.696  87.031  44.796  1.00  0.00     0.210 HD
ENDBRANCH  30  31
BRANCH  30  33
HETATM   33  C10 UNL     1       7.609  84.910  44.947  1.00  0.00     0.244 C 
HETATM   34  N5  UNL     1       7.351  83.499  44.633  1.00  0.00    -0.065 N 
HETATM   35  C11 UNL     1       7.339  82.672  45.833  1.00  0.00     0.265 C 
ATOM     36  H52 UNL     1       6.491  83.389  44.097  1.00  0.00     0.277 HD
ATOM     37  H51 UNL     1       8.015  83.145  43.943  1.00  0.00     0.277 HD
HETATM   38  C12 UNL     1       6.415  83.258  46.882  1.00  0.00     0.211 C 
HETATM   39  C13 UNL     1       5.501  84.212  46.125  1.00  0.00     0.069 C 
HETATM   40  C14 UNL     1       6.357  85.376  45.679  1.00  0.00     0.218 C 
BRANCH  38  41
HETATM   41  N6  UNL     1       5.648  82.268  47.578  1.00  0.00    -0.073 N 
ATOM     42  H63 UNL     1       4.996  82.706  48.229  1.00  0.00     0.274 HD
ATOM     43  H62 UNL     1       4.982  81.818  46.950  1.00  0.00     0.274 HD
ATOM     44  H61 UNL     1       6.224  81.574  48.055  1.00  0.00     0.274 HD
ENDBRANCH  38  41
BRANCH  40  45
HETATM   45  N7  UNL     1       5.535  86.259  44.915  1.00  0.00    -0.073 N 
ATOM     46  H73 UNL     1       5.607  86.045  43.921  1.00  0.00     0.274 HD
ATOM     47  H72 UNL     1       4.548  86.050  45.065  1.00  0.00     0.274 HD
ATOM     48  H71 UNL     1       5.722  87.248  45.083  1.00  0.00     0.274 HD
ENDBRANCH  40  45
ENDBRANCH  30  33
ENDBRANCH  29  30
ENDBRANCH   1  29
TORSDOF 12
ENDMDL
MODEL 5
REMARK VINA RESULT: -6.256560088      1.438      6.009
REMARK  12 active torsions:
REMARK  status: ('A' for Active; 'I' for Inactive)
REMARK    1  A    between atoms: N1_1  and  C1_5 
REMARK    2  A    between atoms: C3_7  and  N2_8 
REMARK    3  A    between atoms: C5_13  and  N3_14 
REMARK       I    between atoms: N3_14  and  C6_16 
REMARK    4  A    between atoms: C6_16  and  C7_18 
REMARK    5  A    between atoms: C7_18  and  N4_19 
REMARK    6  A    between atoms: C7_18  and  C8_23 
REMARK    7  A    between atoms: C8_23  and  C9_24 
REMARK    8  A    between atoms: C9_24  and  O2_25 
REMARK    9  A    between atoms: C9_24  and  C10_27 
REMARK   10  A    between atoms: C12_32  and  N6_33 
REMARK   11  A    between atoms: C14_38  and  N7_39 
REMARK   12  A    between atoms: C15_43  and  N8_44 
ROOT
HETATM    1  C7  UNL     1       9.462  85.971  41.170  1.00  0.00     0.277 C 
ENDROOT
BRANCH   1   2
HETATM    2  C6  UNL     1       8.525  86.962  40.548  1.00  0.00     0.248 C 
HETATM    3  N3  UNL     1       7.202  86.625  40.252  1.00  0.00    -0.353 N 
ATOM      4  H3  UNL     1       6.913  85.675  40.481  1.00  0.00     0.163 HD
HETATM    5  O1  UNL     1       9.055  88.073  40.339  1.00  0.00    -0.271 OA
BRANCH   3   6
HETATM    6  C5  UNL     1       6.194  87.482  39.653  1.00  0.00     0.116 C 
HETATM    7  C4  UNL     1       6.198  88.859  40.183  1.00  0.00     0.060 C 
HETATM    8  C3  UNL     1       4.983  89.661  40.277  1.00  0.00     0.187 C 
HETATM    9  C2  UNL     1       3.858  89.359  39.338  1.00  0.00     0.065 C 
HETATM   10  C1  UNL     1       3.015  88.200  39.741  1.00  0.00     0.187 C 
HETATM   11  C16 UNL     1       3.802  87.081  40.405  1.00  0.00     0.067 C 
HETATM   12  C15 UNL     1       4.936  86.741  39.513  1.00  0.00     0.208 C 
BRANCH   8  13
HETATM   13  N2  UNL     1       4.497  89.772  41.670  1.00  0.00    -0.075 N 
ATOM     14  H23 UNL     1       4.897  90.581  42.144  1.00  0.00     0.274 HD
ATOM     15  H22 UNL     1       3.514  90.042  41.705  1.00  0.00     0.274 HD
ATOM     16  H21 UNL     1       4.668  88.910  42.187  1.00  0.00     0.274 HD
ENDBRANCH   8  13
BRANCH  10  17
HETATM   17  N1  UNL     1       1.875  88.554  40.547  1.00  0.00    -0.075 N 
ATOM     18  H13 UNL     1       1.990  89.488  40.938  1.00  0.00     0.274 HD
ATOM     19  H12 UNL     1       1.057  88.712  39.958  1.00  0.00     0.274 HD
ATOM     20  H11 UNL     1       1.660  87.882  41.284  1.00  0.00     0.274 HD
ENDBRANCH  10  17
BRANCH  12  21
HETATM   21  N8  UNL     1       4.380  86.751  38.141  1.00  0.00    -0.073 N 
ATOM     22  H83 UNL     1       4.111  85.809  37.857  1.00  0.00     0.274 HD
ATOM     23  H82 UNL     1       3.466  87.202  38.128  1.00  0.00     0.274 HD
ATOM     24  H81 UNL     1       4.997  87.172  37.446  1.00  0.00     0.274 HD
ENDBRANCH  12  21
ENDBRANCH   3   6
ENDBRANCH   1   2
BRANCH   1  25
HETATM   25  N4  UNL     1       9.885  85.074  40.124  1.00  0.00    -0.066 N 
ATOM     26  H43 UNL     1       9.522  85.331  39.206  1.00  0.00     0.275 HD
ATOM     27  H42 UNL     1      10.877  85.159  39.901  1.00  0.00     0.275 HD
ATOM     28  H41 UNL     1       9.618  84.132  40.411  1.00  0.00     0.275 HD
ENDBRANCH   1  25
BRANCH   1  29
HETATM   29  C8  UNL     1       8.894  85.226  42.296  1.00  0.00     0.076 C 
BRANCH  29  30
HETATM   30  C9  UNL     1       8.285  86.110  43.331  1.00  0.00     0.153 C 
BRANCH  30  31
HETATM   31  O2  UNL     1       9.139  86.409  44.401  1.00  0.00    -0.393 OA
ATOM     32  H2  UNL     1       9.838  85.778  44.526  1.00  0.00     0.210 HD
ENDBRANCH  30  31
BRANCH  30  33
HETATM   33  C10 UNL     1       6.947  85.726  43.826  1.00  0.00     0.244 C 
HETATM   34  N5  UNL     1       6.644  86.509  45.030  1.00  0.00    -0.065 N 
HETATM   35  C11 UNL     1       5.268  86.312  45.471  1.00  0.00     0.265 C 
ATOM     36  H52 UNL     1       7.306  86.309  45.780  1.00  0.00     0.277 HD
ATOM     37  H51 UNL     1       6.852  87.498  44.893  1.00  0.00     0.277 HD
HETATM   38  C12 UNL     1       4.946  84.835  45.587  1.00  0.00     0.211 C 
HETATM   39  C13 UNL     1       6.296  84.134  45.658  1.00  0.00     0.069 C 
HETATM   40  C14 UNL     1       6.935  84.277  44.296  1.00  0.00     0.218 C 
BRANCH  38  41
HETATM   41  N6  UNL     1       4.150  84.518  46.736  1.00  0.00    -0.073 N 
ATOM     42  H63 UNL     1       3.508  85.280  46.953  1.00  0.00     0.274 HD
ATOM     43  H62 UNL     1       3.474  83.786  46.517  1.00  0.00     0.274 HD
ATOM     44  H61 UNL     1       4.705  84.267  47.553  1.00  0.00     0.274 HD
ENDBRANCH  38  41
BRANCH  40  45
HETATM   45  N7  UNL     1       8.230  83.677  44.352  1.00  0.00    -0.073 N 
ATOM     46  H73 UNL     1       8.484  83.463  45.316  1.00  0.00     0.274 HD
ATOM     47  H72 UNL     1       8.205  82.733  43.967  1.00  0.00     0.274 HD
ATOM     48  H71 UNL     1       8.962  84.229  43.903  1.00  0.00     0.274 HD
ENDBRANCH  40  45
ENDBRANCH  30  33
ENDBRANCH  29  30
ENDBRANCH   1  29
TORSDOF 12
ENDMDL
