MODEL 1
REMARK VINA RESULT: -7.432467191      0.000      0.000
REMARK  11 active torsions:
REMARK  status: ('A' for Active; 'I' for Inactive)
REMARK    1  A    between atoms: N1_2  and  C2_4 
REMARK    2  A    between atoms: C2_4  and  N2_6 
REMARK    3  A    between atoms: N2_6  and  C3_8 
REMARK    4  A    between atoms: C4_11  and  O1_12 
REMARK    5  A    between atoms: O1_12  and  C5_13 
REMARK    6  A    between atoms: C7_15  and  N4_16 
REMARK    7  A    between atoms: C8_20  and  N5_21 
REMARK    8  A    between atoms: C10_26  and  N6_27 
REMARK    9  A    between atoms: C11_31  and  N7_32 
REMARK   10  A    between atoms: C13_37  and  N8_38 
REMARK   11  A    between atoms: C14_42  and  O2_43 
ROOT
HETATM    1  C3  UNL     1       7.405  84.497  42.963  1.00  0.00     0.212 C 
HETATM    2  N3  UNL     1       6.770  85.662  42.533  1.00  0.00    -0.372 N 
ATOM      3  H3  UNL     1       5.761  85.660  42.380  1.00  0.00     0.158 HD
HETATM    4  C4  UNL     1       7.545  86.909  42.296  1.00  0.00     0.249 C 
HETATM    5  C11 UNL     1       8.916  86.556  42.306  1.00  0.00     0.233 C 
HETATM    6  C12 UNL     1      10.204  86.103  42.739  1.00  0.00     0.072 C 
HETATM    7  C13 UNL     1      10.016  84.568  42.995  1.00  0.00     0.217 C 
HETATM    8  C14 UNL     1       8.659  84.268  43.589  1.00  0.00     0.190 C 
ENDROOT
BRANCH   4   9
HETATM    9  O1  UNL     1       7.137  87.331  41.020  1.00  0.00    -0.358 OA
BRANCH   9  10
HETATM   10  C5  UNL     1       5.829  87.753  40.944  1.00  0.00     0.156 C 
HETATM   11  C6  UNL     1       5.354  87.491  39.537  1.00  0.00     0.069 C 
HETATM   12  C7  UNL     1       3.969  88.061  39.349  1.00  0.00     0.216 C 
HETATM   13  C8  UNL     1       4.115  89.547  39.467  1.00  0.00     0.215 C 
HETATM   14  C9  UNL     1       4.738  90.031  40.712  1.00  0.00     0.070 C 
HETATM   15  C10 UNL     1       5.698  89.155  41.402  1.00  0.00     0.214 C 
BRANCH  12  16
HETATM   16  N4  UNL     1       3.007  87.493  40.247  1.00  0.00    -0.073 N 
ATOM     17  H43 UNL     1       3.323  86.588  40.596  1.00  0.00     0.274 HD
ATOM     18  H42 UNL     1       2.980  88.009  41.127  1.00  0.00     0.274 HD
ATOM     19  H41 UNL     1       2.076  87.423  39.837  1.00  0.00     0.274 HD
ENDBRANCH  12  16
BRANCH  13  20
HETATM   20  N5  UNL     1       2.816  90.190  39.232  1.00  0.00    -0.073 N 
ATOM     21  H53 UNL     1       2.075  89.780  39.800  1.00  0.00     0.274 HD
ATOM     22  H52 UNL     1       2.782  91.137  39.610  1.00  0.00     0.274 HD
ATOM     23  H51 UNL     1       2.596  90.166  38.237  1.00  0.00     0.274 HD
ENDBRANCH  13  20
BRANCH  15  24
HETATM   24  N6  UNL     1       5.463  89.152  42.858  1.00  0.00    -0.072 N 
ATOM     25  H63 UNL     1       4.472  89.186  43.095  1.00  0.00     0.274 HD
ATOM     26  H62 UNL     1       5.678  88.253  43.287  1.00  0.00     0.274 HD
ATOM     27  H61 UNL     1       5.991  89.920  43.273  1.00  0.00     0.274 HD
ENDBRANCH  15  24
ENDBRANCH   9  10
ENDBRANCH   4   9
BRANCH   5  28
HETATM   28  N7  UNL     1       8.872  85.688  41.187  1.00  0.00    -0.071 N 
ATOM     29  H73 UNL     1       7.956  85.501  40.778  1.00  0.00     0.274 HD
ATOM     30  H72 UNL     1       9.255  86.038  40.309  1.00  0.00     0.274 HD
ATOM     31  H71 UNL     1       9.355  84.904  41.626  1.00  0.00     0.274 HD
ENDBRANCH   5  28
BRANCH   1  32
HETATM   32  N2  UNL     1       6.393  83.832  43.788  1.00  0.00    -0.344 N 
ATOM     33  H2  UNL     1       6.097  82.906  43.481  1.00  0.00     0.164 HD
BRANCH  32  34
HETATM   34  C2  UNL     1       5.790  84.320  44.945  1.00  0.00     0.168 C 
HETATM   35  S1  UNL     1       6.210  83.693  46.399  1.00  0.00    -0.041 SA
BRANCH  34  36
HETATM   36  N1  UNL     1       4.773  85.327  44.918  1.00  0.00    -0.372 N 
HETATM   37  C1  UNL     1       5.130  86.637  45.423  1.00  0.00     0.148 C 
ATOM     38  H1  UNL     1       3.839  85.131  44.557  1.00  0.00     0.161 HD
ENDBRANCH  34  36
ENDBRANCH  32  34
ENDBRANCH   1  32
BRANCH   8  39
HETATM   39  O2  UNL     1       8.756  82.938  44.005  1.00  0.00    -0.390 OA
ATOM     40  H2  UNL     1       8.829  82.894  44.951  1.00  0.00     0.210 HD
ENDBRANCH   8  39
BRANCH   7  41
HETATM   41  N8  UNL     1      11.010  84.107  43.934  1.00  0.00    -0.072 N 
ATOM     42  H83 UNL     1      11.959  84.232  43.581  1.00  0.00     0.274 HD
ATOM     43  H82 UNL     1      11.077  84.712  44.752  1.00  0.00     0.274 HD
ATOM     44  H81 UNL     1      10.819  83.138  44.189  1.00  0.00     0.274 HD
ENDBRANCH   7  41
TORSDOF 11
ENDMDL
MODEL 2
REMARK VINA RESULT: -7.365156794      0.927      1.186
REMARK  11 active torsions:
REMARK  status: ('A' for Active; 'I' for Inactive)
REMARK    1  A    between atoms: N1_2  and  C2_4 
REMARK    2  A    between atoms: C2_4  and  N2_6 
REMARK    3  A    between atoms: N2_6  and  C3_8 
REMARK    4  A    between atoms: C4_11  and  O1_12 
REMARK    5  A    between atoms: O1_12  and  C5_13 
REMARK    6  A    between atoms: C7_15  and  N4_16 
REMARK    7  A    between atoms: C8_20  and  N5_21 
REMARK    8  A    between atoms: C10_26  and  N6_27 
REMARK    9  A    between atoms: C11_31  and  N7_32 
REMARK   10  A    between atoms: C13_37  and  N8_38 
REMARK   11  A    between atoms: C14_42  and  O2_43 
ROOT
HETATM    1  C3  UNL     1       7.307  84.563  43.083  1.00  0.00     0.212 C 
HETATM    2  N3  UNL     1       6.645  85.696  42.610  1.00  0.00    -0.372 N 
ATOM      3  H3  UNL     1       5.629  85.686  42.519  1.00  0.00     0.158 HD
HETATM    4  C4  UNL     1       7.404  86.920  42.238  1.00  0.00     0.249 C 
HETATM    5  C11 UNL     1       8.773  86.564  42.190  1.00  0.00     0.233 C 
HETATM    6  C12 UNL     1      10.085  86.138  42.575  1.00  0.00     0.072 C 
HETATM    7  C13 UNL     1       9.914  84.626  42.951  1.00  0.00     0.217 C 
HETATM    8  C14 UNL     1       8.597  84.374  43.646  1.00  0.00     0.190 C 
ENDROOT
BRANCH   4   9
HETATM    9  O1  UNL     1       6.919  87.251  40.962  1.00  0.00    -0.358 OA
BRANCH   9  10
HETATM   10  C5  UNL     1       5.637  87.754  40.946  1.00  0.00     0.156 C 
HETATM   11  C6  UNL     1       5.044  87.427  39.600  1.00  0.00     0.069 C 
HETATM   12  C7  UNL     1       3.686  88.073  39.466  1.00  0.00     0.216 C 
HETATM   13  C8  UNL     1       3.931  89.550  39.463  1.00  0.00     0.215 C 
HETATM   14  C9  UNL     1       4.674  90.078  40.622  1.00  0.00     0.070 C 
HETATM   15  C10 UNL     1       5.626  89.190  41.307  1.00  0.00     0.214 C 
BRANCH  12  16
HETATM   16  N4  UNL     1       2.760  87.635  40.469  1.00  0.00    -0.073 N 
ATOM     17  H43 UNL     1       1.912  87.260  40.044  1.00  0.00     0.274 HD
ATOM     18  H42 UNL     1       3.098  86.793  40.935  1.00  0.00     0.274 HD
ATOM     19  H41 UNL     1       2.538  88.364  41.147  1.00  0.00     0.274 HD
ENDBRANCH  12  16
BRANCH  13  20
HETATM   20  N5  UNL     1       2.661  90.261  39.272  1.00  0.00    -0.073 N 
ATOM     21  H53 UNL     1       2.743  91.258  39.473  1.00  0.00     0.274 HD
ATOM     22  H52 UNL     1       2.404  90.332  38.287  1.00  0.00     0.274 HD
ATOM     23  H51 UNL     1       1.931  89.816  39.828  1.00  0.00     0.274 HD
ENDBRANCH  13  20
BRANCH  15  24
HETATM   24  N6  UNL     1       5.501  89.304  42.772  1.00  0.00    -0.072 N 
ATOM     25  H63 UNL     1       6.268  89.829  43.191  1.00  0.00     0.274 HD
ATOM     26  H62 UNL     1       4.740  89.923  43.052  1.00  0.00     0.274 HD
ATOM     27  H61 UNL     1       5.408  88.367  43.164  1.00  0.00     0.274 HD
ENDBRANCH  15  24
ENDBRANCH   9  10
ENDBRANCH   4   9
BRANCH   5  28
HETATM   28  N7  UNL     1       8.661  85.618  41.140  1.00  0.00    -0.071 N 
ATOM     29  H73 UNL     1       8.647  84.632  41.402  1.00  0.00     0.274 HD
ATOM     30  H72 UNL     1       7.765  85.562  40.657  1.00  0.00     0.274 HD
ATOM     31  H71 UNL     1       9.462  85.945  40.600  1.00  0.00     0.274 HD
ENDBRANCH   5  28
BRANCH   1  32
HETATM   32  N2  UNL     1       6.348  83.961  44.013  1.00  0.00    -0.344 N 
ATOM     33  H2  UNL     1       5.832  83.151  43.669  1.00  0.00     0.164 HD
BRANCH  32  34
HETATM   34  C2  UNL     1       6.060  84.370  45.314  1.00  0.00     0.168 C 
HETATM   35  S1  UNL     1       4.965  85.563  45.560  1.00  0.00    -0.041 SA
BRANCH  34  36
HETATM   36  N1  UNL     1       6.718  83.817  46.458  1.00  0.00    -0.372 N 
HETATM   37  C1  UNL     1       6.158  82.605  47.019  1.00  0.00     0.148 C 
ATOM     38  H1  UNL     1       7.546  84.257  46.860  1.00  0.00     0.161 HD
ENDBRANCH  34  36
ENDBRANCH  32  34
ENDBRANCH   1  32
BRANCH   8  39
HETATM   39  O2  UNL     1       8.720  83.077  44.149  1.00  0.00    -0.390 OA
ATOM     40  H2  UNL     1       8.077  82.926  44.831  1.00  0.00     0.210 HD
ENDBRANCH   8  39
BRANCH   7  41
HETATM   41  N8  UNL     1      10.965  84.230  43.858  1.00  0.00    -0.072 N 
ATOM     42  H83 UNL     1      11.223  84.981  44.499  1.00  0.00     0.274 HD
ATOM     43  H82 UNL     1      10.641  83.552  44.548  1.00  0.00     0.274 HD
ATOM     44  H81 UNL     1      11.764  83.885  43.328  1.00  0.00     0.274 HD
ENDBRANCH   7  41
TORSDOF 11
ENDMDL
MODEL 3
REMARK VINA RESULT: -7.231149155      2.069      3.685
REMARK  11 active torsions:
REMARK  status: ('A' for Active; 'I' for Inactive)
REMARK    1  A    between atoms: N1_2  and  C2_4 
REMARK    2  A    between atoms: C2_4  and  N2_6 
REMARK    3  A    between atoms: N2_6  and  C3_8 
REMARK    4  A    between atoms: C4_11  and  O1_12 
REMARK    5  A    between atoms: O1_12  and  C5_13 
REMARK    6  A    between atoms: C7_15  and  N4_16 
REMARK    7  A    between atoms: C8_20  and  N5_21 
REMARK    8  A    between atoms: C10_26  and  N6_27 
REMARK    9  A    between atoms: C11_31  and  N7_32 
REMARK   10  A    between atoms: C13_37  and  N8_38 
REMARK   11  A    between atoms: C14_42  and  O2_43 
ROOT
HETATM    1  C3  UNL     1       9.370  85.252  42.388  1.00  0.00     0.212 C 
HETATM    2  N3  UNL     1       8.817  86.028  41.369  1.00  0.00    -0.372 N 
ATOM      3  H3  UNL     1       9.431  86.499  40.704  1.00  0.00     0.158 HD
HETATM    4  C4  UNL     1       7.343  86.176  41.240  1.00  0.00     0.249 C 
HETATM    5  C11 UNL     1       6.766  85.670  42.429  1.00  0.00     0.233 C 
HETATM    6  C12 UNL     1       6.361  84.780  43.476  1.00  0.00     0.072 C 
HETATM    7  C13 UNL     1       7.696  84.382  44.195  1.00  0.00     0.217 C 
HETATM    8  C14 UNL     1       8.830  84.226  43.208  1.00  0.00     0.190 C 
ENDROOT
BRANCH   4   9
HETATM    9  O1  UNL     1       7.145  87.562  41.127  1.00  0.00    -0.358 OA
BRANCH   9  10
HETATM   10  C5  UNL     1       5.830  87.946  40.986  1.00  0.00     0.156 C 
HETATM   11  C6  UNL     1       5.447  87.715  39.547  1.00  0.00     0.069 C 
HETATM   12  C7  UNL     1       4.058  88.247  39.293  1.00  0.00     0.216 C 
HETATM   13  C8  UNL     1       4.147  89.732  39.466  1.00  0.00     0.215 C 
HETATM   14  C9  UNL     1       4.680  90.195  40.760  1.00  0.00     0.070 C 
HETATM   15  C10 UNL     1       5.626  89.327  41.478  1.00  0.00     0.214 C 
BRANCH  12  16
HETATM   16  N4  UNL     1       3.064  87.621  40.115  1.00  0.00    -0.073 N 
ATOM     17  H43 UNL     1       2.560  86.902  39.596  1.00  0.00     0.274 HD
ATOM     18  H42 UNL     1       3.496  87.035  40.830  1.00  0.00     0.274 HD
ATOM     19  H41 UNL     1       2.418  88.290  40.534  1.00  0.00     0.274 HD
ENDBRANCH  12  16
BRANCH  13  20
HETATM   20  N5  UNL     1       2.844  90.342  39.174  1.00  0.00    -0.073 N 
ATOM     21  H53 UNL     1       2.693  90.467  38.173  1.00  0.00     0.274 HD
ATOM     22  H52 UNL     1       2.070  89.704  39.359  1.00  0.00     0.274 HD
ATOM     23  H51 UNL     1       2.752  91.218  39.689  1.00  0.00     0.274 HD
ENDBRANCH  13  20
BRANCH  15  24
HETATM   24  N6  UNL     1       5.307  89.270  42.917  1.00  0.00    -0.072 N 
ATOM     25  H63 UNL     1       4.479  89.816  43.157  1.00  0.00     0.274 HD
ATOM     26  H62 UNL     1       4.958  88.356  43.204  1.00  0.00     0.274 HD
ATOM     27  H61 UNL     1       6.131  89.558  43.444  1.00  0.00     0.274 HD
ENDBRANCH  15  24
ENDBRANCH   9  10
ENDBRANCH   4   9
BRANCH   5  28
HETATM   28  N7  UNL     1       7.361  86.605  43.312  1.00  0.00    -0.071 N 
ATOM     29  H73 UNL     1       7.718  87.470  42.904  1.00  0.00     0.274 HD
ATOM     30  H72 UNL     1       6.742  87.098  43.956  1.00  0.00     0.274 HD
ATOM     31  H71 UNL     1       8.043  85.967  43.721  1.00  0.00     0.274 HD
ENDBRANCH   5  28
BRANCH   1  32
HETATM   32  N2  UNL     1      10.596  84.715  41.792  1.00  0.00    -0.344 N 
ATOM     33  H2  UNL     1      10.482  84.169  40.938  1.00  0.00     0.164 HD
BRANCH  32  34
HETATM   34  C2  UNL     1      11.901  84.865  42.258  1.00  0.00     0.168 C 
HETATM   35  S1  UNL     1      12.959  83.626  42.102  1.00  0.00    -0.041 SA
BRANCH  34  36
HETATM   36  N1  UNL     1      12.351  86.053  42.916  1.00  0.00    -0.372 N 
HETATM   37  C1  UNL     1      13.783  86.250  43.013  1.00  0.00     0.148 C 
ATOM     38  H1  UNL     1      11.693  86.732  43.300  1.00  0.00     0.161 HD
ENDBRANCH  34  36
ENDBRANCH  32  34
ENDBRANCH   1  32
BRANCH   8  39
HETATM   39  O2  UNL     1       9.844  83.615  43.950  1.00  0.00    -0.390 OA
ATOM     40  H2  UNL     1       9.542  82.785  44.299  1.00  0.00     0.210 HD
ENDBRANCH   8  39
BRANCH   7  41
HETATM   41  N8  UNL     1       7.528  83.115  44.864  1.00  0.00    -0.072 N 
ATOM     42  H83 UNL     1       7.006  83.207  45.736  1.00  0.00     0.274 HD
ATOM     43  H82 UNL     1       6.881  82.501  44.369  1.00  0.00     0.274 HD
ATOM     44  H81 UNL     1       8.439  82.678  45.006  1.00  0.00     0.274 HD
ENDBRANCH   7  41
TORSDOF 11
ENDMDL
MODEL 4
REMARK VINA RESULT: -7.201366688      2.630      6.804
REMARK  11 active torsions:
REMARK  status: ('A' for Active; 'I' for Inactive)
REMARK    1  A    between atoms: N1_2  and  C2_4 
REMARK    2  A    between atoms: C2_4  and  N2_6 
REMARK    3  A    between atoms: N2_6  and  C3_8 
REMARK    4  A    between atoms: C4_11  and  O1_12 
REMARK    5  A    between atoms: O1_12  and  C5_13 
REMARK    6  A    between atoms: C7_15  and  N4_16 
REMARK    7  A    between atoms: C8_20  and  N5_21 
REMARK    8  A    between atoms: C10_26  and  N6_27 
REMARK    9  A    between atoms: C11_31  and  N7_32 
REMARK   10  A    between atoms: C13_37  and  N8_38 
REMARK   11  A    between atoms: C14_42  and  O2_43 
ROOT
HETATM    1  C3  UNL     1       3.622  87.587  40.101  1.00  0.00     0.212 C 
HETATM    2  N3  UNL     1       4.543  86.560  40.302  1.00  0.00    -0.372 N 
ATOM      3  H3  UNL     1       4.224  85.591  40.313  1.00  0.00     0.158 HD
HETATM    4  C4  UNL     1       5.986  86.859  40.501  1.00  0.00     0.249 C 
HETATM    5  C11 UNL     1       6.097  88.253  40.722  1.00  0.00     0.233 C 
HETATM    6  C12 UNL     1       6.058  89.671  40.527  1.00  0.00     0.072 C 
HETATM    7  C13 UNL     1       4.531  90.014  40.424  1.00  0.00     0.217 C 
HETATM    8  C14 UNL     1       3.772  88.937  39.686  1.00  0.00     0.190 C 
ENDROOT
BRANCH   4   9
HETATM    9  O1  UNL     1       6.334  86.132  41.651  1.00  0.00    -0.358 OA
BRANCH   9  10
HETATM   10  C5  UNL     1       7.628  86.319  42.081  1.00  0.00     0.156 C 
HETATM   11  C6  UNL     1       8.537  85.998  40.922  1.00  0.00     0.069 C 
HETATM   12  C7  UNL     1       9.977  86.048  41.369  1.00  0.00     0.216 C 
HETATM   13  C8  UNL     1      10.144  84.928  42.349  1.00  0.00     0.215 C 
HETATM   14  C9  UNL     1       9.217  84.938  43.495  1.00  0.00     0.070 C 
HETATM   15  C10 UNL     1       7.891  85.550  43.319  1.00  0.00     0.214 C 
BRANCH  12  16
HETATM   16  N4  UNL     1      10.357  87.334  41.879  1.00  0.00    -0.073 N 
ATOM     17  H43 UNL     1      10.470  87.306  42.892  1.00  0.00     0.274 HD
ATOM     18  H42 UNL     1      11.314  87.565  41.612  1.00  0.00     0.274 HD
ATOM     19  H41 UNL     1       9.712  88.074  41.603  1.00  0.00     0.274 HD
ENDBRANCH  12  16
BRANCH  13  20
HETATM   20  N5  UNL     1      11.543  84.864  42.792  1.00  0.00    -0.073 N 
ATOM     21  H53 UNL     1      11.846  85.729  43.238  1.00  0.00     0.274 HD
ATOM     22  H52 UNL     1      11.666  84.238  43.588  1.00  0.00     0.274 HD
ATOM     23  H51 UNL     1      12.140  84.608  42.005  1.00  0.00     0.274 HD
ENDBRANCH  13  20
BRANCH  15  24
HETATM   24  N6  UNL     1       7.536  86.391  44.478  1.00  0.00    -0.072 N 
ATOM     25  H63 UNL     1       7.931  87.329  44.416  1.00  0.00     0.274 HD
ATOM     26  H62 UNL     1       6.551  86.655  44.482  1.00  0.00     0.274 HD
ATOM     27  H61 UNL     1       7.815  85.904  45.329  1.00  0.00     0.274 HD
ENDBRANCH  15  24
ENDBRANCH   9  10
ENDBRANCH   4   9
BRANCH   5  28
HETATM   28  N7  UNL     1       5.333  88.292  41.916  1.00  0.00    -0.071 N 
ATOM     29  H73 UNL     1       5.752  88.758  42.722  1.00  0.00     0.274 HD
ATOM     30  H72 UNL     1       4.510  88.895  41.925  1.00  0.00     0.274 HD
ATOM     31  H71 UNL     1       5.175  87.287  41.989  1.00  0.00     0.274 HD
ENDBRANCH   5  28
BRANCH   1  32
HETATM   32  N2  UNL     1       2.614  86.985  39.224  1.00  0.00    -0.344 N 
ATOM     33  H2  UNL     1       2.841  86.951  38.231  1.00  0.00     0.164 HD
BRANCH  32  34
HETATM   34  C2  UNL     1       1.379  86.454  39.593  1.00  0.00     0.168 C 
HETATM   35  S1  UNL     1       1.305  84.931  40.191  1.00  0.00    -0.041 SA
BRANCH  34  36
HETATM   36  N1  UNL     1       0.153  87.171  39.430  1.00  0.00    -0.372 N 
HETATM   37  C1  UNL     1      -0.783  86.661  38.448  1.00  0.00     0.148 C 
ATOM     38  H1  UNL     1      -0.055  88.005  39.980  1.00  0.00     0.161 HD
ENDBRANCH  34  36
ENDBRANCH  32  34
ENDBRANCH   1  32
BRANCH   8  39
HETATM   39  O2  UNL     1       2.521  89.510  39.443  1.00  0.00    -0.390 OA
ATOM     40  H2  UNL     1       2.381  89.609  38.508  1.00  0.00     0.210 HD
ENDBRANCH   8  39
BRANCH   7  41
HETATM   41  N8  UNL     1       4.358  91.245  39.692  1.00  0.00    -0.072 N 
ATOM     42  H83 UNL     1       5.246  91.625  39.363  1.00  0.00     0.274 HD
ATOM     43  H82 UNL     1       3.917  91.095  38.785  1.00  0.00     0.274 HD
ATOM     44  H81 UNL     1       3.842  91.914  40.263  1.00  0.00     0.274 HD
ENDBRANCH   7  41
TORSDOF 11
ENDMDL
MODEL 5
REMARK VINA RESULT: -7.049698099      2.237      4.056
REMARK  11 active torsions:
REMARK  status: ('A' for Active; 'I' for Inactive)
REMARK    1  A    between atoms: N1_2  and  C2_4 
REMARK    2  A    between atoms: C2_4  and  N2_6 
REMARK    3  A    between atoms: N2_6  and  C3_8 
REMARK    4  A    between atoms: C4_11  and  O1_12 
REMARK    5  A    between atoms: O1_12  and  C5_13 
REMARK    6  A    between atoms: C7_15  and  N4_16 
REMARK    7  A    between atoms: C8_20  and  N5_21 
REMARK    8  A    between atoms: C10_26  and  N6_27 
REMARK    9  A    between atoms: C11_31  and  N7_32 
REMARK   10  A    between atoms: C13_37  and  N8_38 
REMARK   11  A    between atoms: C14_42  and  O2_43 
ROOT
HETATM    1  C3  UNL     1       8.940  84.301  43.585  1.00  0.00     0.212 C 
HETATM    2  N3  UNL     1       8.604  85.236  42.606  1.00  0.00    -0.372 N 
ATOM      3  H3  UNL     1       9.317  85.557  41.949  1.00  0.00     0.158 HD
HETATM    4  C4  UNL     1       7.220  85.770  42.506  1.00  0.00     0.249 C 
HETATM    5  C11 UNL     1       6.537  85.383  43.684  1.00  0.00     0.233 C 
HETATM    6  C12 UNL     1       5.919  84.588  44.703  1.00  0.00     0.072 C 
HETATM    7  C13 UNL     1       7.107  83.825  45.384  1.00  0.00     0.217 C 
HETATM    8  C14 UNL     1       8.154  83.419  44.374  1.00  0.00     0.190 C 
ENDROOT
BRANCH   4   9
HETATM    9  O1  UNL     1       7.391  87.162  42.450  1.00  0.00    -0.358 OA
BRANCH   9  10
HETATM   10  C5  UNL     1       6.757  87.778  41.395  1.00  0.00     0.156 C 
HETATM   11  C6  UNL     1       5.685  88.667  41.972  1.00  0.00     0.069 C 
HETATM   12  C7  UNL     1       4.859  89.266  40.859  1.00  0.00     0.216 C 
HETATM   13  C8  UNL     1       4.144  88.120  40.214  1.00  0.00     0.215 C 
HETATM   14  C9  UNL     1       5.001  87.024  39.727  1.00  0.00     0.070 C 
HETATM   15  C10 UNL     1       6.284  86.783  40.406  1.00  0.00     0.214 C 
BRANCH  12  16
HETATM   16  N4  UNL     1       5.639  90.056  39.952  1.00  0.00    -0.073 N 
ATOM     17  H43 UNL     1       5.397  91.044  40.027  1.00  0.00     0.274 HD
ATOM     18  H42 UNL     1       6.613  90.101  40.250  1.00  0.00     0.274 HD
ATOM     19  H41 UNL     1       5.567  89.735  38.986  1.00  0.00     0.274 HD
ENDBRANCH  12  16
BRANCH  13  20
HETATM   20  N5  UNL     1       3.263  88.623  39.153  1.00  0.00    -0.073 N 
ATOM     21  H53 UNL     1       2.871  89.537  39.378  1.00  0.00     0.274 HD
ATOM     22  H52 UNL     1       3.781  88.889  38.315  1.00  0.00     0.274 HD
ATOM     23  H51 UNL     1       2.538  87.933  38.953  1.00  0.00     0.274 HD
ENDBRANCH  13  20
BRANCH  15  24
HETATM   24  N6  UNL     1       7.364  86.542  39.431  1.00  0.00    -0.072 N 
ATOM     25  H63 UNL     1       8.062  87.285  39.428  1.00  0.00     0.274 HD
ATOM     26  H62 UNL     1       7.977  85.776  39.709  1.00  0.00     0.274 HD
ATOM     27  H61 UNL     1       6.945  86.395  38.513  1.00  0.00     0.274 HD
ENDBRANCH  15  24
ENDBRANCH   9  10
ENDBRANCH   4   9
BRANCH   5  28
HETATM   28  N7  UNL     1       7.361  86.093  44.593  1.00  0.00    -0.071 N 
ATOM     29  H73 UNL     1       8.320  86.283  44.302  1.00  0.00     0.274 HD
ATOM     30  H72 UNL     1       7.150  87.081  44.740  1.00  0.00     0.274 HD
ATOM     31  H71 UNL     1       7.231  85.467  45.387  1.00  0.00     0.274 HD
ENDBRANCH   5  28
BRANCH   1  32
HETATM   32  N2  UNL     1       9.979  83.487  42.949  1.00  0.00    -0.344 N 
ATOM     33  H2  UNL     1       9.770  82.495  42.835  1.00  0.00     0.164 HD
BRANCH  32  34
HETATM   34  C2  UNL     1      11.221  83.913  42.481  1.00  0.00     0.168 C 
HETATM   35  S1  UNL     1      11.992  83.038  41.332  1.00  0.00    -0.041 SA
BRANCH  34  36
HETATM   36  N1  UNL     1      11.882  85.072  42.998  1.00  0.00    -0.372 N 
HETATM   37  C1  UNL     1      13.320  85.138  42.836  1.00  0.00     0.148 C 
ATOM     38  H1  UNL     1      11.363  85.820  43.459  1.00  0.00     0.161 HD
ENDBRANCH  34  36
ENDBRANCH  32  34
ENDBRANCH   1  32
BRANCH   8  39
HETATM   39  O2  UNL     1       8.977  82.535  45.075  1.00  0.00    -0.390 OA
ATOM     40  H2  UNL     1       9.802  82.420  44.617  1.00  0.00     0.210 HD
ENDBRANCH   8  39
BRANCH   7  41
HETATM   41  N8  UNL     1       6.616  82.620  46.007  1.00  0.00    -0.072 N 
ATOM     42  H83 UNL     1       6.164  82.806  46.902  1.00  0.00     0.274 HD
ATOM     43  H82 UNL     1       5.812  82.232  45.514  1.00  0.00     0.274 HD
ATOM     44  H81 UNL     1       7.376  81.944  46.093  1.00  0.00     0.274 HD
ENDBRANCH   7  41
TORSDOF 11
ENDMDL
