MODEL 1
REMARK VINA RESULT: -6.209963529      0.000      0.000
REMARK  4 active torsions:
REMARK  status: ('A' for Active; 'I' for Inactive)
REMARK    1  A    between atoms: C2_2  and  N1_4 
REMARK    2  A    between atoms: N1_4  and  S1_6 
REMARK    3  A    between atoms: S1_6  and  N2_9 
REMARK       I    between atoms: N2_9  and  C5_11 
REMARK       I    between atoms: N4_13  and  C6_15 
REMARK       I    between atoms: C6_15  and  N6_19 
REMARK    4  A    between atoms: N6_19  and  C7_21 
ROOT
HETATM    1  N2  UNL     1      42.997  22.385  51.363  1.00  0.00    -0.244 N 
ATOM      2  H2  UNL     1      42.507  21.753  51.996  1.00  0.00     0.182 HD
HETATM    3  C5  UNL     1      42.532  23.718  51.261  1.00  0.00     0.217 C 
HETATM    4  N3  UNL     1      43.439  24.772  51.529  1.00  0.00    -0.062 NA
HETATM    5  N4  UNL     1      41.327  24.001  50.936  1.00  0.00    -0.163 N 
ATOM      6  H4  UNL     1      40.658  23.257  50.738  1.00  0.00     0.187 HD
HETATM    7  C6  UNL     1      40.930  25.358  50.853  1.00  0.00     0.674 C 
HETATM    8  N5  UNL     1      41.564  26.112  50.019  1.00  0.00    -0.235 N 
ATOM      9  H51 UNL     1      41.278  27.089  49.960  1.00  0.00     0.174 HD
ATOM     10  H52 UNL     1      42.324  25.748  49.444  1.00  0.00     0.174 HD
HETATM   11  N6  UNL     1      39.887  25.858  51.643  1.00  0.00    -0.218 N 
ATOM     12  H6  UNL     1      38.963  25.944  51.220  1.00  0.00     0.178 HD
ENDROOT
BRANCH   1  13
HETATM   13  S1  UNL     1      44.344  21.767  50.483  1.00  0.00     0.305 S 
HETATM   14  O1  UNL     1      43.909  20.666  49.530  1.00  0.00    -0.188 OA
HETATM   15  O2  UNL     1      44.903  22.863  49.624  1.00  0.00    -0.188 OA
BRANCH  13  16
HETATM   16  N1  UNL     1      45.472  21.103  51.564  1.00  0.00    -0.194 NA
HETATM   17  C4  UNL     1      46.108  22.107  52.361  1.00  0.00     0.131 C 
BRANCH  16  18
HETATM   18  C2  UNL     1      44.949  20.069  52.410  1.00  0.00     0.067 C 
HETATM   19  C1  UNL     1      44.898  18.716  51.719  1.00  0.00     0.027 C 
HETATM   20  C3  UNL     1      45.670  19.948  53.723  1.00  0.00     0.027 C 
ENDBRANCH  16  18
ENDBRANCH  13  16
ENDBRANCH   1  13
BRANCH  11  21
HETATM   21  C7  UNL     1      40.043  26.256  53.011  1.00  0.00     0.036 C 
HETATM   22  C8  UNL     1      41.290  27.112  53.210  1.00  0.00     0.038 C 
HETATM   23  C9  UNL     1      40.160  25.101  53.969  1.00  0.00     0.038 C 
HETATM   24  C10 UNL     1      38.862  27.131  53.434  1.00  0.00     0.038 C 
ENDBRANCH  11  21
TORSDOF 4
ENDMDL
MODEL 2
REMARK VINA RESULT: -6.139623813      1.869      2.220
REMARK  4 active torsions:
REMARK  status: ('A' for Active; 'I' for Inactive)
REMARK    1  A    between atoms: C2_2  and  N1_4 
REMARK    2  A    between atoms: N1_4  and  S1_6 
REMARK    3  A    between atoms: S1_6  and  N2_9 
REMARK       I    between atoms: N2_9  and  C5_11 
REMARK       I    between atoms: N4_13  and  C6_15 
REMARK       I    between atoms: C6_15  and  N6_19 
REMARK    4  A    between atoms: N6_19  and  C7_21 
ROOT
HETATM    1  N2  UNL     1      44.021  22.568  52.853  1.00  0.00    -0.244 N 
ATOM      2  H2  UNL     1      43.373  22.156  53.524  1.00  0.00     0.182 HD
HETATM    3  C5  UNL     1      43.558  23.635  52.047  1.00  0.00     0.217 C 
HETATM    4  N3  UNL     1      44.264  24.862  52.080  1.00  0.00    -0.062 NA
HETATM    5  N4  UNL     1      42.528  23.530  51.294  1.00  0.00    -0.163 N 
ATOM      6  H4  UNL     1      42.005  22.655  51.256  1.00  0.00     0.187 HD
HETATM    7  C6  UNL     1      42.120  24.640  50.515  1.00  0.00     0.674 C 
HETATM    8  N5  UNL     1      42.967  25.109  49.661  1.00  0.00    -0.235 N 
ATOM      9  H51 UNL     1      42.672  25.908  49.100  1.00  0.00     0.174 HD
ATOM     10  H52 UNL     1      43.895  24.700  49.553  1.00  0.00     0.174 HD
HETATM   11  N6  UNL     1      40.846  25.201  50.664  1.00  0.00    -0.218 N 
ATOM     12  H6  UNL     1      40.121  24.933  49.996  1.00  0.00     0.178 HD
ENDROOT
BRANCH   1  13
HETATM   13  S1  UNL     1      45.618  21.923  52.768  1.00  0.00     0.305 S 
HETATM   14  O1  UNL     1      46.438  22.647  51.713  1.00  0.00    -0.188 OA
HETATM   15  O2  UNL     1      46.310  22.175  54.076  1.00  0.00    -0.188 OA
BRANCH  13  16
HETATM   16  N1  UNL     1      45.546  20.284  52.337  1.00  0.00    -0.194 NA
HETATM   17  C4  UNL     1      45.730  19.422  53.465  1.00  0.00     0.131 C 
BRANCH  16  18
HETATM   18  C2  UNL     1      44.358  19.907  51.626  1.00  0.00     0.067 C 
HETATM   19  C1  UNL     1      44.421  20.263  50.150  1.00  0.00     0.027 C 
HETATM   20  C3  UNL     1      43.997  18.457  51.789  1.00  0.00     0.027 C 
ENDBRANCH  16  18
ENDBRANCH  13  16
ENDBRANCH   1  13
BRANCH  11  21
HETATM   21  C7  UNL     1      40.498  26.129  51.699  1.00  0.00     0.036 C 
HETATM   22  C8  UNL     1      41.588  27.177  51.904  1.00  0.00     0.038 C 
HETATM   23  C9  UNL     1      40.267  25.485  53.039  1.00  0.00     0.038 C 
HETATM   24  C10 UNL     1      39.241  26.904  51.301  1.00  0.00     0.038 C 
ENDBRANCH  11  21
TORSDOF 4
ENDMDL
MODEL 3
REMARK VINA RESULT: -6.028400178      0.860      1.393
REMARK  4 active torsions:
REMARK  status: ('A' for Active; 'I' for Inactive)
REMARK    1  A    between atoms: C2_2  and  N1_4 
REMARK    2  A    between atoms: N1_4  and  S1_6 
REMARK    3  A    between atoms: S1_6  and  N2_9 
REMARK       I    between atoms: N2_9  and  C5_11 
REMARK       I    between atoms: N4_13  and  C6_15 
REMARK       I    between atoms: C6_15  and  N6_19 
REMARK    4  A    between atoms: N6_19  and  C7_21 
ROOT
HETATM    1  N2  UNL     1      42.950  22.252  51.623  1.00  0.00    -0.244 N 
ATOM      2  H2  UNL     1      42.296  21.748  52.222  1.00  0.00     0.182 HD
HETATM    3  C5  UNL     1      42.659  23.602  51.307  1.00  0.00     0.217 C 
HETATM    4  N3  UNL     1      43.624  24.590  51.620  1.00  0.00    -0.062 NA
HETATM    5  N4  UNL     1      41.562  23.956  50.752  1.00  0.00    -0.163 N 
ATOM      6  H4  UNL     1      40.855  23.259  50.518  1.00  0.00     0.187 HD
HETATM    7  C6  UNL     1      41.338  25.324  50.465  1.00  0.00     0.674 C 
HETATM    8  N5  UNL     1      42.179  25.912  49.682  1.00  0.00    -0.235 N 
ATOM      9  H51 UNL     1      42.017  26.897  49.475  1.00  0.00     0.174 HD
ATOM     10  H52 UNL     1      42.975  25.413  49.286  1.00  0.00     0.174 HD
HETATM   11  N6  UNL     1      40.245  26.010  51.009  1.00  0.00    -0.218 N 
ATOM     12  H6  UNL     1      39.416  26.131  50.427  1.00  0.00     0.178 HD
ENDROOT
BRANCH   1  13
HETATM   13  S1  UNL     1      44.343  21.411  51.055  1.00  0.00     0.305 S 
HETATM   14  O1  UNL     1      44.129  20.903  49.639  1.00  0.00    -0.188 OA
HETATM   15  O2  UNL     1      45.491  22.375  50.981  1.00  0.00    -0.188 OA
BRANCH  13  16
HETATM   16  N1  UNL     1      44.641  20.070  52.050  1.00  0.00    -0.194 NA
HETATM   17  C4  UNL     1      44.843  18.872  51.294  1.00  0.00     0.131 C 
BRANCH  16  18
HETATM   18  C2  UNL     1      45.718  20.245  52.981  1.00  0.00     0.067 C 
HETATM   19  C1  UNL     1      45.526  21.456  53.879  1.00  0.00     0.027 C 
HETATM   20  C3  UNL     1      45.995  19.026  53.815  1.00  0.00     0.027 C 
ENDBRANCH  16  18
ENDBRANCH  13  16
ENDBRANCH   1  13
BRANCH  11  21
HETATM   21  C7  UNL     1      40.221  26.551  52.336  1.00  0.00     0.036 C 
HETATM   22  C8  UNL     1      41.441  27.427  52.609  1.00  0.00     0.038 C 
HETATM   23  C9  UNL     1      40.198  25.504  53.418  1.00  0.00     0.038 C 
HETATM   24  C10 UNL     1      39.004  27.461  52.504  1.00  0.00     0.038 C 
ENDBRANCH  11  21
TORSDOF 4
ENDMDL
MODEL 4
REMARK VINA RESULT: -5.988180156      8.019     10.073
REMARK  4 active torsions:
REMARK  status: ('A' for Active; 'I' for Inactive)
REMARK    1  A    between atoms: C2_2  and  N1_4 
REMARK    2  A    between atoms: N1_4  and  S1_6 
REMARK    3  A    between atoms: S1_6  and  N2_9 
REMARK       I    between atoms: N2_9  and  C5_11 
REMARK       I    between atoms: N4_13  and  C6_15 
REMARK       I    between atoms: C6_15  and  N6_19 
REMARK    4  A    between atoms: N6_19  and  C7_21 
ROOT
HETATM    1  N2  UNL     1      45.465  25.020  44.707  1.00  0.00    -0.244 N 
ATOM      2  H2  UNL     1      44.906  25.256  43.888  1.00  0.00     0.182 HD
HETATM    3  C5  UNL     1      46.874  25.081  44.592  1.00  0.00     0.217 C 
HETATM    4  N3  UNL     1      47.590  25.910  45.491  1.00  0.00    -0.062 NA
HETATM    5  N4  UNL     1      47.520  24.418  43.709  1.00  0.00    -0.163 N 
ATOM      6  H4  UNL     1      47.024  23.815  43.052  1.00  0.00     0.187 HD
HETATM    7  C6  UNL     1      48.931  24.527  43.650  1.00  0.00     0.674 C 
HETATM    8  N5  UNL     1      49.596  24.193  44.704  1.00  0.00    -0.235 N 
ATOM      9  H51 UNL     1      50.612  24.271  44.662  1.00  0.00     0.174 HD
ATOM     10  H52 UNL     1      49.127  23.865  45.548  1.00  0.00     0.174 HD
HETATM   11  N6  UNL     1      49.576  24.977  42.491  1.00  0.00    -0.218 N 
ATOM     12  H6  UNL     1      49.971  24.281  41.860  1.00  0.00     0.178 HD
ENDROOT
BRANCH   1  13
HETATM   13  S1  UNL     1      44.637  24.572  46.152  1.00  0.00     0.305 S 
HETATM   14  O1  UNL     1      43.281  23.967  45.832  1.00  0.00    -0.188 OA
HETATM   15  O2  UNL     1      45.421  23.493  46.841  1.00  0.00    -0.188 OA
BRANCH  13  16
HETATM   16  N1  UNL     1      44.382  25.948  47.110  1.00  0.00    -0.194 NA
HETATM   17  C4  UNL     1      43.953  27.072  46.334  1.00  0.00     0.131 C 
BRANCH  16  18
HETATM   18  C2  UNL     1      43.486  25.749  48.212  1.00  0.00     0.067 C 
HETATM   19  C1  UNL     1      44.215  25.516  49.526  1.00  0.00     0.027 C 
HETATM   20  C3  UNL     1      42.479  26.853  48.374  1.00  0.00     0.027 C 
ENDBRANCH  16  18
ENDBRANCH  13  16
ENDBRANCH   1  13
BRANCH  11  21
HETATM   21  C7  UNL     1      49.712  26.360  42.140  1.00  0.00     0.036 C 
HETATM   22  C8  UNL     1      50.240  27.188  43.309  1.00  0.00     0.038 C 
HETATM   23  C9  UNL     1      48.424  27.006  41.706  1.00  0.00     0.038 C 
HETATM   24  C10 UNL     1      50.742  26.512  41.019  1.00  0.00     0.038 C 
ENDBRANCH  11  21
TORSDOF 4
ENDMDL
MODEL 5
REMARK VINA RESULT: -5.978518751      1.705      2.387
REMARK  4 active torsions:
REMARK  status: ('A' for Active; 'I' for Inactive)
REMARK    1  A    between atoms: C2_2  and  N1_4 
REMARK    2  A    between atoms: N1_4  and  S1_6 
REMARK    3  A    between atoms: S1_6  and  N2_9 
REMARK       I    between atoms: N2_9  and  C5_11 
REMARK       I    between atoms: N4_13  and  C6_15 
REMARK       I    between atoms: C6_15  and  N6_19 
REMARK    4  A    between atoms: N6_19  and  C7_21 
ROOT
HETATM    1  N2  UNL     1      43.183  22.588  51.391  1.00  0.00    -0.244 N 
ATOM      2  H2  UNL     1      42.329  22.521  50.837  1.00  0.00     0.182 HD
HETATM    3  C5  UNL     1      43.242  23.569  52.409  1.00  0.00     0.217 C 
HETATM    4  N3  UNL     1      43.518  23.151  53.734  1.00  0.00    -0.062 NA
HETATM    5  N4  UNL     1      43.055  24.813  52.175  1.00  0.00    -0.163 N 
ATOM      6  H4  UNL     1      42.855  25.135  51.227  1.00  0.00     0.187 HD
HETATM    7  C6  UNL     1      43.128  25.741  53.243  1.00  0.00     0.674 C 
HETATM    8  N5  UNL     1      44.238  25.806  53.897  1.00  0.00    -0.235 N 
ATOM      9  H51 UNL     1      44.290  26.474  54.666  1.00  0.00     0.174 HD
ATOM     10  H52 UNL     1      45.032  25.212  53.659  1.00  0.00     0.174 HD
HETATM   11  N6  UNL     1      42.037  26.556  53.571  1.00  0.00    -0.218 N 
ATOM     12  H6  UNL     1      42.033  27.515  53.224  1.00  0.00     0.178 HD
ENDROOT
BRANCH   1  13
HETATM   13  S1  UNL     1      44.469  21.498  51.031  1.00  0.00     0.305 S 
HETATM   14  O1  UNL     1      44.440  21.090  49.568  1.00  0.00    -0.188 OA
HETATM   15  O2  UNL     1      45.775  22.208  51.238  1.00  0.00    -0.188 OA
BRANCH  13  16
HETATM   16  N1  UNL     1      44.300  20.092  51.966  1.00  0.00    -0.194 NA
HETATM   17  C4  UNL     1      43.881  18.971  51.182  1.00  0.00     0.131 C 
BRANCH  16  18
HETATM   18  C2  UNL     1      45.461  19.743  52.732  1.00  0.00     0.067 C 
HETATM   19  C1  UNL     1      45.753  20.740  53.842  1.00  0.00     0.027 C 
HETATM   20  C3  UNL     1      45.411  18.350  53.295  1.00  0.00     0.027 C 
ENDBRANCH  16  18
ENDBRANCH  13  16
ENDBRANCH   1  13
BRANCH  11  21
HETATM   21  C7  UNL     1      40.927  26.121  54.366  1.00  0.00     0.036 C 
HETATM   22  C8  UNL     1      41.380  25.284  55.558  1.00  0.00     0.038 C 
HETATM   23  C9  UNL     1      39.930  25.283  53.609  1.00  0.00     0.038 C 
HETATM   24  C10 UNL     1      40.204  27.334  54.955  1.00  0.00     0.038 C 
ENDBRANCH  11  21
TORSDOF 4
ENDMDL
