MODEL 1
REMARK VINA RESULT: -6.135481559      0.000      0.000
REMARK  5 active torsions:
REMARK  status: ('A' for Active; 'I' for Inactive)
REMARK    1  A    between atoms: C2_2  and  N1_4 
REMARK    2  A    between atoms: C2_2  and  C4_8 
REMARK       I    between atoms: C4_8  and  N2_10 
REMARK    3  A    between atoms: N2_10  and  C5_12 
REMARK    4  A    between atoms: C5_12  and  C6_13 
REMARK       I    between atoms: C6_13  and  N3_15 
REMARK    5  A    between atoms: N3_15  and  C7_17 
ROOT
HETATM    1  C6  UNL     1      45.077  24.716  45.229  1.00  0.00     0.235 C 
HETATM    2  O2  UNL     1      44.061  24.150  45.753  1.00  0.00    -0.272 OA
HETATM    3  N3  UNL     1      44.915  25.875  44.435  1.00  0.00    -0.354 N 
ATOM      4  H3  UNL     1      45.726  26.328  44.014  1.00  0.00     0.162 HD
ENDROOT
BRANCH   1   5
HETATM    5  C5  UNL     1      46.443  24.179  45.435  1.00  0.00     0.225 C 
BRANCH   5   6
HETATM    6  N2  UNL     1      47.245  24.447  44.272  1.00  0.00    -0.350 N 
HETATM    7  C4  UNL     1      48.658  24.435  44.393  1.00  0.00     0.253 C 
HETATM    8  O1  UNL     1      49.189  24.194  45.499  1.00  0.00    -0.271 OA
ATOM      9  H2  UNL     1      46.805  24.643  43.373  1.00  0.00     0.163 HD
BRANCH   7  10
HETATM   10  C2  UNL     1      49.472  24.715  43.184  1.00  0.00     0.196 C 
HETATM   11  C1  UNL     1      48.733  25.746  42.363  1.00  0.00     0.056 C 
HETATM   12  C3  UNL     1      50.813  25.228  43.657  1.00  0.00     0.056 C 
BRANCH  10  13
HETATM   13  N1  UNL     1      49.671  23.526  42.404  1.00  0.00    -0.062 N 
ATOM     14  H13 UNL     1      49.988  22.741  42.974  1.00  0.00     0.275 HD
ATOM     15  H12 UNL     1      48.789  23.127  42.082  1.00  0.00     0.275 HD
ATOM     16  H11 UNL     1      50.307  23.723  41.632  1.00  0.00     0.275 HD
ENDBRANCH  10  13
ENDBRANCH   7  10
ENDBRANCH   5   6
ENDBRANCH   1   5
BRANCH   3  17
HETATM   17  C7  UNL     1      43.599  26.407  44.225  1.00  0.00     0.092 C 
HETATM   18  C8  UNL     1      43.300  26.555  42.760  1.00  0.00     0.009 C 
HETATM   19  C9  UNL     1      41.837  26.911  42.576  1.00  0.00     0.011 C 
HETATM   20  C13 UNL     1      44.111  27.663  42.125  1.00  0.00     0.011 C 
HETATM   21  C10 UNL     1      41.537  28.160  43.343  1.00  0.00    -0.013 C 
HETATM   22  C11 UNL     1      42.339  29.304  42.728  1.00  0.00     0.009 C 
HETATM   23  C16 UNL     1      41.933  28.086  44.795  1.00  0.00     0.011 C 
HETATM   24  C12 UNL     1      43.797  28.984  42.830  1.00  0.00    -0.013 C 
HETATM   25  C14 UNL     1      44.239  28.826  44.257  1.00  0.00     0.011 C 
HETATM   26  C15 UNL     1      43.415  27.760  44.900  1.00  0.00     0.009 C 
ENDBRANCH   3  17
TORSDOF 5
ENDMDL
MODEL 2
REMARK VINA RESULT: -5.928440238      1.134      1.236
REMARK  5 active torsions:
REMARK  status: ('A' for Active; 'I' for Inactive)
REMARK    1  A    between atoms: C2_2  and  N1_4 
REMARK    2  A    between atoms: C2_2  and  C4_8 
REMARK       I    between atoms: C4_8  and  N2_10 
REMARK    3  A    between atoms: N2_10  and  C5_12 
REMARK    4  A    between atoms: C5_12  and  C6_13 
REMARK       I    between atoms: C6_13  and  N3_15 
REMARK    5  A    between atoms: N3_15  and  C7_17 
ROOT
HETATM    1  C6  UNL     1      46.517  24.731  45.293  1.00  0.00     0.235 C 
HETATM    2  O2  UNL     1      45.691  23.810  45.605  1.00  0.00    -0.272 OA
HETATM    3  N3  UNL     1      46.051  25.956  44.762  1.00  0.00    -0.354 N 
ATOM      4  H3  UNL     1      46.710  26.693  44.512  1.00  0.00     0.162 HD
ENDROOT
BRANCH   1   5
HETATM    5  C5  UNL     1      47.976  24.544  45.478  1.00  0.00     0.225 C 
BRANCH   5   6
HETATM    6  N2  UNL     1      48.617  24.470  44.192  1.00  0.00    -0.350 N 
HETATM    7  C4  UNL     1      49.868  25.112  44.010  1.00  0.00     0.253 C 
HETATM    8  O1  UNL     1      50.398  25.730  44.959  1.00  0.00    -0.271 OA
ATOM      9  H2  UNL     1      48.178  23.964  43.423  1.00  0.00     0.163 HD
BRANCH   7  10
HETATM   10  C2  UNL     1      50.516  25.028  42.678  1.00  0.00     0.196 C 
HETATM   11  C1  UNL     1      49.887  26.080  41.795  1.00  0.00     0.056 C 
HETATM   12  C3  UNL     1      51.993  25.277  42.883  1.00  0.00     0.056 C 
BRANCH  10  13
HETATM   13  N1  UNL     1      50.334  23.731  42.091  1.00  0.00    -0.062 N 
ATOM     14  H13 UNL     1      49.354  23.445  42.087  1.00  0.00     0.275 HD
ATOM     15  H12 UNL     1      50.489  23.740  41.083  1.00  0.00     0.275 HD
ATOM     16  H11 UNL     1      50.930  23.052  42.565  1.00  0.00     0.275 HD
ENDBRANCH  10  13
ENDBRANCH   7  10
ENDBRANCH   5   6
ENDBRANCH   1   5
BRANCH   3  17
HETATM   17  C7  UNL     1      44.641  26.152  44.577  1.00  0.00     0.092 C 
HETATM   18  C8  UNL     1      44.266  26.050  43.125  1.00  0.00     0.009 C 
HETATM   19  C9  UNL     1      42.754  26.047  42.994  1.00  0.00     0.011 C 
HETATM   20  C13 UNL     1      44.779  27.225  42.322  1.00  0.00     0.011 C 
HETATM   21  C10 UNL     1      42.204  27.282  43.636  1.00  0.00    -0.013 C 
HETATM   22  C11 UNL     1      42.702  28.492  42.849  1.00  0.00     0.009 C 
HETATM   23  C16 UNL     1      42.658  27.475  45.060  1.00  0.00     0.011 C 
HETATM   24  C12 UNL     1      44.197  28.519  42.895  1.00  0.00    -0.013 C 
HETATM   25  C14 UNL     1      44.714  28.638  44.301  1.00  0.00     0.011 C 
HETATM   26  C15 UNL     1      44.177  27.502  45.108  1.00  0.00     0.009 C 
ENDBRANCH   3  17
TORSDOF 5
ENDMDL
MODEL 3
REMARK VINA RESULT: -5.861886487      9.938     11.603
REMARK  5 active torsions:
REMARK  status: ('A' for Active; 'I' for Inactive)
REMARK    1  A    between atoms: C2_2  and  N1_4 
REMARK    2  A    between atoms: C2_2  and  C4_8 
REMARK       I    between atoms: C4_8  and  N2_10 
REMARK    3  A    between atoms: N2_10  and  C5_12 
REMARK    4  A    between atoms: C5_12  and  C6_13 
REMARK       I    between atoms: C6_13  and  N3_15 
REMARK    5  A    between atoms: N3_15  and  C7_17 
ROOT
HETATM    1  C6  UNL     1      41.067  25.119  52.332  1.00  0.00     0.235 C 
HETATM    2  O2  UNL     1      40.625  26.137  51.704  1.00  0.00    -0.272 OA
HETATM    3  N3  UNL     1      40.877  25.004  53.728  1.00  0.00    -0.354 N 
ATOM      4  H3  UNL     1      41.231  24.190  54.231  1.00  0.00     0.162 HD
ENDROOT
BRANCH   1   5
HETATM    5  C5  UNL     1      41.788  24.036  51.619  1.00  0.00     0.225 C 
BRANCH   5   6
HETATM    6  N2  UNL     1      42.910  23.605  52.411  1.00  0.00    -0.350 N 
HETATM    7  C4  UNL     1      43.832  22.685  51.851  1.00  0.00     0.253 C 
HETATM    8  O1  UNL     1      43.665  22.261  50.687  1.00  0.00    -0.271 OA
ATOM      9  H2  UNL     1      43.040  23.956  53.359  1.00  0.00     0.163 HD
BRANCH   7  10
HETATM   10  C2  UNL     1      44.984  22.249  52.680  1.00  0.00     0.196 C 
HETATM   11  C1  UNL     1      45.040  20.740  52.627  1.00  0.00     0.056 C 
HETATM   12  C3  UNL     1      46.224  22.879  52.089  1.00  0.00     0.056 C 
BRANCH  10  13
HETATM   13  N1  UNL     1      44.838  22.681  54.041  1.00  0.00    -0.062 N 
ATOM     14  H13 UNL     1      45.731  22.949  54.457  1.00  0.00     0.275 HD
ATOM     15  H12 UNL     1      44.368  23.584  54.109  1.00  0.00     0.275 HD
ATOM     16  H11 UNL     1      44.364  21.959  54.583  1.00  0.00     0.275 HD
ENDBRANCH  10  13
ENDBRANCH   7  10
ENDBRANCH   5   6
ENDBRANCH   1   5
BRANCH   3  17
HETATM   17  C7  UNL     1      40.182  26.044  54.431  1.00  0.00     0.092 C 
HETATM   18  C8  UNL     1      40.766  26.258  55.799  1.00  0.00     0.009 C 
HETATM   19  C9  UNL     1      40.152  27.498  56.422  1.00  0.00     0.011 C 
HETATM   20  C13 UNL     1      40.473  25.101  56.729  1.00  0.00     0.011 C 
HETATM   21  C10 UNL     1      38.664  27.341  56.461  1.00  0.00    -0.013 C 
HETATM   22  C11 UNL     1      38.330  26.180  57.393  1.00  0.00     0.009 C 
HETATM   23  C16 UNL     1      38.057  27.009  55.122  1.00  0.00     0.011 C 
HETATM   24  C12 UNL     1      38.958  24.931  56.859  1.00  0.00    -0.013 C 
HETATM   25  C14 UNL     1      38.445  24.586  55.490  1.00  0.00     0.011 C 
HETATM   26  C15 UNL     1      38.696  25.741  54.577  1.00  0.00     0.009 C 
ENDBRANCH   3  17
TORSDOF 5
ENDMDL
MODEL 4
REMARK VINA RESULT: -5.805021490      2.113      6.401
REMARK  5 active torsions:
REMARK  status: ('A' for Active; 'I' for Inactive)
REMARK    1  A    between atoms: C2_2  and  N1_4 
REMARK    2  A    between atoms: C2_2  and  C4_8 
REMARK       I    between atoms: C4_8  and  N2_10 
REMARK    3  A    between atoms: N2_10  and  C5_12 
REMARK    4  A    between atoms: C5_12  and  C6_13 
REMARK       I    between atoms: C6_13  and  N3_15 
REMARK    5  A    between atoms: N3_15  and  C7_17 
ROOT
HETATM    1  C6  UNL     1      44.400  24.998  45.328  1.00  0.00     0.235 C 
HETATM    2  O2  UNL     1      44.567  23.734  45.369  1.00  0.00    -0.272 OA
HETATM    3  N3  UNL     1      45.459  25.844  44.925  1.00  0.00    -0.354 N 
ATOM      4  H3  UNL     1      45.327  26.855  44.892  1.00  0.00     0.162 HD
ENDROOT
BRANCH   1   5
HETATM    5  C5  UNL     1      43.101  25.611  45.699  1.00  0.00     0.225 C 
BRANCH   5   6
HETATM    6  N2  UNL     1      42.405  26.018  44.508  1.00  0.00    -0.350 N 
HETATM    7  C4  UNL     1      42.447  27.381  44.119  1.00  0.00     0.253 C 
HETATM    8  O1  UNL     1      43.084  28.209  44.807  1.00  0.00    -0.271 OA
ATOM      9  H2  UNL     1      41.888  25.337  43.952  1.00  0.00     0.163 HD
BRANCH   7  10
HETATM   10  C2  UNL     1      41.723  27.786  42.889  1.00  0.00     0.196 C 
HETATM   11  C1  UNL     1      42.244  29.144  42.478  1.00  0.00     0.056 C 
HETATM   12  C3  UNL     1      42.002  26.736  41.839  1.00  0.00     0.056 C 
BRANCH  10  13
HETATM   13  N1  UNL     1      40.308  27.859  43.118  1.00  0.00    -0.062 N 
ATOM     14  H13 UNL     1      39.988  27.147  43.775  1.00  0.00     0.275 HD
ATOM     15  H12 UNL     1      40.048  28.685  43.658  1.00  0.00     0.275 HD
ATOM     16  H11 UNL     1      39.812  27.811  42.228  1.00  0.00     0.275 HD
ENDBRANCH  10  13
ENDBRANCH   7  10
ENDBRANCH   5   6
ENDBRANCH   1   5
BRANCH   3  17
HETATM   17  C7  UNL     1      46.722  25.266  44.563  1.00  0.00     0.092 C 
HETATM   18  C8  UNL     1      47.681  25.290  45.720  1.00  0.00     0.009 C 
HETATM   19  C9  UNL     1      48.917  24.484  45.368  1.00  0.00     0.011 C 
HETATM   20  C13 UNL     1      48.143  26.694  46.045  1.00  0.00     0.011 C 
HETATM   21  C10 UNL     1      49.524  25.039  44.118  1.00  0.00    -0.013 C 
HETATM   22  C11 UNL     1      50.005  26.458  44.409  1.00  0.00     0.009 C 
HETATM   23  C16 UNL     1      48.555  25.138  42.968  1.00  0.00     0.011 C 
HETATM   24  C12 UNL     1      48.833  27.294  44.817  1.00  0.00    -0.013 C 
HETATM   25  C14 UNL     1      47.793  27.371  43.735  1.00  0.00     0.011 C 
HETATM   26  C15 UNL     1      47.362  25.985  43.383  1.00  0.00     0.009 C 
ENDBRANCH   3  17
TORSDOF 5
ENDMDL
MODEL 5
REMARK VINA RESULT: -5.794939100      2.263      7.120
REMARK  5 active torsions:
REMARK  status: ('A' for Active; 'I' for Inactive)
REMARK    1  A    between atoms: C2_2  and  N1_4 
REMARK    2  A    between atoms: C2_2  and  C4_8 
REMARK       I    between atoms: C4_8  and  N2_10 
REMARK    3  A    between atoms: N2_10  and  C5_12 
REMARK    4  A    between atoms: C5_12  and  C6_13 
REMARK       I    between atoms: C6_13  and  N3_15 
REMARK    5  A    between atoms: N3_15  and  C7_17 
ROOT
HETATM    1  C6  UNL     1      49.034  25.354  45.663  1.00  0.00     0.235 C 
HETATM    2  O2  UNL     1      49.224  24.097  45.769  1.00  0.00    -0.272 OA
HETATM    3  N3  UNL     1      49.787  26.113  44.738  1.00  0.00    -0.354 N 
ATOM      4  H3  UNL     1      49.636  27.118  44.652  1.00  0.00     0.162 HD
ENDROOT
BRANCH   1   5
HETATM    5  C5  UNL     1      48.026  26.048  46.500  1.00  0.00     0.225 C 
BRANCH   5   6
HETATM    6  N2  UNL     1      46.837  26.283  45.725  1.00  0.00    -0.350 N 
HETATM    7  C4  UNL     1      45.826  25.289  45.700  1.00  0.00     0.253 C 
HETATM    8  O1  UNL     1      45.974  24.228  46.345  1.00  0.00    -0.271 OA
ATOM      9  H2  UNL     1      46.723  27.150  45.201  1.00  0.00     0.163 HD
BRANCH   7  10
HETATM   10  C2  UNL     1      44.605  25.545  44.895  1.00  0.00     0.196 C 
HETATM   11  C1  UNL     1      43.521  24.624  45.403  1.00  0.00     0.056 C 
HETATM   12  C3  UNL     1      44.242  27.000  45.084  1.00  0.00     0.056 C 
BRANCH  10  13
HETATM   13  N1  UNL     1      44.840  25.295  43.501  1.00  0.00    -0.062 N 
ATOM     14  H13 UNL     1      44.819  26.152  42.947  1.00  0.00     0.275 HD
ATOM     15  H12 UNL     1      45.806  25.024  43.316  1.00  0.00     0.275 HD
ATOM     16  H11 UNL     1      44.175  24.601  43.159  1.00  0.00     0.275 HD
ENDBRANCH  10  13
ENDBRANCH   7  10
ENDBRANCH   5   6
ENDBRANCH   1   5
BRANCH   3  17
HETATM   17  C7  UNL     1      50.766  25.455  43.921  1.00  0.00     0.092 C 
HETATM   18  C8  UNL     1      51.904  26.379  43.588  1.00  0.00     0.009 C 
HETATM   19  C9  UNL     1      53.012  25.594  42.912  1.00  0.00     0.011 C 
HETATM   20  C13 UNL     1      51.486  27.473  42.629  1.00  0.00     0.011 C 
HETATM   21  C10 UNL     1      52.461  24.915  41.697  1.00  0.00    -0.013 C 
HETATM   22  C11 UNL     1      52.028  25.990  40.704  1.00  0.00     0.009 C 
HETATM   23  C16 UNL     1      51.244  24.071  41.977  1.00  0.00     0.011 C 
HETATM   24  C12 UNL     1      50.969  26.838  41.336  1.00  0.00    -0.013 C 
HETATM   25  C14 UNL     1      49.754  26.035  41.707  1.00  0.00     0.011 C 
HETATM   26  C15 UNL     1      50.168  24.931  42.622  1.00  0.00     0.009 C 
ENDBRANCH   3  17
TORSDOF 5
ENDMDL
