MODEL 1
REMARK VINA RESULT: -6.290616681      0.000      0.000
REMARK  2 active torsions:
REMARK  status: ('A' for Active; 'I' for Inactive)
REMARK    1  A    between atoms: C3_4  and  C4_5 
REMARK       I    between atoms: N2_11  and  C8_12 
REMARK       I    between atoms: C8_12  and  N4_18 
REMARK    2  A    between atoms: N3_13  and  C9_15 
REMARK       I    between atoms: N4_18  and  C12_20 
ROOT
HETATM    1  C1  UNL     1      19.573 -13.603  19.991  1.00  0.00     0.224 C 
HETATM    2  N1  UNL     1      18.475 -13.501  19.645  1.00  0.00    -0.444 NA
HETATM    3  C2  UNL     1      17.138 -13.388  19.203  1.00  0.00     0.293 C 
HETATM    4  C3  UNL     1      17.033 -13.644  17.737  1.00  0.00     0.143 C 
HETATM    5  C5  UNL     1      15.653 -14.169  17.408  1.00  0.00     0.022 C 
HETATM    6  C6  UNL     1      15.619 -15.617  17.908  1.00  0.00     0.022 C 
HETATM    7  C7  UNL     1      16.114 -15.668  19.333  1.00  0.00     0.145 C 
HETATM    8  N2  UNL     1      16.300 -14.345  19.893  1.00  0.00    -0.184 N 
HETATM    9  C8  UNL     1      15.651 -14.012  21.117  1.00  0.00     0.681 C 
HETATM   10  N3  UNL     1      14.384 -13.937  21.108  1.00  0.00    -0.222 N 
ATOM     11  H3  UNL     1      13.913 -14.122  20.222  1.00  0.00     0.178 HD
HETATM   12  N4  UNL     1      16.472 -13.790  22.250  1.00  0.00    -0.164 N 
ATOM     13  H4  UNL     1      16.755 -12.836  22.475  1.00  0.00     0.187 HD
HETATM   14  C12 UNL     1      16.913 -14.852  23.082  1.00  0.00     0.200 C 
HETATM   15  N5  UNL     1      16.241 -15.951  23.036  1.00  0.00    -0.373 N 
ATOM     16  H51 UNL     1      16.558 -16.714  23.634  1.00  0.00     0.158 HD
ATOM     17  H52 UNL     1      15.436 -16.001  22.412  1.00  0.00     0.158 HD
HETATM   18  N6  UNL     1      18.018 -14.783  23.939  1.00  0.00    -0.063 NA
ENDROOT
BRANCH   4  19
HETATM   19  C4  UNL     1      17.347 -12.462  16.906  1.00  0.00     0.181 C 
HETATM   20  O1  UNL     1      18.370 -12.341  16.211  1.00  0.00    -0.648 OA
HETATM   21  O2  UNL     1      16.430 -11.419  16.908  1.00  0.00    -0.648 OA
ENDBRANCH   4  19
BRANCH  10  22
HETATM   22  C9  UNL     1      13.552 -13.615  22.241  1.00  0.00     0.091 C 
HETATM   23  C10 UNL     1      13.101 -12.176  22.037  1.00  0.00     0.032 C 
HETATM   24  C11 UNL     1      12.306 -14.474  22.148  1.00  0.00     0.032 C 
ENDBRANCH  10  22
TORSDOF 2
ENDMDL
MODEL 2
REMARK VINA RESULT: -6.263830662      3.020      4.626
REMARK  2 active torsions:
REMARK  status: ('A' for Active; 'I' for Inactive)
REMARK    1  A    between atoms: C3_4  and  C4_5 
REMARK       I    between atoms: N2_11  and  C8_12 
REMARK       I    between atoms: C8_12  and  N4_18 
REMARK    2  A    between atoms: N3_13  and  C9_15 
REMARK       I    between atoms: N4_18  and  C12_20 
ROOT
HETATM    1  C1  UNL     1      20.691 -13.027  20.192  1.00  0.00     0.224 C 
HETATM    2  N1  UNL     1      19.764 -13.512  20.686  1.00  0.00    -0.444 NA
HETATM    3  C2  UNL     1      18.625 -14.111  21.268  1.00  0.00     0.293 C 
HETATM    4  C3  UNL     1      17.601 -14.436  20.233  1.00  0.00     0.143 C 
HETATM    5  C5  UNL     1      16.757 -15.602  20.698  1.00  0.00     0.022 C 
HETATM    6  C6  UNL     1      17.640 -16.847  20.563  1.00  0.00     0.022 C 
HETATM    7  C7  UNL     1      18.976 -16.588  21.214  1.00  0.00     0.145 C 
HETATM    8  N2  UNL     1      18.994 -15.336  21.943  1.00  0.00    -0.184 N 
HETATM    9  C8  UNL     1      19.376 -15.338  23.315  1.00  0.00     0.681 C 
HETATM   10  N3  UNL     1      18.606 -15.919  24.139  1.00  0.00    -0.222 N 
ATOM     11  H3  UNL     1      17.761 -16.349  23.762  1.00  0.00     0.178 HD
HETATM   12  N4  UNL     1      20.589 -14.689  23.655  1.00  0.00    -0.164 N 
ATOM     13  H4  UNL     1      20.560 -13.716  23.962  1.00  0.00     0.187 HD
HETATM   14  C12 UNL     1      21.844 -15.347  23.580  1.00  0.00     0.200 C 
HETATM   15  N5  UNL     1      21.832 -16.636  23.593  1.00  0.00    -0.373 N 
ATOM     16  H51 UNL     1      22.733 -17.110  23.540  1.00  0.00     0.158 HD
ATOM     17  H52 UNL     1      20.931 -17.112  23.655  1.00  0.00     0.158 HD
HETATM   18  N6  UNL     1      23.080 -14.695  23.495  1.00  0.00    -0.063 NA
ENDROOT
BRANCH   4  19
HETATM   19  C4  UNL     1      16.740 -13.289  19.870  1.00  0.00     0.181 C 
HETATM   20  O1  UNL     1      15.935 -13.284  18.923  1.00  0.00    -0.648 OA
HETATM   21  O2  UNL     1      16.846 -12.142  20.646  1.00  0.00    -0.648 OA
ENDBRANCH   4  19
BRANCH  10  22
HETATM   22  C9  UNL     1      18.820 -16.025  25.561  1.00  0.00     0.091 C 
HETATM   23  C10 UNL     1      17.454 -15.846  26.208  1.00  0.00     0.032 C 
HETATM   24  C11 UNL     1      19.249 -17.451  25.850  1.00  0.00     0.032 C 
ENDBRANCH  10  22
TORSDOF 2
ENDMDL
MODEL 3
REMARK VINA RESULT: -5.974288716      2.223      3.056
REMARK  2 active torsions:
REMARK  status: ('A' for Active; 'I' for Inactive)
REMARK    1  A    between atoms: C3_4  and  C4_5 
REMARK       I    between atoms: N2_11  and  C8_12 
REMARK       I    between atoms: C8_12  and  N4_18 
REMARK    2  A    between atoms: N3_13  and  C9_15 
REMARK       I    between atoms: N4_18  and  C12_20 
ROOT
HETATM    1  C1  UNL     1      18.009 -17.225  21.487  1.00  0.00     0.224 C 
HETATM    2  N1  UNL     1      17.743 -16.139  21.192  1.00  0.00    -0.444 NA
HETATM    3  C2  UNL     1      17.429 -14.816  20.811  1.00  0.00     0.293 C 
HETATM    4  C3  UNL     1      18.293 -14.362  19.682  1.00  0.00     0.143 C 
HETATM    5  C5  UNL     1      17.567 -13.308  18.876  1.00  0.00     0.022 C 
HETATM    6  C6  UNL     1      16.493 -14.049  18.074  1.00  0.00     0.022 C 
HETATM    7  C7  UNL     1      15.710 -14.950  18.997  1.00  0.00     0.145 C 
HETATM    8  N2  UNL     1      16.047 -14.731  20.389  1.00  0.00    -0.184 N 
HETATM    9  C8  UNL     1      15.008 -14.435  21.317  1.00  0.00     0.681 C 
HETATM   10  N3  UNL     1      14.403 -13.327  21.188  1.00  0.00    -0.222 N 
ATOM     11  H3  UNL     1      14.702 -12.720  20.424  1.00  0.00     0.178 HD
HETATM   12  N4  UNL     1      14.729 -15.402  22.314  1.00  0.00    -0.164 N 
ATOM     13  H4  UNL     1      15.176 -15.313  23.227  1.00  0.00     0.187 HD
HETATM   14  C12 UNL     1      13.850 -16.492  22.083  1.00  0.00     0.200 C 
HETATM   15  N5  UNL     1      13.007 -16.371  21.116  1.00  0.00    -0.373 N 
ATOM     16  H51 UNL     1      12.374 -17.153  20.950  1.00  0.00     0.158 HD
ATOM     17  H52 UNL     1      13.015 -15.508  20.571  1.00  0.00     0.158 HD
HETATM   18  N6  UNL     1      13.839 -17.676  22.831  1.00  0.00    -0.063 NA
ENDROOT
BRANCH   4  19
HETATM   19  C4  UNL     1      19.616 -13.862  20.113  1.00  0.00     0.181 C 
HETATM   20  O1  UNL     1      20.055 -13.941  21.273  1.00  0.00    -0.648 OA
HETATM   21  O2  UNL     1      20.416 -13.263  19.149  1.00  0.00    -0.648 OA
ENDBRANCH   4  19
BRANCH  10  22
HETATM   22  C9  UNL     1      13.330 -12.851  22.025  1.00  0.00     0.091 C 
HETATM   23  C10 UNL     1      13.387 -11.331  21.961  1.00  0.00     0.032 C 
HETATM   24  C11 UNL     1      12.026 -13.260  21.367  1.00  0.00     0.032 C 
ENDBRANCH  10  22
TORSDOF 2
ENDMDL
MODEL 4
REMARK VINA RESULT: -5.971012023      3.470      4.889
REMARK  2 active torsions:
REMARK  status: ('A' for Active; 'I' for Inactive)
REMARK    1  A    between atoms: C3_4  and  C4_5 
REMARK       I    between atoms: N2_11  and  C8_12 
REMARK       I    between atoms: C8_12  and  N4_18 
REMARK    2  A    between atoms: N3_13  and  C9_15 
REMARK       I    between atoms: N4_18  and  C12_20 
ROOT
HETATM    1  C1  UNL     1      16.851 -17.555  23.829  1.00  0.00     0.224 C 
HETATM    2  N1  UNL     1      17.022 -16.466  23.479  1.00  0.00    -0.444 NA
HETATM    3  C2  UNL     1      17.251 -15.142  23.044  1.00  0.00     0.293 C 
HETATM    4  C3  UNL     1      18.705 -14.895  22.819  1.00  0.00     0.143 C 
HETATM    5  C5  UNL     1      18.883 -13.808  21.781  1.00  0.00     0.022 C 
HETATM    6  C6  UNL     1      18.536 -14.447  20.432  1.00  0.00     0.022 C 
HETATM    7  C7  UNL     1      17.211 -15.162  20.542  1.00  0.00     0.145 C 
HETATM    8  N2  UNL     1      16.550 -14.894  21.802  1.00  0.00    -0.184 N 
HETATM    9  C8  UNL     1      15.217 -14.392  21.794  1.00  0.00     0.681 C 
HETATM   10  N3  UNL     1      15.034 -13.222  21.337  1.00  0.00    -0.222 N 
ATOM     11  H3  UNL     1      15.856 -12.718  21.005  1.00  0.00     0.178 HD
HETATM   12  N4  UNL     1      14.198 -15.238  22.296  1.00  0.00    -0.164 N 
ATOM     13  H4  UNL     1      13.919 -15.148  23.273  1.00  0.00     0.187 HD
HETATM   14  C12 UNL     1      13.553 -16.207  21.484  1.00  0.00     0.200 C 
HETATM   15  N5  UNL     1      13.615 -16.038  20.208  1.00  0.00    -0.373 N 
ATOM     16  H51 UNL     1      13.152 -16.734  19.624  1.00  0.00     0.158 HD
ATOM     17  H52 UNL     1      14.118 -15.225  19.850  1.00  0.00     0.158 HD
HETATM   18  N6  UNL     1      12.863 -17.322  21.974  1.00  0.00    -0.063 NA
ENDROOT
BRANCH   4  19
HETATM   19  C4  UNL     1      19.446 -14.555  24.052  1.00  0.00     0.181 C 
HETATM   20  O1  UNL     1      18.916 -14.337  25.155  1.00  0.00    -0.648 OA
HETATM   21  O2  UNL     1      20.829 -14.475  23.964  1.00  0.00    -0.648 OA
ENDBRANCH   4  19
BRANCH  10  22
HETATM   22  C9  UNL     1      13.765 -12.542  21.247  1.00  0.00     0.091 C 
HETATM   23  C10 UNL     1      14.043 -11.083  21.578  1.00  0.00     0.032 C 
HETATM   24  C11 UNL     1      13.333 -12.579  19.794  1.00  0.00     0.032 C 
ENDBRANCH  10  22
TORSDOF 2
ENDMDL
MODEL 5
REMARK VINA RESULT: -5.958028333      2.763      4.364
REMARK  2 active torsions:
REMARK  status: ('A' for Active; 'I' for Inactive)
REMARK    1  A    between atoms: C3_4  and  C4_5 
REMARK       I    between atoms: N2_11  and  C8_12 
REMARK       I    between atoms: C8_12  and  N4_18 
REMARK    2  A    between atoms: N3_13  and  C9_15 
REMARK       I    between atoms: N4_18  and  C12_20 
ROOT
HETATM    1  C1  UNL     1      17.613 -13.207  19.630  1.00  0.00     0.224 C 
HETATM    2  N1  UNL     1      16.901 -13.553  20.473  1.00  0.00    -0.444 NA
HETATM    3  C2  UNL     1      16.014 -13.975  21.489  1.00  0.00     0.293 C 
HETATM    4  C3  UNL     1      14.597 -13.706  21.110  1.00  0.00     0.143 C 
HETATM    5  C5  UNL     1      13.687 -14.694  21.806  1.00  0.00     0.022 C 
HETATM    6  C6  UNL     1      13.879 -16.031  21.085  1.00  0.00     0.022 C 
HETATM    7  C7  UNL     1      15.353 -16.332  20.970  1.00  0.00     0.145 C 
HETATM    8  N2  UNL     1      16.161 -15.395  21.723  1.00  0.00    -0.184 N 
HETATM    9  C8  UNL     1      17.088 -15.894  22.683  1.00  0.00     0.681 C 
HETATM   10  N3  UNL     1      16.616 -16.466  23.713  1.00  0.00    -0.222 N 
ATOM     11  H3  UNL     1      15.600 -16.531  23.784  1.00  0.00     0.178 HD
HETATM   12  N4  UNL     1      18.467 -15.712  22.414  1.00  0.00    -0.164 N 
ATOM     13  H4  UNL     1      18.943 -14.898  22.803  1.00  0.00     0.187 HD
HETATM   14  C12 UNL     1      19.207 -16.626  21.619  1.00  0.00     0.200 C 
HETATM   15  N5  UNL     1      18.723 -17.813  21.485  1.00  0.00    -0.373 N 
ATOM     16  H51 UNL     1      19.255 -18.470  20.914  1.00  0.00     0.158 HD
ATOM     17  H52 UNL     1      17.842 -18.033  21.951  1.00  0.00     0.158 HD
HETATM   18  N6  UNL     1      20.416 -16.324  20.979  1.00  0.00    -0.063 NA
ENDROOT
BRANCH   4  19
HETATM   19  C4  UNL     1      14.162 -12.320  21.388  1.00  0.00     0.181 C 
HETATM   20  O1  UNL     1      14.502 -11.328  20.721  1.00  0.00    -0.648 OA
HETATM   21  O2  UNL     1      13.317 -12.122  22.471  1.00  0.00    -0.648 OA
ENDBRANCH   4  19
BRANCH  10  22
HETATM   22  C9  UNL     1      17.389 -17.032  24.791  1.00  0.00     0.091 C 
HETATM   23  C10 UNL     1      17.436 -15.969  25.879  1.00  0.00     0.032 C 
HETATM   24  C11 UNL     1      16.595 -18.193  25.357  1.00  0.00     0.032 C 
ENDBRANCH  10  22
TORSDOF 2
ENDMDL
