MODEL 1
REMARK VINA RESULT: -6.152443679      0.000      0.000
REMARK  6 active torsions:
REMARK  status: ('A' for Active; 'I' for Inactive)
REMARK    1  A    between atoms: C2_2  and  C4_4 
REMARK    2  A    between atoms: C4_4  and  N1_5 
REMARK    3  A    between atoms: N1_5  and  C5_7 
REMARK    4  A    between atoms: C5_7  and  N2_9 
REMARK    5  A    between atoms: N2_9  and  N3_11 
REMARK       I    between atoms: N3_11  and  C6_13 
REMARK       I    between atoms: C6_13  and  N6_21 
REMARK       I    between atoms: N4_14  and  C7_16 
REMARK       I    between atoms: C7_16  and  N5_18 
REMARK    6  A    between atoms: N6_21  and  C10_23 
ROOT
HETATM    1  N3  UNL     1      15.494 -14.325  22.737  1.00  0.00    -0.130 N 
ATOM      2  H3  UNL     1      14.794 -14.464  23.467  1.00  0.00     0.205 HD
HETATM    3  C6  UNL     1      15.114 -14.017  21.378  1.00  0.00     0.696 C 
HETATM    4  N4  UNL     1      14.054 -13.356  21.187  1.00  0.00    -0.140 N 
ATOM      5  H4  UNL     1      13.830 -13.167  20.210  1.00  0.00     0.189 HD
HETATM    6  C7  UNL     1      13.145 -12.845  22.113  1.00  0.00     0.336 C 
HETATM    7  O1  UNL     1      12.524 -13.669  22.851  1.00  0.00    -0.246 OA
HETATM    8  N5  UNL     1      12.865 -11.463  22.286  1.00  0.00    -0.342 N 
HETATM    9  C8  UNL     1      13.549 -10.504  21.456  1.00  0.00     0.154 C 
HETATM   10  C9  UNL     1      11.909 -11.028  23.280  1.00  0.00     0.154 C 
HETATM   11  N6  UNL     1      15.961 -14.482  20.345  1.00  0.00    -0.225 N 
ATOM     12  H6  UNL     1      16.402 -15.401  20.397  1.00  0.00     0.177 HD
ENDROOT
BRANCH   1  13
HETATM   13  N2  UNL     1      16.846 -14.423  23.007  1.00  0.00    -0.262 N 
ATOM     14  H2  UNL     1      17.447 -13.614  22.852  1.00  0.00     0.190 HD
BRANCH  13  15
HETATM   15  C5  UNL     1      17.415 -15.631  23.497  1.00  0.00     0.187 C 
HETATM   16  S1  UNL     1      16.630 -17.063  23.210  1.00  0.00    -0.040 SA
BRANCH  15  17
HETATM   17  N1  UNL     1      18.631 -15.605  24.194  1.00  0.00    -0.362 N 
ATOM     18  H1  UNL     1      19.417 -16.157  23.852  1.00  0.00     0.162 HD
BRANCH  17  19
HETATM   19  C4  UNL     1      18.789 -14.809  25.388  1.00  0.00     0.155 C 
BRANCH  19  20
HETATM   20  C2  UNL     1      20.180 -14.351  25.498  1.00  0.00    -0.075 C 
HETATM   21  C1  UNL     1      21.099 -14.561  24.582  1.00  0.00     0.015 C 
HETATM   22  C3  UNL     1      20.535 -13.607  26.750  1.00  0.00     0.044 C 
ENDBRANCH  19  20
ENDBRANCH  17  19
ENDBRANCH  15  17
ENDBRANCH  13  15
ENDBRANCH   1  13
BRANCH  11  23
HETATM   23  C10 UNL     1      16.181 -13.609  19.213  1.00  0.00     0.134 C 
HETATM   24  C11 UNL     1      17.624 -13.420  18.874  1.00  0.00     0.027 C 
ENDBRANCH  11  23
TORSDOF 6
ENDMDL
MODEL 2
REMARK VINA RESULT: -6.082889246      8.941     12.483
REMARK  6 active torsions:
REMARK  status: ('A' for Active; 'I' for Inactive)
REMARK    1  A    between atoms: C2_2  and  C4_4 
REMARK    2  A    between atoms: C4_4  and  N1_5 
REMARK    3  A    between atoms: N1_5  and  C5_7 
REMARK    4  A    between atoms: C5_7  and  N2_9 
REMARK    5  A    between atoms: N2_9  and  N3_11 
REMARK       I    between atoms: N3_11  and  C6_13 
REMARK       I    between atoms: C6_13  and  N6_21 
REMARK       I    between atoms: N4_14  and  C7_16 
REMARK       I    between atoms: C7_16  and  N5_18 
REMARK    6  A    between atoms: N6_21  and  C10_23 
ROOT
HETATM    1  N3  UNL     1      12.789 -12.601  12.979  1.00  0.00    -0.130 N 
ATOM      2  H3  UNL     1      12.425 -12.449  13.920  1.00  0.00     0.205 HD
HETATM    3  C6  UNL     1      14.029 -11.999  12.546  1.00  0.00     0.696 C 
HETATM    4  N4  UNL     1      14.933 -11.801  13.407  1.00  0.00    -0.140 N 
ATOM      5  H4  UNL     1      15.786 -11.372  13.049  1.00  0.00     0.189 HD
HETATM    6  C7  UNL     1      14.937 -12.081  14.773  1.00  0.00     0.336 C 
HETATM    7  O1  UNL     1      14.082 -11.492  15.501  1.00  0.00    -0.246 OA
HETATM    8  N5  UNL     1      15.836 -12.981  15.405  1.00  0.00    -0.342 N 
HETATM    9  C8  UNL     1      16.823 -13.659  14.604  1.00  0.00     0.154 C 
HETATM   10  C9  UNL     1      15.758 -13.214  16.831  1.00  0.00     0.154 C 
HETATM   11  N6  UNL     1      14.147 -11.669  11.175  1.00  0.00    -0.225 N 
ATOM     12  H6  UNL     1      13.357 -11.285  10.655  1.00  0.00     0.177 HD
ENDROOT
BRANCH   1  13
HETATM   13  N2  UNL     1      12.119 -13.393  12.066  1.00  0.00    -0.262 N 
ATOM     14  H2  UNL     1      12.617 -13.745  11.248  1.00  0.00     0.190 HD
BRANCH  13  15
HETATM   15  C5  UNL     1      10.748 -13.726  12.244  1.00  0.00     0.187 C 
HETATM   16  S1  UNL     1      10.287 -15.315  12.141  1.00  0.00    -0.040 SA
BRANCH  15  17
HETATM   17  N1  UNL     1       9.810 -12.722  12.522  1.00  0.00    -0.362 N 
ATOM     18  H1  UNL     1       9.154 -12.848  13.293  1.00  0.00     0.162 HD
BRANCH  17  19
HETATM   19  C4  UNL     1       9.758 -11.513  11.735  1.00  0.00     0.155 C 
BRANCH  19  20
HETATM   20  C2  UNL     1       8.552 -11.520  10.897  1.00  0.00    -0.075 C 
HETATM   21  C1  UNL     1       8.551 -11.277   9.605  1.00  0.00     0.015 C 
HETATM   22  C3  UNL     1       7.261 -11.819  11.597  1.00  0.00     0.044 C 
ENDBRANCH  19  20
ENDBRANCH  17  19
ENDBRANCH  15  17
ENDBRANCH  13  15
ENDBRANCH   1  13
BRANCH  11  23
HETATM   23  C10 UNL     1      15.425 -11.896  10.537  1.00  0.00     0.134 C 
HETATM   24  C11 UNL     1      15.541 -13.238   9.890  1.00  0.00     0.027 C 
ENDBRANCH  11  23
TORSDOF 6
ENDMDL
MODEL 3
REMARK VINA RESULT: -6.000201315      1.752      2.286
REMARK  6 active torsions:
REMARK  status: ('A' for Active; 'I' for Inactive)
REMARK    1  A    between atoms: C2_2  and  C4_4 
REMARK    2  A    between atoms: C4_4  and  N1_5 
REMARK    3  A    between atoms: N1_5  and  C5_7 
REMARK    4  A    between atoms: C5_7  and  N2_9 
REMARK    5  A    between atoms: N2_9  and  N3_11 
REMARK       I    between atoms: N3_11  and  C6_13 
REMARK       I    between atoms: C6_13  and  N6_21 
REMARK       I    between atoms: N4_14  and  C7_16 
REMARK       I    between atoms: C7_16  and  N5_18 
REMARK    6  A    between atoms: N6_21  and  C10_23 
ROOT
HETATM    1  N3  UNL     1      15.166 -14.311  22.586  1.00  0.00    -0.130 N 
ATOM      2  H3  UNL     1      14.543 -14.423  23.386  1.00  0.00     0.205 HD
HETATM    3  C6  UNL     1      14.656 -13.980  21.275  1.00  0.00     0.696 C 
HETATM    4  N4  UNL     1      13.612 -13.272  21.199  1.00  0.00    -0.140 N 
ATOM      5  H4  UNL     1      13.293 -13.069  20.252  1.00  0.00     0.189 HD
HETATM    6  C7  UNL     1      12.830 -12.728  22.217  1.00  0.00     0.336 C 
HETATM    7  O1  UNL     1      12.257 -13.528  23.017  1.00  0.00    -0.246 OA
HETATM    8  N5  UNL     1      12.631 -11.335  22.420  1.00  0.00    -0.342 N 
HETATM    9  C8  UNL     1      13.263 -10.403  21.522  1.00  0.00     0.154 C 
HETATM   10  C9  UNL     1      11.807 -10.864  23.511  1.00  0.00     0.154 C 
HETATM   11  N6  UNL     1      15.367 -14.475  20.157  1.00  0.00    -0.225 N 
ATOM     12  H6  UNL     1      15.770 -15.413  20.161  1.00  0.00     0.177 HD
ENDROOT
BRANCH   1  13
HETATM   13  N2  UNL     1      16.534 -14.469  22.709  1.00  0.00    -0.262 N 
ATOM     14  H2  UNL     1      17.119 -13.651  22.878  1.00  0.00     0.190 HD
BRANCH  13  15
HETATM   15  C5  UNL     1      17.141 -15.751  22.605  1.00  0.00     0.187 C 
HETATM   16  S1  UNL     1      16.254 -17.094  23.002  1.00  0.00    -0.040 SA
BRANCH  15  17
HETATM   17  N1  UNL     1      18.463 -15.869  22.154  1.00  0.00    -0.362 N 
ATOM     18  H1  UNL     1      19.143 -16.374  22.723  1.00  0.00     0.162 HD
BRANCH  17  19
HETATM   19  C4  UNL     1      18.878 -15.289  20.900  1.00  0.00     0.155 C 
BRANCH  19  20
HETATM   20  C2  UNL     1      20.051 -14.432  21.114  1.00  0.00    -0.075 C 
HETATM   21  C1  UNL     1      20.795 -14.459  22.198  1.00  0.00     0.015 C 
HETATM   22  C3  UNL     1      20.385 -13.477  20.008  1.00  0.00     0.044 C 
ENDBRANCH  19  20
ENDBRANCH  17  19
ENDBRANCH  15  17
ENDBRANCH  13  15
ENDBRANCH   1  13
BRANCH  11  23
HETATM   23  C10 UNL     1      15.502 -13.607  19.008  1.00  0.00     0.134 C 
HETATM   24  C11 UNL     1      16.861 -13.645  18.387  1.00  0.00     0.027 C 
ENDBRANCH  11  23
TORSDOF 6
ENDMDL
MODEL 4
REMARK VINA RESULT: -5.957071199      1.875      2.058
REMARK  6 active torsions:
REMARK  status: ('A' for Active; 'I' for Inactive)
REMARK    1  A    between atoms: C2_2  and  C4_4 
REMARK    2  A    between atoms: C4_4  and  N1_5 
REMARK    3  A    between atoms: N1_5  and  C5_7 
REMARK    4  A    between atoms: C5_7  and  N2_9 
REMARK    5  A    between atoms: N2_9  and  N3_11 
REMARK       I    between atoms: N3_11  and  C6_13 
REMARK       I    between atoms: C6_13  and  N6_21 
REMARK       I    between atoms: N4_14  and  C7_16 
REMARK       I    between atoms: C7_16  and  N5_18 
REMARK    6  A    between atoms: N6_21  and  C10_23 
ROOT
HETATM    1  N3  UNL     1      15.795 -12.984  21.711  1.00  0.00    -0.130 N 
ATOM      2  H3  UNL     1      15.485 -13.151  22.669  1.00  0.00     0.205 HD
HETATM    3  C6  UNL     1      14.898 -13.148  20.590  1.00  0.00     0.696 C 
HETATM    4  N4  UNL     1      13.669 -12.912  20.767  1.00  0.00    -0.140 N 
ATOM      5  H4  UNL     1      13.080 -13.045  19.944  1.00  0.00     0.189 HD
HETATM    6  C7  UNL     1      12.999 -12.500  21.917  1.00  0.00     0.336 C 
HETATM    7  O1  UNL     1      13.018 -13.270  22.924  1.00  0.00    -0.246 OA
HETATM    8  N5  UNL     1      12.292 -11.273  22.038  1.00  0.00    -0.342 N 
HETATM    9  C8  UNL     1      12.245 -10.381  20.907  1.00  0.00     0.154 C 
HETATM   10  C9  UNL     1      11.631 -10.927  23.277  1.00  0.00     0.154 C 
HETATM   11  N6  UNL     1      15.463 -13.563  19.362  1.00  0.00    -0.225 N 
ATOM     12  H6  UNL     1      16.209 -14.260  19.332  1.00  0.00     0.177 HD
ENDROOT
BRANCH   1  13
HETATM   13  N2  UNL     1      17.090 -12.591  21.431  1.00  0.00    -0.262 N 
ATOM     14  H2  UNL     1      17.257 -11.671  21.025  1.00  0.00     0.190 HD
BRANCH  13  15
HETATM   15  C5  UNL     1      18.194 -13.447  21.698  1.00  0.00     0.187 C 
HETATM   16  S1  UNL     1      19.418 -13.552  20.584  1.00  0.00    -0.040 SA
BRANCH  15  17
HETATM   17  N1  UNL     1      18.248 -14.174  22.895  1.00  0.00    -0.362 N 
ATOM     18  H1  UNL     1      17.382 -14.504  23.321  1.00  0.00     0.162 HD
BRANCH  17  19
HETATM   19  C4  UNL     1      19.509 -14.464  23.535  1.00  0.00     0.155 C 
BRANCH  19  20
HETATM   20  C2  UNL     1      19.321 -14.535  24.990  1.00  0.00    -0.075 C 
HETATM   21  C1  UNL     1      18.374 -15.233  25.577  1.00  0.00     0.015 C 
HETATM   22  C3  UNL     1      20.285 -13.745  25.822  1.00  0.00     0.044 C 
ENDBRANCH  19  20
ENDBRANCH  17  19
ENDBRANCH  15  17
ENDBRANCH  13  15
ENDBRANCH   1  13
BRANCH  11  23
HETATM   23  C10 UNL     1      14.948 -12.967  18.149  1.00  0.00     0.134 C 
HETATM   24  C11 UNL     1      15.799 -13.223  16.948  1.00  0.00     0.027 C 
ENDBRANCH  11  23
TORSDOF 6
ENDMDL
MODEL 5
REMARK VINA RESULT: -5.873389493      4.081      6.586
REMARK  6 active torsions:
REMARK  status: ('A' for Active; 'I' for Inactive)
REMARK    1  A    between atoms: C2_2  and  C4_4 
REMARK    2  A    between atoms: C4_4  and  N1_5 
REMARK    3  A    between atoms: N1_5  and  C5_7 
REMARK    4  A    between atoms: C5_7  and  N2_9 
REMARK    5  A    between atoms: N2_9  and  N3_11 
REMARK       I    between atoms: N3_11  and  C6_13 
REMARK       I    between atoms: C6_13  and  N6_21 
REMARK       I    between atoms: N4_14  and  C7_16 
REMARK       I    between atoms: C7_16  and  N5_18 
REMARK    6  A    between atoms: N6_21  and  C10_23 
ROOT
HETATM    1  N3  UNL     1      14.286 -12.507  19.576  1.00  0.00    -0.130 N 
ATOM      2  H3  UNL     1      13.830 -11.781  19.023  1.00  0.00     0.205 HD
HETATM    3  C6  UNL     1      14.798 -13.711  18.962  1.00  0.00     0.696 C 
HETATM    4  N4  UNL     1      15.226 -13.642  17.775  1.00  0.00    -0.140 N 
ATOM      5  H4  UNL     1      15.575 -14.520  17.389  1.00  0.00     0.189 HD
HETATM    6  C7  UNL     1      15.293 -12.548  16.915  1.00  0.00     0.336 C 
HETATM    7  O1  UNL     1      14.204 -11.991  16.578  1.00  0.00    -0.246 OA
HETATM    8  N5  UNL     1      16.499 -12.012  16.387  1.00  0.00    -0.342 N 
HETATM    9  C8  UNL     1      17.750 -12.629  16.746  1.00  0.00     0.154 C 
HETATM   10  C9  UNL     1      16.468 -10.867  15.505  1.00  0.00     0.154 C 
HETATM   11  N6  UNL     1      14.785 -14.892  19.740  1.00  0.00    -0.225 N 
ATOM     12  H6  UNL     1      14.003 -15.108  20.360  1.00  0.00     0.177 HD
ENDROOT
BRANCH   1  13
HETATM   13  N2  UNL     1      14.440 -12.381  20.944  1.00  0.00    -0.262 N 
ATOM     14  H2  UNL     1      15.377 -12.396  21.345  1.00  0.00     0.190 HD
BRANCH  13  15
HETATM   15  C5  UNL     1      13.316 -12.230  21.802  1.00  0.00     0.187 C 
HETATM   16  S1  UNL     1      12.400 -13.562  22.168  1.00  0.00    -0.040 SA
BRANCH  15  17
HETATM   17  N1  UNL     1      13.006 -10.974  22.341  1.00  0.00    -0.362 N 
ATOM     18  H1  UNL     1      13.760 -10.333  22.588  1.00  0.00     0.162 HD
BRANCH  17  19
HETATM   19  C4  UNL     1      11.635 -10.570  22.551  1.00  0.00     0.155 C 
BRANCH  19  20
HETATM   20  C2  UNL     1      11.409 -10.309  23.978  1.00  0.00    -0.075 C 
HETATM   21  C1  UNL     1      11.663  -9.162  24.567  1.00  0.00     0.015 C 
HETATM   22  C3  UNL     1      10.858 -11.450  24.780  1.00  0.00     0.044 C 
ENDBRANCH  19  20
ENDBRANCH  17  19
ENDBRANCH  15  17
ENDBRANCH  13  15
ENDBRANCH   1  13
BRANCH  11  23
HETATM   23  C10 UNL     1      15.918 -15.784  19.625  1.00  0.00     0.134 C 
HETATM   24  C11 UNL     1      17.097 -15.362  20.440  1.00  0.00     0.027 C 
ENDBRANCH  11  23
TORSDOF 6
ENDMDL
