MODEL 1
REMARK VINA RESULT: -7.213242226      0.000      0.000
REMARK  4 active torsions:
REMARK  status: ('A' for Active; 'I' for Inactive)
REMARK    1  A    between atoms: C2_2  and  C4_4 
REMARK    2  A    between atoms: C4_4  and  C5_5 
REMARK    3  A    between atoms: C5_5  and  N1_6 
REMARK       I    between atoms: N1_6  and  C6_8 
REMARK       I    between atoms: C6_8  and  N2_10 
REMARK       I    between atoms: N3_12  and  C8_14 
REMARK       I    between atoms: C8_14  and  N5_18 
REMARK    4  A    between atoms: N5_18  and  N6_20 
ROOT
HETATM    1  N1  UNL     1      13.582 -13.760  21.740  1.00  0.00    -0.343 N 
ATOM      2  H1  UNL     1      14.198 -14.197  22.425  1.00  0.00     0.164 HD
HETATM    3  C6  UNL     1      14.021 -13.469  20.402  1.00  0.00     0.324 C 
HETATM    4  O1  UNL     1      13.177 -12.917  19.602  1.00  0.00    -0.247 OA
HETATM    5  N2  UNL     1      15.302 -13.743  19.900  1.00  0.00    -0.275 N 
HETATM    6  C7  UNL     1      15.802 -13.480  18.546  1.00  0.00     0.106 C 
HETATM    7  N3  UNL     1      15.622 -12.598  17.647  1.00  0.00    -0.179 N 
ATOM      8  H3  UNL     1      14.973 -11.834  17.835  1.00  0.00     0.185 HD
HETATM    9  C8  UNL     1      16.281 -12.633  16.404  1.00  0.00     0.693 C 
HETATM   10  N4  UNL     1      17.224 -11.793  16.095  1.00  0.00    -0.233 N 
ATOM     11  H41 UNL     1      17.702 -11.819  15.195  1.00  0.00     0.174 HD
ATOM     12  H42 UNL     1      17.474 -11.097  16.797  1.00  0.00     0.174 HD
HETATM   13  N5  UNL     1      15.934 -13.601  15.429  1.00  0.00    -0.118 N 
ATOM     14  H5  UNL     1      15.261 -13.342  14.708  1.00  0.00     0.207 HD
HETATM   15  C9  UNL     1      16.623 -14.709  18.696  1.00  0.00     0.111 C 
HETATM   16  C10 UNL     1      16.549 -14.262  20.185  1.00  0.00     0.078 C 
HETATM   17  C11 UNL     1      17.722 -13.351  20.514  1.00  0.00     0.137 C 
HETATM   18  C12 UNL     1      18.817 -14.395  20.550  1.00  0.00     0.220 C 
HETATM   19  O2  UNL     1      20.045 -14.139  20.578  1.00  0.00    -0.274 OA
HETATM   20  N8  UNL     1      18.228 -15.712  20.548  1.00  0.00    -0.354 N 
ATOM     21  H8  UNL     1      18.639 -16.603  20.271  1.00  0.00     0.162 HD
HETATM   22  C13 UNL     1      16.850 -15.421  21.063  1.00  0.00     0.110 C 
HETATM   23  C14 UNL     1      17.079 -15.097  22.513  1.00  0.00     0.035 C 
ENDROOT
BRANCH   1  24
HETATM   24  C5  UNL     1      12.225 -13.399  22.062  1.00  0.00     0.125 C 
BRANCH  24  25
HETATM   25  C4  UNL     1      12.024 -12.585  23.278  1.00  0.00     0.023 C 
BRANCH  25  26
HETATM   26  C2  UNL     1      11.937 -11.107  23.111  1.00  0.00    -0.021 C 
HETATM   27  C1  UNL     1      11.427 -10.405  24.353  1.00  0.00     0.009 C 
HETATM   28  C3  UNL     1      13.121 -10.426  22.522  1.00  0.00     0.009 C 
ENDBRANCH  25  26
ENDBRANCH  24  25
ENDBRANCH   1  24
BRANCH  13  29
HETATM   29  N6  UNL     1      16.465 -14.888  15.404  1.00  0.00    -0.235 N 
HETATM   30  N7  UNL     1      16.504 -15.549  14.337  1.00  0.00    -0.330 N 
ATOM     31  H72 UNL     1      16.138 -15.124  13.486  1.00  0.00     0.178 HD
ATOM     32  H71 UNL     1      16.893 -16.492  14.319  1.00  0.00     0.178 HD
ATOM     33  H6  UNL     1      16.827 -15.299  16.264  1.00  0.00     0.208 HD
ENDBRANCH  13  29
TORSDOF 4
ENDMDL
MODEL 2
REMARK VINA RESULT: -7.001343656      3.281      5.759
REMARK  4 active torsions:
REMARK  status: ('A' for Active; 'I' for Inactive)
REMARK    1  A    between atoms: C2_2  and  C4_4 
REMARK    2  A    between atoms: C4_4  and  C5_5 
REMARK    3  A    between atoms: C5_5  and  N1_6 
REMARK       I    between atoms: N1_6  and  C6_8 
REMARK       I    between atoms: C6_8  and  N2_10 
REMARK       I    between atoms: N3_12  and  C8_14 
REMARK       I    between atoms: C8_14  and  N5_18 
REMARK    4  A    between atoms: N5_18  and  N6_20 
ROOT
HETATM    1  N1  UNL     1      15.447 -12.935  21.094  1.00  0.00    -0.343 N 
ATOM      2  H1  UNL     1      16.290 -12.526  20.691  1.00  0.00     0.164 HD
HETATM    3  C6  UNL     1      15.486 -14.156  21.852  1.00  0.00     0.324 C 
HETATM    4  O1  UNL     1      14.374 -14.601  22.326  1.00  0.00    -0.247 OA
HETATM    5  N2  UNL     1      16.644 -14.902  22.115  1.00  0.00    -0.275 N 
HETATM    6  C7  UNL     1      16.746 -16.144  22.888  1.00  0.00     0.106 C 
HETATM    7  N3  UNL     1      16.022 -17.170  23.093  1.00  0.00    -0.179 N 
ATOM      8  H3  UNL     1      15.112 -17.224  22.636  1.00  0.00     0.185 HD
HETATM    9  C8  UNL     1      16.424 -18.232  23.924  1.00  0.00     0.693 C 
HETATM   10  N4  UNL     1      16.763 -19.394  23.448  1.00  0.00    -0.233 N 
ATOM     11  H41 UNL     1      17.055 -20.164  24.050  1.00  0.00     0.174 HD
ATOM     12  H42 UNL     1      16.727 -19.510  22.436  1.00  0.00     0.174 HD
HETATM   13  N5  UNL     1      16.475 -18.071  25.331  1.00  0.00    -0.118 N 
ATOM     14  H5  UNL     1      15.668 -18.364  25.881  1.00  0.00     0.207 HD
HETATM   15  C9  UNL     1      18.085 -15.670  23.325  1.00  0.00     0.111 C 
HETATM   16  C10 UNL     1      18.009 -14.988  21.928  1.00  0.00     0.078 C 
HETATM   17  C11 UNL     1      18.599 -15.906  20.868  1.00  0.00     0.137 C 
HETATM   18  C12 UNL     1      20.063 -15.748  21.220  1.00  0.00     0.220 C 
HETATM   19  O2  UNL     1      20.986 -16.469  20.772  1.00  0.00    -0.274 OA
HETATM   20  N8  UNL     1      20.221 -14.648  22.141  1.00  0.00    -0.354 N 
ATOM     21  H8  UNL     1      20.980 -14.458  22.796  1.00  0.00     0.162 HD
HETATM   22  C13 UNL     1      18.973 -13.859  21.879  1.00  0.00     0.110 C 
HETATM   23  C14 UNL     1      19.212 -13.267  20.518  1.00  0.00     0.035 C 
ENDROOT
BRANCH   1  24
HETATM   24  C5  UNL     1      14.155 -12.320  20.934  1.00  0.00     0.125 C 
BRANCH  24  25
HETATM   25  C4  UNL     1      13.842 -11.189  21.832  1.00  0.00     0.023 C 
BRANCH  25  26
HETATM   26  C2  UNL     1      12.444 -11.077  22.337  1.00  0.00    -0.021 C 
HETATM   27  C1  UNL     1      11.758 -12.422  22.469  1.00  0.00     0.009 C 
HETATM   28  C3  UNL     1      12.227 -10.212  23.528  1.00  0.00     0.009 C 
ENDBRANCH  25  26
ENDBRANCH  24  25
ENDBRANCH   1  24
BRANCH  13  29
HETATM   29  N6  UNL     1      17.570 -17.533  26.001  1.00  0.00    -0.235 N 
HETATM   30  N7  UNL     1      17.488 -16.426  26.588  1.00  0.00    -0.330 N 
ATOM     31  H72 UNL     1      16.599 -15.926  26.563  1.00  0.00     0.178 HD
ATOM     32  H71 UNL     1      18.290 -16.032  27.079  1.00  0.00     0.178 HD
ATOM     33  H6  UNL     1      18.452 -18.046  26.016  1.00  0.00     0.208 HD
ENDBRANCH  13  29
TORSDOF 4
ENDMDL
MODEL 3
REMARK VINA RESULT: -6.686226180      2.277      6.624
REMARK  4 active torsions:
REMARK  status: ('A' for Active; 'I' for Inactive)
REMARK    1  A    between atoms: C2_2  and  C4_4 
REMARK    2  A    between atoms: C4_4  and  C5_5 
REMARK    3  A    between atoms: C5_5  and  N1_6 
REMARK       I    between atoms: N1_6  and  C6_8 
REMARK       I    between atoms: C6_8  and  N2_10 
REMARK       I    between atoms: N3_12  and  C8_14 
REMARK       I    between atoms: C8_14  and  N5_18 
REMARK    4  A    between atoms: N5_18  and  N6_20 
ROOT
HETATM    1  N1  UNL     1      17.259 -13.476  17.109  1.00  0.00    -0.343 N 
ATOM      2  H1  UNL     1      18.162 -13.738  17.504  1.00  0.00     0.164 HD
HETATM    3  C6  UNL     1      16.084 -13.347  17.928  1.00  0.00     0.324 C 
HETATM    4  O1  UNL     1      14.984 -13.010  17.349  1.00  0.00    -0.247 OA
HETATM    5  N2  UNL     1      16.044 -13.559  19.314  1.00  0.00    -0.275 N 
HETATM    6  C7  UNL     1      14.882 -13.432  20.201  1.00  0.00     0.106 C 
HETATM    7  N3  UNL     1      13.628 -13.632  20.119  1.00  0.00    -0.179 N 
ATOM      8  H3  UNL     1      13.244 -13.972  19.238  1.00  0.00     0.185 HD
HETATM    9  C8  UNL     1      12.749 -13.404  21.195  1.00  0.00     0.693 C 
HETATM   10  N4  UNL     1      12.185 -14.377  21.847  1.00  0.00    -0.233 N 
ATOM     11  H41 UNL     1      11.549 -14.212  22.627  1.00  0.00     0.174 HD
ATOM     12  H42 UNL     1      12.406 -15.326  21.548  1.00  0.00     0.174 HD
HETATM   13  N5  UNL     1      12.443 -12.084  21.611  1.00  0.00    -0.118 N 
ATOM     14  H5  UNL     1      11.601 -11.644  21.242  1.00  0.00     0.207 HD
HETATM   15  C9  UNL     1      15.829 -12.967  21.246  1.00  0.00     0.111 C 
HETATM   16  C10 UNL     1      16.774 -13.901  20.435  1.00  0.00     0.078 C 
HETATM   17  C11 UNL     1      16.725 -15.312  21.003  1.00  0.00     0.137 C 
HETATM   18  C12 UNL     1      17.522 -15.075  22.268  1.00  0.00     0.220 C 
HETATM   19  O2  UNL     1      17.606 -15.887  23.220  1.00  0.00    -0.274 OA
HETATM   20  N8  UNL     1      18.161 -13.783  22.200  1.00  0.00    -0.354 N 
ATOM     21  H8  UNL     1      18.505 -13.192  22.957  1.00  0.00     0.162 HD
HETATM   22  C13 UNL     1      18.186 -13.541  20.720  1.00  0.00     0.110 C 
HETATM   23  C14 UNL     1      19.219 -14.515  20.224  1.00  0.00     0.035 C 
ENDROOT
BRANCH   1  24
HETATM   24  C5  UNL     1      17.091 -13.216  15.703  1.00  0.00     0.125 C 
BRANCH  24  25
HETATM   25  C4  UNL     1      16.897 -14.391  14.828  1.00  0.00     0.023 C 
BRANCH  25  26
HETATM   26  C2  UNL     1      17.142 -14.212  13.370  1.00  0.00    -0.021 C 
HETATM   27  C1  UNL     1      16.894 -12.792  12.902  1.00  0.00     0.009 C 
HETATM   28  C3  UNL     1      18.409 -14.772  12.827  1.00  0.00     0.009 C 
ENDBRANCH  25  26
ENDBRANCH  24  25
ENDBRANCH   1  24
BRANCH  13  29
HETATM   29  N6  UNL     1      13.233 -11.359  22.499  1.00  0.00    -0.235 N 
HETATM   30  N7  UNL     1      13.780 -10.285  22.147  1.00  0.00    -0.330 N 
ATOM     31  H72 UNL     1      13.634  -9.953  21.194  1.00  0.00     0.178 HD
ATOM     32  H71 UNL     1      14.359  -9.753  22.797  1.00  0.00     0.178 HD
ATOM     33  H6  UNL     1      13.369 -11.705  23.449  1.00  0.00     0.208 HD
ENDBRANCH  13  29
TORSDOF 4
ENDMDL
MODEL 4
REMARK VINA RESULT: -6.543498197      3.463      7.287
REMARK  4 active torsions:
REMARK  status: ('A' for Active; 'I' for Inactive)
REMARK    1  A    between atoms: C2_2  and  C4_4 
REMARK    2  A    between atoms: C4_4  and  C5_5 
REMARK    3  A    between atoms: C5_5  and  N1_6 
REMARK       I    between atoms: N1_6  and  C6_8 
REMARK       I    between atoms: C6_8  and  N2_10 
REMARK       I    between atoms: N3_12  and  C8_14 
REMARK       I    between atoms: C8_14  and  N5_18 
REMARK    4  A    between atoms: N5_18  and  N6_20 
ROOT
HETATM    1  N1  UNL     1      16.338 -17.179  16.849  1.00  0.00    -0.343 N 
ATOM      2  H1  UNL     1      16.663 -16.824  15.950  1.00  0.00     0.164 HD
HETATM    3  C6  UNL     1      15.997 -16.297  17.932  1.00  0.00     0.324 C 
HETATM    4  O1  UNL     1      15.594 -16.830  19.033  1.00  0.00    -0.247 OA
HETATM    5  N2  UNL     1      16.068 -14.897  17.882  1.00  0.00    -0.275 N 
HETATM    6  C7  UNL     1      15.724 -13.949  18.947  1.00  0.00     0.106 C 
HETATM    7  N3  UNL     1      15.786 -13.920  20.217  1.00  0.00    -0.179 N 
ATOM      8  H3  UNL     1      16.163 -14.732  20.707  1.00  0.00     0.185 HD
HETATM    9  C8  UNL     1      15.356 -12.816  20.976  1.00  0.00     0.693 C 
HETATM   10  N4  UNL     1      16.191 -12.026  21.585  1.00  0.00    -0.233 N 
ATOM     11  H41 UNL     1      15.880 -11.226  22.135  1.00  0.00     0.174 HD
ATOM     12  H42 UNL     1      17.184 -12.240  21.493  1.00  0.00     0.174 HD
HETATM   13  N5  UNL     1      13.977 -12.519  21.104  1.00  0.00    -0.118 N 
ATOM     14  H5  UNL     1      13.480 -12.872  21.922  1.00  0.00     0.207 HD
HETATM   15  C9  UNL     1      15.272 -13.027  17.873  1.00  0.00     0.111 C 
HETATM   16  C10 UNL     1      16.382 -13.801  17.103  1.00  0.00     0.078 C 
HETATM   17  C11 UNL     1      17.717 -13.086  17.256  1.00  0.00     0.137 C 
HETATM   18  C12 UNL     1      17.453 -11.913  16.337  1.00  0.00     0.220 C 
HETATM   19  O2  UNL     1      18.173 -10.889  16.263  1.00  0.00    -0.274 OA
HETATM   20  N8  UNL     1      16.255 -12.160  15.572  1.00  0.00    -0.354 N 
ATOM     21  H8  UNL     1      15.636 -11.496  15.106  1.00  0.00     0.162 HD
HETATM   22  C13 UNL     1      16.161 -13.655  15.642  1.00  0.00     0.110 C 
HETATM   23  C14 UNL     1      17.289 -14.119  14.763  1.00  0.00     0.035 C 
ENDROOT
BRANCH   1  24
HETATM   24  C5  UNL     1      16.197 -18.589  17.102  1.00  0.00     0.125 C 
BRANCH  24  25
HETATM   25  C4  UNL     1      16.594 -19.503  16.011  1.00  0.00     0.023 C 
BRANCH  25  26
HETATM   26  C2  UNL     1      17.923 -19.282  15.375  1.00  0.00    -0.021 C 
HETATM   27  C1  UNL     1      18.865 -20.454  15.560  1.00  0.00     0.009 C 
HETATM   28  C3  UNL     1      17.923 -18.770  13.978  1.00  0.00     0.009 C 
ENDBRANCH  25  26
ENDBRANCH  24  25
ENDBRANCH   1  24
BRANCH  13  29
HETATM   29  N6  UNL     1      13.264 -11.770  20.171  1.00  0.00    -0.235 N 
HETATM   30  N7  UNL     1      12.977 -10.568  20.392  1.00  0.00    -0.330 N 
ATOM     31  H72 UNL     1      13.278 -10.148  21.271  1.00  0.00     0.178 HD
ATOM     32  H71 UNL     1      12.455 -10.019  19.708  1.00  0.00     0.178 HD
ATOM     33  H6  UNL     1      12.971 -12.205  19.297  1.00  0.00     0.208 HD
ENDBRANCH  13  29
TORSDOF 4
ENDMDL
MODEL 5
REMARK VINA RESULT: -6.521859064      4.448      7.447
REMARK  4 active torsions:
REMARK  status: ('A' for Active; 'I' for Inactive)
REMARK    1  A    between atoms: C2_2  and  C4_4 
REMARK    2  A    between atoms: C4_4  and  C5_5 
REMARK    3  A    between atoms: C5_5  and  N1_6 
REMARK       I    between atoms: N1_6  and  C6_8 
REMARK       I    between atoms: C6_8  and  N2_10 
REMARK       I    between atoms: N3_12  and  C8_14 
REMARK       I    between atoms: C8_14  and  N5_18 
REMARK    4  A    between atoms: N5_18  and  N6_20 
ROOT
HETATM    1  N1  UNL     1      17.859 -13.342  15.988  1.00  0.00    -0.343 N 
ATOM      2  H1  UNL     1      18.589 -13.884  15.525  1.00  0.00     0.164 HD
HETATM    3  C6  UNL     1      16.651 -12.961  15.309  1.00  0.00     0.324 C 
HETATM    4  O1  UNL     1      15.782 -12.279  15.970  1.00  0.00    -0.247 OA
HETATM    5  N2  UNL     1      16.345 -13.277  13.976  1.00  0.00    -0.275 N 
HETATM    6  C7  UNL     1      15.128 -12.927  13.236  1.00  0.00     0.106 C 
HETATM    7  N3  UNL     1      14.308 -11.956  13.208  1.00  0.00    -0.179 N 
ATOM      8  H3  UNL     1      14.462 -11.167  13.838  1.00  0.00     0.185 HD
HETATM    9  C8  UNL     1      13.195 -11.923  12.347  1.00  0.00     0.693 C 
HETATM   10  N4  UNL     1      13.137 -11.127  11.320  1.00  0.00    -0.233 N 
ATOM     11  H41 UNL     1      12.331 -11.103  10.696  1.00  0.00     0.174 HD
ATOM     12  H42 UNL     1      13.939 -10.518  11.158  1.00  0.00     0.174 HD
HETATM   13  N5  UNL     1      12.081 -12.769  12.571  1.00  0.00    -0.118 N 
ATOM     14  H5  UNL     1      11.289 -12.397  13.095  1.00  0.00     0.207 HD
HETATM   15  C9  UNL     1      15.286 -14.220  12.521  1.00  0.00     0.111 C 
HETATM   16  C10 UNL     1      16.780 -13.909  12.828  1.00  0.00     0.078 C 
HETATM   17  C11 UNL     1      17.392 -13.117  11.682  1.00  0.00     0.137 C 
HETATM   18  C12 UNL     1      17.503 -14.235  10.668  1.00  0.00     0.220 C 
HETATM   19  O2  UNL     1      17.762 -14.071   9.451  1.00  0.00    -0.274 OA
HETATM   20  N8  UNL     1      17.267 -15.501  11.318  1.00  0.00    -0.354 N 
ATOM     21  H8  UNL     1      16.972 -16.390  10.914  1.00  0.00     0.162 HD
HETATM   22  C13 UNL     1      17.571 -15.162  12.747  1.00  0.00     0.110 C 
HETATM   23  C14 UNL     1      19.064 -14.991  12.756  1.00  0.00     0.035 C 
ENDROOT
BRANCH   1  24
HETATM   24  C5  UNL     1      17.985 -12.917  17.358  1.00  0.00     0.125 C 
BRANCH  24  25
HETATM   25  C4  UNL     1      17.696 -13.928  18.397  1.00  0.00     0.023 C 
BRANCH  25  26
HETATM   26  C2  UNL     1      18.638 -14.023  19.547  1.00  0.00    -0.021 C 
HETATM   27  C1  UNL     1      20.084 -13.826  19.140  1.00  0.00     0.009 C 
HETATM   28  C3  UNL     1      18.284 -13.253  20.770  1.00  0.00     0.009 C 
ENDBRANCH  25  26
ENDBRANCH  24  25
ENDBRANCH   1  24
BRANCH  13  29
HETATM   29  N6  UNL     1      12.013 -14.082  12.115  1.00  0.00    -0.235 N 
HETATM   30  N7  UNL     1      11.304 -14.935  12.705  1.00  0.00    -0.330 N 
ATOM     31  H72 UNL     1      10.778 -14.645  13.529  1.00  0.00     0.178 HD
ATOM     32  H71 UNL     1      11.254 -15.897  12.371  1.00  0.00     0.178 HD
ATOM     33  H6  UNL     1      12.546 -14.356  11.290  1.00  0.00     0.208 HD
ENDBRANCH  13  29
TORSDOF 4
ENDMDL
