MODEL 1
REMARK VINA RESULT: -7.446247646      0.000      0.000
REMARK  3 active torsions:
REMARK  status: ('A' for Active; 'I' for Inactive)
REMARK       I    between atoms: N1_2  and  C2_4 
REMARK       I    between atoms: C2_4  and  N6_23 
REMARK       I    between atoms: N2_5  and  C3_7 
REMARK       I    between atoms: C3_7  and  N3_9 
REMARK    1  A    between atoms: N3_9  and  C4_11 
REMARK    2  A    between atoms: C7_14  and  C9_16 
REMARK    3  A    between atoms: C9_16  and  N4_17 
REMARK       I    between atoms: N4_17  and  C10_19 
ROOT
HETATM    1  C1  UNL     1      18.780 -18.914  21.439  1.00  0.00     0.165 C 
HETATM    2  N1  UNL     1      18.999 -17.942  22.487  1.00  0.00    -0.230 N 
ATOM      3  H1  UNL     1      19.579 -18.197  23.286  1.00  0.00     0.177 HD
HETATM    4  C2  UNL     1      18.429 -16.637  22.434  1.00  0.00     0.680 C 
HETATM    5  N2  UNL     1      17.153 -16.502  22.340  1.00  0.00    -0.142 N 
ATOM      6  H2  UNL     1      16.552 -17.325  22.302  1.00  0.00     0.189 HD
HETATM    7  C3  UNL     1      16.591 -15.214  22.288  1.00  0.00     0.334 C 
HETATM    8  O1  UNL     1      16.686 -14.468  23.288  1.00  0.00    -0.246 OA
HETATM    9  N3  UNL     1      15.929 -14.784  21.111  1.00  0.00    -0.338 N 
ATOM     10  H3  UNL     1      15.858 -15.403  20.303  1.00  0.00     0.164 HD
HETATM   11  N6  UNL     1      19.227 -15.462  22.482  1.00  0.00    -0.212 N 
HETATM   12  C12 UNL     1      19.832 -15.036  23.727  1.00  0.00     0.185 C 
HETATM   13  C13 UNL     1      21.286 -14.936  23.484  1.00  0.00     0.075 C 
HETATM   14  N7  UNL     1      21.709 -14.645  22.326  1.00  0.00    -0.399 N 
ATOM     15  H7  UNL     1      22.721 -14.591  22.217  1.00  0.00     0.158 HD
HETATM   16  C14 UNL     1      20.943 -14.385  21.166  1.00  0.00     0.139 C 
HETATM   17  C15 UNL     1      19.469 -14.650  21.310  1.00  0.00     0.161 C 
ENDROOT
BRANCH   9  18
HETATM   18  C4  UNL     1      15.360 -13.469  21.070  1.00  0.00     0.087 C 
HETATM   19  C5  UNL     1      14.767 -13.169  19.731  1.00  0.00     0.026 C 
HETATM   20  C6  UNL     1      13.405 -12.570  19.948  1.00  0.00     0.013 C 
HETATM   21  C7  UNL     1      13.415 -12.197  21.392  1.00  0.00    -0.026 C 
HETATM   22  C8  UNL     1      14.238 -10.956  21.583  1.00  0.00     0.017 C 
HETATM   23  C11 UNL     1      14.164 -13.351  22.024  1.00  0.00     0.036 C 
BRANCH  21  24
HETATM   24  C9  UNL     1      12.023 -12.055  21.970  1.00  0.00     0.133 C 
BRANCH  24  25
HETATM   25  N4  UNL     1      11.916 -10.821  22.715  1.00  0.00    -0.345 N 
HETATM   26  C10 UNL     1      11.524 -10.841  24.067  1.00  0.00     0.328 C 
HETATM   27  N5  UNL     1      11.417  -9.640  24.803  1.00  0.00    -0.040 NA
HETATM   28  O2  UNL     1      11.264 -11.921  24.640  1.00  0.00    -0.251 OA
ATOM     29  H4  UNL     1      12.126  -9.932  22.260  1.00  0.00     0.163 HD
ENDBRANCH  24  25
ENDBRANCH  21  24
ENDBRANCH   9  18
TORSDOF 3
ENDMDL
MODEL 2
REMARK VINA RESULT: -7.096348040      2.260      3.896
REMARK  3 active torsions:
REMARK  status: ('A' for Active; 'I' for Inactive)
REMARK       I    between atoms: N1_2  and  C2_4 
REMARK       I    between atoms: C2_4  and  N6_23 
REMARK       I    between atoms: N2_5  and  C3_7 
REMARK       I    between atoms: C3_7  and  N3_9 
REMARK    1  A    between atoms: N3_9  and  C4_11 
REMARK    2  A    between atoms: C7_14  and  C9_16 
REMARK    3  A    between atoms: C9_16  and  N4_17 
REMARK       I    between atoms: N4_17  and  C10_19 
ROOT
HETATM    1  C1  UNL     1      23.549 -14.335  24.450  1.00  0.00     0.165 C 
HETATM    2  N1  UNL     1      23.120 -15.581  23.855  1.00  0.00    -0.230 N 
ATOM      3  H1  UNL     1      23.762 -16.374  23.849  1.00  0.00     0.177 HD
HETATM    4  C2  UNL     1      21.827 -15.733  23.278  1.00  0.00     0.680 C 
HETATM    5  N2  UNL     1      21.458 -14.953  22.324  1.00  0.00    -0.142 N 
ATOM      6  H2  UNL     1      22.089 -14.228  21.982  1.00  0.00     0.189 HD
HETATM    7  C3  UNL     1      20.182 -15.104  21.754  1.00  0.00     0.334 C 
HETATM    8  O1  UNL     1      19.918 -16.150  21.120  1.00  0.00    -0.246 OA
HETATM    9  N3  UNL     1      19.220 -14.075  21.906  1.00  0.00    -0.338 N 
ATOM     10  H3  UNL     1      19.448 -13.227  22.424  1.00  0.00     0.164 HD
HETATM   11  N6  UNL     1      20.915 -16.729  23.721  1.00  0.00    -0.212 N 
HETATM   12  C12 UNL     1      21.121 -18.120  23.376  1.00  0.00     0.185 C 
HETATM   13  C13 UNL     1      21.173 -18.873  24.646  1.00  0.00     0.075 C 
HETATM   14  N7  UNL     1      20.521 -18.456  25.648  1.00  0.00    -0.399 N 
ATOM     15  H7  UNL     1      20.595 -19.016  26.498  1.00  0.00     0.158 HD
HETATM   16  C14 UNL     1      19.702 -17.306  25.730  1.00  0.00     0.139 C 
HETATM   17  C15 UNL     1      19.757 -16.405  24.526  1.00  0.00     0.161 C 
ENDROOT
BRANCH   9  18
HETATM   18  C4  UNL     1      17.921 -14.240  21.320  1.00  0.00     0.087 C 
HETATM   19  C5  UNL     1      16.993 -14.964  22.240  1.00  0.00     0.026 C 
HETATM   20  C6  UNL     1      15.688 -14.217  22.268  1.00  0.00     0.013 C 
HETATM   21  C7  UNL     1      15.779 -13.314  21.085  1.00  0.00    -0.026 C 
HETATM   22  C8  UNL     1      15.555 -14.107  19.830  1.00  0.00     0.017 C 
HETATM   23  C11 UNL     1      17.231 -12.885  21.110  1.00  0.00     0.036 C 
BRANCH  21  24
HETATM   24  C9  UNL     1      14.847 -12.125  21.183  1.00  0.00     0.133 C 
BRANCH  24  25
HETATM   25  N4  UNL     1      13.669 -12.476  21.943  1.00  0.00    -0.345 N 
HETATM   26  C10 UNL     1      12.972 -11.489  22.666  1.00  0.00     0.328 C 
HETATM   27  N5  UNL     1      11.819 -11.823  23.411  1.00  0.00    -0.040 NA
HETATM   28  O2  UNL     1      13.360 -10.301  22.661  1.00  0.00    -0.251 OA
ATOM     29  H4  UNL     1      13.340 -13.442  21.955  1.00  0.00     0.163 HD
ENDBRANCH  24  25
ENDBRANCH  21  24
ENDBRANCH   9  18
TORSDOF 3
ENDMDL
MODEL 3
REMARK VINA RESULT: -7.004075018      1.813      3.422
REMARK  3 active torsions:
REMARK  status: ('A' for Active; 'I' for Inactive)
REMARK       I    between atoms: N1_2  and  C2_4 
REMARK       I    between atoms: C2_4  and  N6_23 
REMARK       I    between atoms: N2_5  and  C3_7 
REMARK       I    between atoms: C3_7  and  N3_9 
REMARK    1  A    between atoms: N3_9  and  C4_11 
REMARK    2  A    between atoms: C7_14  and  C9_16 
REMARK    3  A    between atoms: C9_16  and  N4_17 
REMARK       I    between atoms: N4_17  and  C10_19 
ROOT
HETATM    1  C1  UNL     1      22.696 -14.753  24.532  1.00  0.00     0.165 C 
HETATM    2  N1  UNL     1      22.457 -15.624  23.402  1.00  0.00    -0.230 N 
ATOM      3  H1  UNL     1      23.207 -16.237  23.082  1.00  0.00     0.177 HD
HETATM    4  C2  UNL     1      21.205 -15.650  22.724  1.00  0.00     0.680 C 
HETATM    5  N2  UNL     1      20.736 -14.569  22.208  1.00  0.00    -0.142 N 
ATOM      6  H2  UNL     1      21.259 -13.696  22.285  1.00  0.00     0.189 HD
HETATM    7  C3  UNL     1      19.500 -14.595  21.538  1.00  0.00     0.334 C 
HETATM    8  O1  UNL     1      19.396 -15.251  20.478  1.00  0.00    -0.246 OA
HETATM    9  N3  UNL     1      18.398 -13.881  22.071  1.00  0.00    -0.338 N 
ATOM     10  H3  UNL     1      18.497 -13.350  22.936  1.00  0.00     0.164 HD
HETATM   11  N6  UNL     1      20.442 -16.842  22.593  1.00  0.00    -0.212 N 
HETATM   12  C12 UNL     1      20.850 -17.877  21.665  1.00  0.00     0.185 C 
HETATM   13  C13 UNL     1      20.998 -19.120  22.450  1.00  0.00     0.075 C 
HETATM   14  N7  UNL     1      20.284 -19.299  23.480  1.00  0.00    -0.399 N 
ATOM     15  H7  UNL     1      20.430 -20.175  23.982  1.00  0.00     0.158 HD
HETATM   16  C14 UNL     1      19.307 -18.430  24.017  1.00  0.00     0.139 C 
HETATM   17  C15 UNL     1      19.242 -17.074  23.367  1.00  0.00     0.161 C 
ENDROOT
BRANCH   9  18
HETATM   18  C4  UNL     1      17.143 -13.915  21.380  1.00  0.00     0.087 C 
HETATM   19  C5  UNL     1      16.148 -14.775  22.090  1.00  0.00     0.026 C 
HETATM   20  C6  UNL     1      14.849 -14.021  22.163  1.00  0.00     0.013 C 
HETATM   21  C7  UNL     1      15.027 -12.923  21.170  1.00  0.00    -0.026 C 
HETATM   22  C8  UNL     1      14.887 -13.475  19.781  1.00  0.00     0.017 C 
HETATM   23  C11 UNL     1      16.476 -12.533  21.369  1.00  0.00     0.036 C 
BRANCH  21  24
HETATM   24  C9  UNL     1      14.098 -11.754  21.417  1.00  0.00     0.133 C 
BRANCH  24  25
HETATM   25  N4  UNL     1      13.017 -12.151  22.290  1.00  0.00    -0.345 N 
HETATM   26  C10 UNL     1      12.430 -11.214  23.163  1.00  0.00     0.328 C 
HETATM   27  N5  UNL     1      11.373 -11.594  24.019  1.00  0.00    -0.040 NA
HETATM   28  O2  UNL     1      12.833 -10.032  23.193  1.00  0.00    -0.251 OA
ATOM     29  H4  UNL     1      12.679 -13.113  22.275  1.00  0.00     0.163 HD
ENDBRANCH  24  25
ENDBRANCH  21  24
ENDBRANCH   9  18
TORSDOF 3
ENDMDL
MODEL 4
REMARK VINA RESULT: -6.833585355      3.142      8.205
REMARK  3 active torsions:
REMARK  status: ('A' for Active; 'I' for Inactive)
REMARK       I    between atoms: N1_2  and  C2_4 
REMARK       I    between atoms: C2_4  and  N6_23 
REMARK       I    between atoms: N2_5  and  C3_7 
REMARK       I    between atoms: C3_7  and  N3_9 
REMARK    1  A    between atoms: N3_9  and  C4_11 
REMARK    2  A    between atoms: C7_14  and  C9_16 
REMARK    3  A    between atoms: C9_16  and  N4_17 
REMARK       I    between atoms: N4_17  and  C10_19 
ROOT
HETATM    1  C1  UNL     1      16.049 -15.500  18.183  1.00  0.00     0.165 C 
HETATM    2  N1  UNL     1      15.999 -14.182  18.775  1.00  0.00    -0.230 N 
ATOM      3  H1  UNL     1      15.589 -13.415  18.241  1.00  0.00     0.177 HD
HETATM    4  C2  UNL     1      16.503 -13.923  20.082  1.00  0.00     0.680 C 
HETATM    5  N2  UNL     1      17.733 -14.185  20.354  1.00  0.00    -0.142 N 
ATOM      6  H2  UNL     1      18.344 -14.577  19.637  1.00  0.00     0.189 HD
HETATM    7  C3  UNL     1      18.231 -13.929  21.644  1.00  0.00     0.334 C 
HETATM    8  O1  UNL     1      18.301 -12.747  22.046  1.00  0.00    -0.246 OA
HETATM    9  N3  UNL     1      18.644 -15.010  22.463  1.00  0.00    -0.338 N 
ATOM     10  H3  UNL     1      18.582 -15.969  22.123  1.00  0.00     0.164 HD
HETATM   11  N6  UNL     1      15.689 -13.379  21.111  1.00  0.00    -0.212 N 
HETATM   12  C12 UNL     1      15.315 -11.980  21.090  1.00  0.00     0.185 C 
HETATM   13  C13 UNL     1      13.839 -11.931  21.126  1.00  0.00     0.075 C 
HETATM   14  N7  UNL     1      13.196 -12.853  21.710  1.00  0.00    -0.399 N 
ATOM     15  H7  UNL     1      12.180 -12.766  21.703  1.00  0.00     0.158 HD
HETATM   16  C14 UNL     1      13.720 -13.987  22.372  1.00  0.00     0.139 C 
HETATM   17  C15 UNL     1      15.203 -14.184  22.211  1.00  0.00     0.161 C 
ENDROOT
BRANCH   9  18
HETATM   18  C4  UNL     1      19.150 -14.737  23.776  1.00  0.00     0.087 C 
HETATM   19  C5  UNL     1      18.683 -15.754  24.767  1.00  0.00     0.026 C 
HETATM   20  C6  UNL     1      19.868 -16.188  25.583  1.00  0.00     0.013 C 
HETATM   21  C7  UNL     1      20.891 -15.141  25.296  1.00  0.00    -0.026 C 
HETATM   22  C8  UNL     1      20.549 -13.887  26.047  1.00  0.00     0.017 C 
HETATM   23  C11 UNL     1      20.678 -14.871  23.822  1.00  0.00     0.036 C 
BRANCH  21  24
HETATM   24  C9  UNL     1      22.303 -15.609  25.577  1.00  0.00     0.133 C 
BRANCH  24  25
HETATM   25  N4  UNL     1      22.447 -15.950  26.974  1.00  0.00    -0.345 N 
HETATM   26  C10 UNL     1      23.029 -17.176  27.348  1.00  0.00     0.328 C 
HETATM   27  N5  UNL     1      23.175 -17.517  28.711  1.00  0.00    -0.040 NA
HETATM   28  O2  UNL     1      23.428 -17.983  26.481  1.00  0.00    -0.251 OA
ATOM     29  H4  UNL     1      22.126 -15.300  27.692  1.00  0.00     0.163 HD
ENDBRANCH  24  25
ENDBRANCH  21  24
ENDBRANCH   9  18
TORSDOF 3
ENDMDL
MODEL 5
REMARK VINA RESULT: -6.828966967      1.680      1.911
REMARK  3 active torsions:
REMARK  status: ('A' for Active; 'I' for Inactive)
REMARK       I    between atoms: N1_2  and  C2_4 
REMARK       I    between atoms: C2_4  and  N6_23 
REMARK       I    between atoms: N2_5  and  C3_7 
REMARK       I    between atoms: C3_7  and  N3_9 
REMARK    1  A    between atoms: N3_9  and  C4_11 
REMARK    2  A    between atoms: C7_14  and  C9_16 
REMARK    3  A    between atoms: C9_16  and  N4_17 
REMARK       I    between atoms: N4_17  and  C10_19 
ROOT
HETATM    1  C1  UNL     1      20.030 -19.170  23.884  1.00  0.00     0.165 C 
HETATM    2  N1  UNL     1      20.037 -17.954  24.668  1.00  0.00    -0.230 N 
ATOM      3  H1  UNL     1      20.489 -17.956  25.582  1.00  0.00     0.177 HD
HETATM    4  C2  UNL     1      19.429 -16.754  24.199  1.00  0.00     0.680 C 
HETATM    5  N2  UNL     1      18.181 -16.750  23.887  1.00  0.00    -0.142 N 
ATOM      6  H2  UNL     1      17.628 -17.603  23.975  1.00  0.00     0.189 HD
HETATM    7  C3  UNL     1      17.582 -15.565  23.425  1.00  0.00     0.334 C 
HETATM    8  O1  UNL     1      17.482 -14.590  24.202  1.00  0.00    -0.246 OA
HETATM    9  N3  UNL     1      17.102 -15.495  22.093  1.00  0.00    -0.338 N 
ATOM     10  H3  UNL     1      17.189 -16.298  21.470  1.00  0.00     0.164 HD
HETATM   11  N6  UNL     1      20.159 -15.543  24.060  1.00  0.00    -0.212 N 
HETATM   12  C12 UNL     1      20.537 -14.775  25.228  1.00  0.00     0.185 C 
HETATM   13  C13 UNL     1      22.005 -14.620  25.183  1.00  0.00     0.075 C 
HETATM   14  N7  UNL     1      22.597 -14.591  24.064  1.00  0.00    -0.399 N 
ATOM     15  H7  UNL     1      23.611 -14.483  24.094  1.00  0.00     0.158 HD
HETATM   16  C14 UNL     1      22.020 -14.689  22.777  1.00  0.00     0.139 C 
HETATM   17  C15 UNL     1      20.554 -15.029  22.766  1.00  0.00     0.161 C 
ENDROOT
BRANCH   9  18
HETATM   18  C4  UNL     1      16.493 -14.282  21.632  1.00  0.00     0.087 C 
HETATM   19  C5  UNL     1      16.389 -14.251  20.142  1.00  0.00     0.026 C 
HETATM   20  C6  UNL     1      14.999 -13.805  19.781  1.00  0.00     0.013 C 
HETATM   21  C7  UNL     1      14.476 -13.233  21.055  1.00  0.00    -0.026 C 
HETATM   22  C8  UNL     1      15.090 -11.884  21.290  1.00  0.00     0.017 C 
HETATM   23  C11 UNL     1      15.033 -14.183  22.094  1.00  0.00     0.036 C 
BRANCH  21  24
HETATM   24  C9  UNL     1      12.963 -13.188  21.099  1.00  0.00     0.133 C 
BRANCH  24  25
HETATM   25  N4  UNL     1      12.507 -13.038  22.462  1.00  0.00    -0.345 N 
HETATM   26  C10 UNL     1      11.862 -11.854  22.868  1.00  0.00     0.328 C 
HETATM   27  N5  UNL     1      11.412 -11.700  24.198  1.00  0.00    -0.040 NA
HETATM   28  O2  UNL     1      11.675 -10.921  22.058  1.00  0.00    -0.251 OA
ATOM     29  H4  UNL     1      12.653 -13.793  23.133  1.00  0.00     0.163 HD
ENDBRANCH  24  25
ENDBRANCH  21  24
ENDBRANCH   9  18
TORSDOF 3
ENDMDL
