MODEL 1
REMARK VINA RESULT: -7.272448868      0.000      0.000
REMARK  7 active torsions:
REMARK  status: ('A' for Active; 'I' for Inactive)
REMARK    1  A    between atoms: C3_4  and  N2_5 
REMARK    2  A    between atoms: N2_5  and  C4_7 
REMARK    3  A    between atoms: C4_7  and  C5_11 
REMARK    4  A    between atoms: C5_11  and  N4_12 
REMARK    5  A    between atoms: C5_11  and  N5_16 
REMARK       I    between atoms: N5_16  and  C6_18 
REMARK       I    between atoms: C6_18  and  N6_20 
REMARK    6  A    between atoms: N6_20  and  N7_22 
REMARK    7  A    between atoms: C7_27  and  N9_28 
ROOT
HETATM    1  C4  UNL     1      14.301 -13.754  21.126  1.00  0.00     0.122 C 
HETATM    2  N3  UNL     1      14.714 -13.986  22.320  1.00  0.00    -0.386 N 
ATOM      3  H31 UNL     1      14.050 -14.018  23.094  1.00  0.00     0.157 HD
ATOM      4  H32 UNL     1      15.719 -14.112  22.438  1.00  0.00     0.157 HD
ENDROOT
BRANCH   1   5
HETATM    5  N2  UNL     1      15.211 -13.710  20.066  1.00  0.00    -0.366 N 
ATOM      6  H2  UNL     1      15.075 -12.903  19.456  1.00  0.00     0.161 HD
BRANCH   5   7
HETATM    7  C3  UNL     1      16.263 -14.531  19.660  1.00  0.00     0.154 C 
HETATM    8  C2  UNL     1      16.138 -14.686  18.143  1.00  0.00     0.085 C 
HETATM    9  N1  UNL     1      17.017 -13.966  17.572  1.00  0.00    -0.393 N 
HETATM   10  C1  UNL     1      17.207 -13.857  16.154  1.00  0.00     0.148 C 
HETATM   11  C14 UNL     1      17.823 -13.237  18.542  1.00  0.00     0.157 C 
HETATM   12  C7  UNL     1      17.672 -14.169  19.732  1.00  0.00     0.235 C 
BRANCH  12  13
HETATM   13  N9  UNL     1      18.345 -13.823  20.897  1.00  0.00    -0.063 N 
HETATM   14  C8  UNL     1      17.956 -12.526  21.463  1.00  0.00     0.273 C 
HETATM   15  C9  UNL     1      18.212 -14.770  21.950  1.00  0.00     0.237 C 
HETATM   16  C10 UNL     1      19.103 -15.961  21.915  1.00  0.00     0.028 C 
HETATM   17  C11 UNL     1      20.550 -15.658  21.617  1.00  0.00     0.003 C 
HETATM   18  C12 UNL     1      20.544 -14.844  20.336  1.00  0.00     0.028 C 
HETATM   19  C13 UNL     1      19.769 -13.612  20.583  1.00  0.00     0.237 C 
ENDBRANCH  12  13
ENDBRANCH   5   7
ENDBRANCH   1   5
BRANCH   1  20
HETATM   20  C5  UNL     1      12.838 -13.570  20.955  1.00  0.00     0.353 C 
BRANCH  20  21
HETATM   21  N4  UNL     1      12.226 -14.740  20.338  1.00  0.00    -0.051 N 
ATOM     22  H43 UNL     1      11.388 -14.490  19.813  1.00  0.00     0.277 HD
ATOM     23  H42 UNL     1      12.793 -15.097  19.570  1.00  0.00     0.277 HD
ATOM     24  H41 UNL     1      12.031 -15.464  21.029  1.00  0.00     0.277 HD
ENDBRANCH  20  21
BRANCH  20  25
HETATM   25  N5  UNL     1      12.174 -13.457  22.266  1.00  0.00    -0.308 N 
HETATM   26  C6  UNL     1      11.801 -12.236  22.840  1.00  0.00     0.337 C 
HETATM   27  O1  UNL     1      12.039 -11.172  22.218  1.00  0.00    -0.245 OA
HETATM   28  N6  UNL     1      11.174 -12.210  24.088  1.00  0.00    -0.237 N 
ATOM     29  H6  UNL     1      10.987 -13.083  24.584  1.00  0.00     0.193 HD
ATOM     30  H5  UNL     1      11.975 -14.315  22.782  1.00  0.00     0.166 HD
BRANCH  28  31
HETATM   31  N7  UNL     1      10.799 -10.976  24.665  1.00  0.00    -0.245 N 
HETATM   32  N8  UNL     1      11.680 -10.080  24.839  1.00  0.00    -0.331 N 
ATOM     33  H82 UNL     1      12.643 -10.264  24.559  1.00  0.00     0.178 HD
ATOM     34  H81 UNL     1      11.409  -9.189  25.255  1.00  0.00     0.178 HD
ATOM     35  H7  UNL     1       9.831 -10.808  24.939  1.00  0.00     0.208 HD
ENDBRANCH  28  31
ENDBRANCH  20  25
ENDBRANCH   1  20
TORSDOF 7
ENDMDL
MODEL 2
REMARK VINA RESULT: -7.039946856      1.632      2.109
REMARK  7 active torsions:
REMARK  status: ('A' for Active; 'I' for Inactive)
REMARK    1  A    between atoms: C3_4  and  N2_5 
REMARK    2  A    between atoms: N2_5  and  C4_7 
REMARK    3  A    between atoms: C4_7  and  C5_11 
REMARK    4  A    between atoms: C5_11  and  N4_12 
REMARK    5  A    between atoms: C5_11  and  N5_16 
REMARK       I    between atoms: N5_16  and  C6_18 
REMARK       I    between atoms: C6_18  and  N6_20 
REMARK    6  A    between atoms: N6_20  and  N7_22 
REMARK    7  A    between atoms: C7_27  and  N9_28 
ROOT
HETATM    1  C4  UNL     1      14.659 -12.280  20.925  1.00  0.00     0.122 C 
HETATM    2  N3  UNL     1      15.142 -11.093  21.016  1.00  0.00    -0.386 N 
ATOM      3  H31 UNL     1      14.567 -10.287  20.772  1.00  0.00     0.157 HD
ATOM      4  H32 UNL     1      16.113 -11.019  21.318  1.00  0.00     0.157 HD
ENDROOT
BRANCH   1   5
HETATM    5  N2  UNL     1      15.447 -13.386  21.259  1.00  0.00    -0.366 N 
ATOM      6  H2  UNL     1      15.689 -13.419  22.250  1.00  0.00     0.161 HD
BRANCH   5   7
HETATM    7  C3  UNL     1      15.975 -14.452  20.531  1.00  0.00     0.154 C 
HETATM    8  C2  UNL     1      16.063 -13.988  19.076  1.00  0.00     0.085 C 
HETATM    9  N1  UNL     1      17.274 -13.725  18.790  1.00  0.00    -0.393 N 
HETATM   10  C1  UNL     1      17.745 -13.264  17.515  1.00  0.00     0.148 C 
HETATM   11  C14 UNL     1      18.151 -13.937  19.934  1.00  0.00     0.157 C 
HETATM   12  C7  UNL     1      17.328 -14.970  20.683  1.00  0.00     0.235 C 
BRANCH  12  13
HETATM   13  N9  UNL     1      17.860 -15.469  21.866  1.00  0.00    -0.063 N 
HETATM   14  C8  UNL     1      18.548 -14.470  22.692  1.00  0.00     0.273 C 
HETATM   15  C9  UNL     1      16.907 -16.097  22.715  1.00  0.00     0.237 C 
HETATM   16  C10 UNL     1      16.543 -17.506  22.409  1.00  0.00     0.028 C 
HETATM   17  C11 UNL     1      17.713 -18.412  22.119  1.00  0.00     0.003 C 
HETATM   18  C12 UNL     1      18.507 -17.720  21.025  1.00  0.00     0.028 C 
HETATM   19  C13 UNL     1      18.947 -16.409  21.543  1.00  0.00     0.237 C 
ENDBRANCH  12  13
ENDBRANCH   5   7
ENDBRANCH   1   5
BRANCH   1  20
HETATM   20  C5  UNL     1      13.246 -12.389  20.485  1.00  0.00     0.353 C 
BRANCH  20  21
HETATM   21  N4  UNL     1      12.760 -13.758  20.595  1.00  0.00    -0.051 N 
ATOM     22  H43 UNL     1      13.077 -14.332  19.813  1.00  0.00     0.277 HD
ATOM     23  H42 UNL     1      13.220 -14.258  21.355  1.00  0.00     0.277 HD
ATOM     24  H41 UNL     1      11.745 -13.785  20.691  1.00  0.00     0.277 HD
ENDBRANCH  20  21
BRANCH  20  25
HETATM   25  N5  UNL     1      12.365 -11.615  21.378  1.00  0.00    -0.308 N 
HETATM   26  C6  UNL     1      12.207 -11.896  22.740  1.00  0.00     0.337 C 
HETATM   27  O1  UNL     1      12.843 -12.854  23.242  1.00  0.00    -0.245 OA
HETATM   28  N6  UNL     1      11.352 -11.115  23.522  1.00  0.00    -0.237 N 
ATOM     29  H6  UNL     1      10.841 -10.339  23.101  1.00  0.00     0.193 HD
ATOM     30  H5  UNL     1      11.842 -10.833  20.982  1.00  0.00     0.166 HD
BRANCH  28  31
HETATM   31  N7  UNL     1      11.196 -11.401  24.898  1.00  0.00    -0.245 N 
HETATM   32  N8  UNL     1      10.895 -12.580  25.256  1.00  0.00    -0.331 N 
ATOM     33  H82 UNL     1      10.770 -13.302  24.546  1.00  0.00     0.178 HD
ATOM     34  H81 UNL     1      10.781 -12.786  26.248  1.00  0.00     0.178 HD
ATOM     35  H7  UNL     1      11.323 -10.667  25.595  1.00  0.00     0.208 HD
ENDBRANCH  28  31
ENDBRANCH  20  25
ENDBRANCH   1  20
TORSDOF 7
ENDMDL
MODEL 3
REMARK VINA RESULT: -6.913940699      2.239      3.509
REMARK  7 active torsions:
REMARK  status: ('A' for Active; 'I' for Inactive)
REMARK    1  A    between atoms: C3_4  and  N2_5 
REMARK    2  A    between atoms: N2_5  and  C4_7 
REMARK    3  A    between atoms: C4_7  and  C5_11 
REMARK    4  A    between atoms: C5_11  and  N4_12 
REMARK    5  A    between atoms: C5_11  and  N5_16 
REMARK       I    between atoms: N5_16  and  C6_18 
REMARK       I    between atoms: C6_18  and  N6_20 
REMARK    6  A    between atoms: N6_20  and  N7_22 
REMARK    7  A    between atoms: C7_27  and  N9_28 
ROOT
HETATM    1  C4  UNL     1      16.242 -13.551  21.058  1.00  0.00     0.122 C 
HETATM    2  N3  UNL     1      16.273 -13.994  19.852  1.00  0.00    -0.386 N 
ATOM      3  H31 UNL     1      15.566 -13.696  19.180  1.00  0.00     0.157 HD
ATOM      4  H32 UNL     1      17.015 -14.656  19.629  1.00  0.00     0.157 HD
ENDROOT
BRANCH   1   5
HETATM    5  N2  UNL     1      17.212 -13.959  21.979  1.00  0.00    -0.366 N 
ATOM      6  H2  UNL     1      17.965 -13.281  22.094  1.00  0.00     0.161 HD
BRANCH   5   7
HETATM    7  C3  UNL     1      17.373 -15.094  22.774  1.00  0.00     0.154 C 
HETATM    8  C2  UNL     1      16.414 -16.153  22.226  1.00  0.00     0.085 C 
HETATM    9  N1  UNL     1      17.074 -17.019  21.569  1.00  0.00    -0.393 N 
HETATM   10  C1  UNL     1      16.515 -18.164  20.909  1.00  0.00     0.148 C 
HETATM   11  C14 UNL     1      18.497 -16.704  21.550  1.00  0.00     0.157 C 
HETATM   12  C7  UNL     1      18.585 -15.899  22.835  1.00  0.00     0.235 C 
BRANCH  12  13
HETATM   13  N9  UNL     1      19.838 -15.423  23.200  1.00  0.00    -0.063 N 
HETATM   14  C8  UNL     1      20.592 -14.795  22.109  1.00  0.00     0.273 C 
HETATM   15  C9  UNL     1      19.815 -14.476  24.262  1.00  0.00     0.237 C 
HETATM   16  C10 UNL     1      19.729 -15.007  25.649  1.00  0.00     0.028 C 
HETATM   17  C11 UNL     1      20.662 -16.153  25.945  1.00  0.00     0.003 C 
HETATM   18  C12 UNL     1      20.400 -17.186  24.863  1.00  0.00     0.028 C 
HETATM   19  C13 UNL     1      20.698 -16.564  23.558  1.00  0.00     0.237 C 
ENDBRANCH  12  13
ENDBRANCH   5   7
ENDBRANCH   1   5
BRANCH   1  20
HETATM   20  C5  UNL     1      15.162 -12.587  21.383  1.00  0.00     0.353 C 
BRANCH  20  21
HETATM   21  N4  UNL     1      14.518 -12.085  20.177  1.00  0.00    -0.051 N 
ATOM     22  H43 UNL     1      14.114 -12.843  19.625  1.00  0.00     0.277 HD
ATOM     23  H42 UNL     1      13.661 -11.576  20.394  1.00  0.00     0.277 HD
ATOM     24  H41 UNL     1      15.158 -11.519  19.621  1.00  0.00     0.277 HD
ENDBRANCH  20  21
BRANCH  20  25
HETATM   25  N5  UNL     1      14.079 -13.255  22.126  1.00  0.00    -0.308 N 
HETATM   26  C6  UNL     1      12.918 -12.600  22.553  1.00  0.00     0.337 C 
HETATM   27  O1  UNL     1      12.777 -11.380  22.297  1.00  0.00    -0.245 OA
HETATM   28  N6  UNL     1      11.934 -13.303  23.254  1.00  0.00    -0.237 N 
ATOM     29  H6  UNL     1      12.061 -14.295  23.455  1.00  0.00     0.193 HD
ATOM     30  H5  UNL     1      14.181 -14.247  22.341  1.00  0.00     0.166 HD
BRANCH  28  31
HETATM   31  N7  UNL     1      10.762 -12.639  23.683  1.00  0.00    -0.245 N 
HETATM   32  N8  UNL     1      10.864 -11.640  24.456  1.00  0.00    -0.331 N 
ATOM     33  H82 UNL     1      11.789 -11.331  24.756  1.00  0.00     0.178 HD
ATOM     34  H81 UNL     1      10.018 -11.161  24.766  1.00  0.00     0.178 HD
ATOM     35  H7  UNL     1       9.845 -12.961  23.374  1.00  0.00     0.208 HD
ENDBRANCH  28  31
ENDBRANCH  20  25
ENDBRANCH   1  20
TORSDOF 7
ENDMDL
MODEL 4
REMARK VINA RESULT: -6.888178614      1.815      3.062
REMARK  7 active torsions:
REMARK  status: ('A' for Active; 'I' for Inactive)
REMARK    1  A    between atoms: C3_4  and  N2_5 
REMARK    2  A    between atoms: N2_5  and  C4_7 
REMARK    3  A    between atoms: C4_7  and  C5_11 
REMARK    4  A    between atoms: C5_11  and  N4_12 
REMARK    5  A    between atoms: C5_11  and  N5_16 
REMARK       I    between atoms: N5_16  and  C6_18 
REMARK       I    between atoms: C6_18  and  N6_20 
REMARK    6  A    between atoms: N6_20  and  N7_22 
REMARK    7  A    between atoms: C7_27  and  N9_28 
ROOT
HETATM    1  C4  UNL     1      15.573 -13.452  20.389  1.00  0.00     0.122 C 
HETATM    2  N3  UNL     1      15.119 -13.989  19.314  1.00  0.00    -0.386 N 
ATOM      3  H31 UNL     1      14.200 -13.725  18.959  1.00  0.00     0.157 HD
ATOM      4  H32 UNL     1      15.713 -14.688  18.868  1.00  0.00     0.157 HD
ENDROOT
BRANCH   1   5
HETATM    5  N2  UNL     1      16.833 -13.814  20.876  1.00  0.00    -0.366 N 
ATOM      6  H2  UNL     1      17.096 -13.307  21.721  1.00  0.00     0.161 HD
BRANCH   5   7
HETATM    7  C3  UNL     1      17.810 -14.717  20.455  1.00  0.00     0.154 C 
HETATM    8  C2  UNL     1      18.926 -13.889  19.816  1.00  0.00     0.085 C 
HETATM    9  N1  UNL     1      19.913 -13.824  20.616  1.00  0.00    -0.393 N 
HETATM   10  C1  UNL     1      21.144 -13.133  20.361  1.00  0.00     0.148 C 
HETATM   11  C14 UNL     1      19.641 -14.536  21.858  1.00  0.00     0.157 C 
HETATM   12  C7  UNL     1      18.620 -15.537  21.345  1.00  0.00     0.235 C 
BRANCH  12  13
HETATM   13  N9  UNL     1      18.116 -16.454  22.260  1.00  0.00    -0.063 N 
HETATM   14  C8  UNL     1      17.832 -15.896  23.587  1.00  0.00     0.273 C 
HETATM   15  C9  UNL     1      16.922 -17.101  21.839  1.00  0.00     0.237 C 
HETATM   16  C10 UNL     1      17.061 -18.258  20.915  1.00  0.00     0.028 C 
HETATM   17  C11 UNL     1      18.126 -19.253  21.305  1.00  0.00     0.003 C 
HETATM   18  C12 UNL     1      19.397 -18.442  21.487  1.00  0.00     0.028 C 
HETATM   19  C13 UNL     1      19.156 -17.454  22.557  1.00  0.00     0.237 C 
ENDBRANCH  12  13
ENDBRANCH   5   7
ENDBRANCH   1   5
BRANCH   1  20
HETATM   20  C5  UNL     1      14.709 -12.435  21.039  1.00  0.00     0.353 C 
BRANCH  20  21
HETATM   21  N4  UNL     1      13.928 -11.697  20.055  1.00  0.00    -0.051 N 
ATOM     22  H43 UNL     1      13.055 -12.176  19.834  1.00  0.00     0.277 HD
ATOM     23  H42 UNL     1      13.541 -10.841  20.451  1.00  0.00     0.277 HD
ATOM     24  H41 UNL     1      14.473 -11.507  19.215  1.00  0.00     0.277 HD
ENDBRANCH  20  21
BRANCH  20  25
HETATM   25  N5  UNL     1      13.700 -13.085  21.895  1.00  0.00    -0.308 N 
HETATM   26  C6  UNL     1      12.734 -12.378  22.621  1.00  0.00     0.337 C 
HETATM   27  O1  UNL     1      12.713 -11.125  22.549  1.00  0.00    -0.245 OA
HETATM   28  N6  UNL     1      11.810 -13.066  23.411  1.00  0.00    -0.237 N 
ATOM     29  H6  UNL     1      11.838 -14.085  23.460  1.00  0.00     0.193 HD
ATOM     30  H5  UNL     1      13.707 -14.102  21.961  1.00  0.00     0.166 HD
BRANCH  28  31
HETATM   31  N7  UNL     1      10.835 -12.350  24.143  1.00  0.00    -0.245 N 
HETATM   32  N8  UNL     1      11.205 -11.574  25.074  1.00  0.00    -0.331 N 
ATOM     33  H82 UNL     1      12.200 -11.478  25.281  1.00  0.00     0.178 HD
ATOM     34  H81 UNL     1      10.502 -11.057  25.602  1.00  0.00     0.178 HD
ATOM     35  H7  UNL     1       9.845 -12.457  23.924  1.00  0.00     0.208 HD
ENDBRANCH  28  31
ENDBRANCH  20  25
ENDBRANCH   1  20
TORSDOF 7
ENDMDL
MODEL 5
REMARK VINA RESULT: -6.754970606      3.294      5.184
REMARK  7 active torsions:
REMARK  status: ('A' for Active; 'I' for Inactive)
REMARK    1  A    between atoms: C3_4  and  N2_5 
REMARK    2  A    between atoms: N2_5  and  C4_7 
REMARK    3  A    between atoms: C4_7  and  C5_11 
REMARK    4  A    between atoms: C5_11  and  N4_12 
REMARK    5  A    between atoms: C5_11  and  N5_16 
REMARK       I    between atoms: N5_16  and  C6_18 
REMARK       I    between atoms: C6_18  and  N6_20 
REMARK    6  A    between atoms: N6_20  and  N7_22 
REMARK    7  A    between atoms: C7_27  and  N9_28 
ROOT
HETATM    1  C4  UNL     1      17.631 -14.289  21.973  1.00  0.00     0.122 C 
HETATM    2  N3  UNL     1      18.397 -13.265  21.843  1.00  0.00    -0.386 N 
ATOM      3  H31 UNL     1      18.025 -12.393  21.466  1.00  0.00     0.157 HD
ATOM      4  H32 UNL     1      19.372 -13.388  22.113  1.00  0.00     0.157 HD
ENDROOT
BRANCH   1   5
HETATM    5  N2  UNL     1      18.141 -15.484  22.489  1.00  0.00    -0.366 N 
ATOM      6  H2  UNL     1      18.356 -16.172  21.767  1.00  0.00     0.161 HD
BRANCH   5   7
HETATM    7  C3  UNL     1      18.418 -15.941  23.778  1.00  0.00     0.154 C 
HETATM    8  C2  UNL     1      17.755 -17.314  23.908  1.00  0.00     0.085 C 
HETATM    9  N1  UNL     1      18.646 -18.220  23.835  1.00  0.00    -0.393 N 
HETATM   10  C1  UNL     1      18.403 -19.631  23.919  1.00  0.00     0.148 C 
HETATM   11  C14 UNL     1      19.973 -17.650  23.640  1.00  0.00     0.157 C 
HETATM   12  C7  UNL     1      19.745 -16.285  24.268  1.00  0.00     0.235 C 
BRANCH  12  13
HETATM   13  N9  UNL     1      20.829 -15.416  24.306  1.00  0.00    -0.063 N 
HETATM   14  C8  UNL     1      21.413 -15.114  22.994  1.00  0.00     0.273 C 
HETATM   15  C9  UNL     1      20.548 -14.161  24.912  1.00  0.00     0.237 C 
HETATM   16  C10 UNL     1      20.581 -14.097  26.398  1.00  0.00     0.028 C 
HETATM   17  C11 UNL     1      21.773 -14.769  27.032  1.00  0.00     0.003 C 
HETATM   18  C12 UNL     1      21.800 -16.177  26.467  1.00  0.00     0.028 C 
HETATM   19  C13 UNL     1      21.948 -16.076  25.001  1.00  0.00     0.237 C 
ENDBRANCH  12  13
ENDBRANCH   5   7
ENDBRANCH   1   5
BRANCH   1  20
HETATM   20  C5  UNL     1      16.212 -14.110  21.578  1.00  0.00     0.353 C 
BRANCH  20  21
HETATM   21  N4  UNL     1      15.309 -14.636  22.594  1.00  0.00    -0.051 N 
ATOM     22  H43 UNL     1      15.374 -15.651  22.664  1.00  0.00     0.277 HD
ATOM     23  H42 UNL     1      15.621 -14.393  23.533  1.00  0.00     0.277 HD
ATOM     24  H41 UNL     1      14.349 -14.334  22.429  1.00  0.00     0.277 HD
ENDBRANCH  20  21
BRANCH  20  25
HETATM   25  N5  UNL     1      15.875 -12.677  21.495  1.00  0.00    -0.308 N 
HETATM   26  C6  UNL     1      14.614 -12.202  21.116  1.00  0.00     0.337 C 
HETATM   27  O1  UNL     1      13.712 -13.027  20.829  1.00  0.00    -0.245 OA
HETATM   28  N6  UNL     1      14.370 -10.827  21.061  1.00  0.00    -0.237 N 
ATOM     29  H6  UNL     1      15.112 -10.167  21.297  1.00  0.00     0.193 HD
ATOM     30  H5  UNL     1      16.598 -11.997  21.726  1.00  0.00     0.166 HD
BRANCH  28  31
HETATM   31  N7  UNL     1      13.096 -10.350  20.678  1.00  0.00    -0.245 N 
HETATM   32  N8  UNL     1      12.098 -10.582  21.424  1.00  0.00    -0.331 N 
ATOM     33  H82 UNL     1      12.230 -11.110  22.287  1.00  0.00     0.178 HD
ATOM     34  H81 UNL     1      11.178 -10.239  21.147  1.00  0.00     0.178 HD
ATOM     35  H7  UNL     1      12.981  -9.825  19.811  1.00  0.00     0.208 HD
ENDBRANCH  28  31
ENDBRANCH  20  25
ENDBRANCH   1  20
TORSDOF 7
ENDMDL
