MODEL 1
REMARK VINA RESULT: -6.363636394      0.000      0.000
REMARK  3 active torsions:
REMARK  status: ('A' for Active; 'I' for Inactive)
REMARK    1  A    between atoms: C5_6  and  O1_7 
REMARK    2  A    between atoms: C10_14  and  O2_15 
REMARK    3  A    between atoms: C11_17  and  O3_18 
ROOT
HETATM    1  C1  UNL     1      12.141 -19.572  -3.311  1.00  0.00     0.149 C 
HETATM    2  N1  UNL     1      11.624 -19.925  -4.592  1.00  0.00    -0.392 N 
HETATM    3  C2  UNL     1      11.796 -18.914  -5.531  1.00  0.00     0.063 C 
HETATM    4  C3  UNL     1      10.709 -18.610  -6.489  1.00  0.00     0.031 C 
HETATM    5  C4  UNL     1      11.309 -18.268  -7.852  1.00  0.00     0.042 C 
HETATM    6  C5  UNL     1      11.095 -19.455  -8.724  1.00  0.00     0.119 C 
HETATM    7  C6  UNL     1       9.801 -20.047  -8.221  1.00  0.00     0.037 C 
HETATM    8  C7  UNL     1       9.721 -19.681  -6.741  1.00  0.00     0.004 C 
HETATM    9  C8  UNL     1       9.914 -20.924  -5.953  1.00  0.00     0.034 C 
HETATM   10  C9  UNL     1       8.593 -21.673  -5.751  1.00  0.00     0.120 C 
HETATM   11 CL1  UNL     1       7.520 -21.536  -7.119  1.00  0.00    -0.122 Cl
HETATM   12  C10 UNL     1       9.016 -23.114  -5.466  1.00  0.00     0.165 C 
HETATM   13  C11 UNL     1       9.717 -23.082  -4.127  1.00  0.00     0.150 C 
HETATM   14  C12 UNL     1      10.890 -22.137  -4.107  1.00  0.00     0.060 C 
HETATM   15  C13 UNL     1      10.495 -20.743  -4.601  1.00  0.00     0.091 C 
ENDROOT
BRANCH   6  16
HETATM   16  O1  UNL     1      12.106 -20.398  -8.646  1.00  0.00    -0.396 OA
ATOM     17  H1  UNL     1      11.900 -21.222  -9.075  1.00  0.00     0.210 HD
ENDBRANCH   6  16
BRANCH  12  18
HETATM   18  O2  UNL     1       9.840 -23.572  -6.489  1.00  0.00    -0.391 OA
ATOM     19  H2  UNL     1      10.203 -24.417  -6.253  1.00  0.00     0.210 HD
ENDBRANCH  12  18
BRANCH  13  20
HETATM   20  O3  UNL     1       8.798 -22.658  -3.181  1.00  0.00    -0.393 OA
ATOM     21  H3  UNL     1       9.283 -22.290  -2.452  1.00  0.00     0.210 HD
ENDBRANCH  13  20
TORSDOF 3
ENDMDL
MODEL 2
REMARK VINA RESULT: -6.190102846      2.490      3.580
REMARK  3 active torsions:
REMARK  status: ('A' for Active; 'I' for Inactive)
REMARK    1  A    between atoms: C5_6  and  O1_7 
REMARK    2  A    between atoms: C10_14  and  O2_15 
REMARK    3  A    between atoms: C11_17  and  O3_18 
ROOT
HETATM    1  C1  UNL     1      11.571 -15.859  -6.857  1.00  0.00     0.149 C 
HETATM    2  N1  UNL     1      11.462 -17.278  -6.948  1.00  0.00    -0.392 N 
HETATM    3  C2  UNL     1      10.682 -17.683  -8.025  1.00  0.00     0.063 C 
HETATM    4  C3  UNL     1       9.731 -18.805  -7.861  1.00  0.00     0.031 C 
HETATM    5  C4  UNL     1       9.712 -19.651  -9.134  1.00  0.00     0.042 C 
HETATM    6  C5  UNL     1      10.482 -20.890  -8.837  1.00  0.00     0.119 C 
HETATM    7  C6  UNL     1      10.233 -21.128  -7.367  1.00  0.00     0.037 C 
HETATM    8  C7  UNL     1       9.995 -19.750  -6.755  1.00  0.00     0.004 C 
HETATM    9  C8  UNL     1      11.165 -19.422  -5.903  1.00  0.00     0.034 C 
HETATM   10  C9  UNL     1      11.005 -19.984  -4.487  1.00  0.00     0.120 C 
HETATM   11 CL1  UNL     1      10.168 -21.514  -4.456  1.00  0.00    -0.122 Cl
HETATM   12  C10 UNL     1      12.436 -20.076  -3.954  1.00  0.00     0.165 C 
HETATM   13  C11 UNL     1      12.916 -18.649  -3.813  1.00  0.00     0.150 C 
HETATM   14  C12 UNL     1      12.846 -17.882  -5.108  1.00  0.00     0.060 C 
HETATM   15  C13 UNL     1      11.456 -17.977  -5.741  1.00  0.00     0.091 C 
ENDROOT
BRANCH   6  16
HETATM   16  O1  UNL     1      11.842 -20.776  -9.072  1.00  0.00    -0.396 OA
ATOM     17  H1  UNL     1      12.174 -21.385  -9.722  1.00  0.00     0.210 HD
ENDBRANCH   6  16
BRANCH  12  18
HETATM   18  O2  UNL     1      13.217 -20.818  -4.833  1.00  0.00    -0.391 OA
ATOM     19  H2  UNL     1      13.996 -21.127  -4.386  1.00  0.00     0.210 HD
ENDBRANCH  12  18
BRANCH  13  20
HETATM   20  O3  UNL     1      12.100 -18.020  -2.887  1.00  0.00    -0.393 OA
ATOM     21  H3  UNL     1      11.865 -18.662  -2.227  1.00  0.00     0.210 HD
ENDBRANCH  13  20
TORSDOF 3
ENDMDL
MODEL 3
REMARK VINA RESULT: -5.890577355      2.452      3.728
REMARK  3 active torsions:
REMARK  status: ('A' for Active; 'I' for Inactive)
REMARK    1  A    between atoms: C5_6  and  O1_7 
REMARK    2  A    between atoms: C10_14  and  O2_15 
REMARK    3  A    between atoms: C11_17  and  O3_18 
ROOT
HETATM    1  C1  UNL     1       8.592 -22.524  -5.158  1.00  0.00     0.149 C 
HETATM    2  N1  UNL     1       9.534 -21.772  -5.920  1.00  0.00    -0.392 N 
HETATM    3  C2  UNL     1      10.074 -20.712  -5.201  1.00  0.00     0.063 C 
HETATM    4  C3  UNL     1      10.278 -19.404  -5.865  1.00  0.00     0.031 C 
HETATM    5  C4  UNL     1      11.578 -18.775  -5.364  1.00  0.00     0.042 C 
HETATM    6  C5  UNL     1      12.582 -18.943  -6.450  1.00  0.00     0.119 C 
HETATM    7  C6  UNL     1      11.760 -18.887  -7.716  1.00  0.00     0.037 C 
HETATM    8  C7  UNL     1      10.377 -19.412  -7.340  1.00  0.00     0.004 C 
HETATM    9  C8  UNL     1      10.202 -20.737  -7.984  1.00  0.00     0.034 C 
HETATM   10  C9  UNL     1       9.669 -20.603  -9.413  1.00  0.00     0.120 C 
HETATM   11 CL1  UNL     1      10.275 -19.188 -10.232  1.00  0.00    -0.122 Cl
HETATM   12  C10 UNL     1      10.081 -21.909 -10.094  1.00  0.00     0.165 C 
HETATM   13  C11 UNL     1       9.276 -22.998  -9.421  1.00  0.00     0.150 C 
HETATM   14  C12 UNL     1       9.496 -23.046  -7.931  1.00  0.00     0.060 C 
HETATM   15  C13 UNL     1       9.285 -21.672  -7.288  1.00  0.00     0.091 C 
ENDROOT
BRANCH   6  16
HETATM   16  O1  UNL     1      13.277 -20.140  -6.393  1.00  0.00    -0.396 OA
ATOM     17  H1  UNL     1      13.510 -20.492  -7.244  1.00  0.00     0.210 HD
ENDBRANCH   6  16
BRANCH  12  18
HETATM   18  O2  UNL     1      11.452 -22.097  -9.957  1.00  0.00    -0.391 OA
ATOM     19  H2  UNL     1      11.915 -21.519 -10.553  1.00  0.00     0.210 HD
ENDBRANCH  12  18
BRANCH  13  20
HETATM   20  O3  UNL     1       7.936 -22.737  -9.657  1.00  0.00    -0.393 OA
ATOM     21  H3  UNL     1       7.460 -22.929  -8.857  1.00  0.00     0.210 HD
ENDBRANCH  13  20
TORSDOF 3
ENDMDL
MODEL 4
REMARK VINA RESULT: -5.743839543      2.053      3.214
REMARK  3 active torsions:
REMARK  status: ('A' for Active; 'I' for Inactive)
REMARK    1  A    between atoms: C5_6  and  O1_7 
REMARK    2  A    between atoms: C10_14  and  O2_15 
REMARK    3  A    between atoms: C11_17  and  O3_18 
ROOT
HETATM    1  C1  UNL     1       9.549 -22.822  -3.709  1.00  0.00     0.149 C 
HETATM    2  N1  UNL     1      10.194 -21.895  -4.580  1.00  0.00    -0.392 N 
HETATM    3  C2  UNL     1      11.055 -21.040  -3.903  1.00  0.00     0.063 C 
HETATM    4  C3  UNL     1      11.105 -19.607  -4.271  1.00  0.00     0.031 C 
HETATM    5  C4  UNL     1      12.547 -19.106  -4.185  1.00  0.00     0.042 C 
HETATM    6  C5  UNL     1      13.045 -18.990  -5.582  1.00  0.00     0.119 C 
HETATM    7  C6  UNL     1      11.813 -18.631  -6.378  1.00  0.00     0.037 C 
HETATM    8  C7  UNL     1      10.636 -19.248  -5.626  1.00  0.00     0.004 C 
HETATM    9  C8  UNL     1      10.116 -20.375  -6.440  1.00  0.00     0.034 C 
HETATM   10  C9  UNL     1       9.094 -19.897  -7.476  1.00  0.00     0.120 C 
HETATM   11 CL1  UNL     1       9.464 -18.316  -8.114  1.00  0.00    -0.122 Cl
HETATM   12  C10 UNL     1       9.102 -20.989  -8.547  1.00  0.00     0.165 C 
HETATM   13  C11 UNL     1       8.522 -22.219  -7.886  1.00  0.00     0.150 C 
HETATM   14  C12 UNL     1       9.285 -22.632  -6.654  1.00  0.00     0.060 C 
HETATM   15  C13 UNL     1       9.454 -21.462  -5.681  1.00  0.00     0.091 C 
ENDROOT
BRANCH   6  16
HETATM   16  O1  UNL     1      13.603 -20.156  -6.079  1.00  0.00    -0.396 OA
ATOM     17  H1  UNL     1      14.437 -20.029  -6.518  1.00  0.00     0.210 HD
ENDBRANCH   6  16
BRANCH  12  18
HETATM   18  O2  UNL     1      10.401 -21.190  -9.001  1.00  0.00    -0.391 OA
ATOM     19  H2  UNL     1      10.467 -22.043  -9.415  1.00  0.00     0.210 HD
ENDBRANCH  12  18
BRANCH  13  20
HETATM   20  O3  UNL     1       7.220 -21.923  -7.515  1.00  0.00    -0.393 OA
ATOM     21  H3  UNL     1       6.709 -21.828  -8.310  1.00  0.00     0.210 HD
ENDBRANCH  13  20
TORSDOF 3
ENDMDL
MODEL 5
REMARK VINA RESULT: -5.735731088      6.081      8.367
REMARK  3 active torsions:
REMARK  status: ('A' for Active; 'I' for Inactive)
REMARK    1  A    between atoms: C5_6  and  O1_7 
REMARK    2  A    between atoms: C10_14  and  O2_15 
REMARK    3  A    between atoms: C11_17  and  O3_18 
ROOT
HETATM    1  C1  UNL     1       7.518 -22.231   2.324  1.00  0.00     0.149 C 
HETATM    2  N1  UNL     1       8.618 -21.324   2.278  1.00  0.00    -0.392 N 
HETATM    3  C2  UNL     1       8.472 -20.267   3.169  1.00  0.00     0.063 C 
HETATM    4  C3  UNL     1       8.855 -18.899   2.754  1.00  0.00     0.031 C 
HETATM    5  C4  UNL     1       9.499 -18.168   3.933  1.00  0.00     0.042 C 
HETATM    6  C5  UNL     1      10.964 -18.141   3.672  1.00  0.00     0.119 C 
HETATM    7  C6  UNL     1      11.063 -18.081   2.166  1.00  0.00     0.037 C 
HETATM    8  C7  UNL     1       9.816 -18.784   1.637  1.00  0.00     0.004 C 
HETATM    9  C8  UNL     1      10.241 -20.068   1.027  1.00  0.00     0.034 C 
HETATM   10  C9  UNL     1      10.656 -19.887  -0.437  1.00  0.00     0.120 C 
HETATM   11 CL1  UNL     1      11.434 -18.355  -0.735  1.00  0.00    -0.122 Cl
HETATM   12  C10 UNL     1      11.564 -21.083  -0.723  1.00  0.00     0.165 C 
HETATM   13  C11 UNL     1      10.671 -22.302  -0.663  1.00  0.00     0.150 C 
HETATM   14  C12 UNL     1       9.961 -22.438   0.659  1.00  0.00     0.060 C 
HETATM   15  C13 UNL     1       9.226 -21.149   1.035  1.00  0.00     0.091 C 
ENDROOT
BRANCH   6  16
HETATM   16  O1  UNL     1      11.639 -19.254   4.144  1.00  0.00    -0.396 OA
ATOM     17  H1  UNL     1      12.582 -19.141   4.195  1.00  0.00     0.210 HD
ENDBRANCH   6  16
BRANCH  12  18
HETATM   18  O2  UNL     1      12.591 -21.127   0.214  1.00  0.00    -0.391 OA
ATOM     19  H2  UNL     1      13.021 -21.973   0.177  1.00  0.00     0.210 HD
ENDBRANCH  12  18
BRANCH  13  20
HETATM   20  O3  UNL     1       9.718 -22.176  -1.661  1.00  0.00    -0.393 OA
ATOM     21  H3  UNL     1       8.909 -21.891  -1.252  1.00  0.00     0.210 HD
ENDBRANCH  13  20
TORSDOF 3
ENDMDL
