MODEL 1
REMARK VINA RESULT: -6.513759672      0.000      0.000
REMARK  3 active torsions:
REMARK  status: ('A' for Active; 'I' for Inactive)
REMARK    1  A    between atoms: C2_2  and  O1_3 
REMARK    2  A    between atoms: C2_2  and  C3_5 
REMARK    3  A    between atoms: C12_19  and  O3_20 
ROOT
HETATM    1  C3  UNL     1      10.997 -20.252   1.154  1.00  0.00     0.068 C 
HETATM    2  C4  UNL     1      10.001 -21.322   1.339  1.00  0.00     0.017 C 
HETATM    3 CL1  UNL     1      10.062 -22.645   0.226  1.00  0.00    -0.089 Cl
HETATM    4  C5  UNL     1       9.073 -21.367   2.268  1.00  0.00     0.025 C 
HETATM    5  C6  UNL     1       8.707 -20.446   3.375  1.00  0.00     0.155 C 
HETATM    6  O2  UNL     1       9.615 -20.377   4.424  1.00  0.00    -0.347 OA
HETATM    7  C7  UNL     1      10.852 -20.280   3.916  1.00  0.00     0.359 A 
HETATM    8  N1  UNL     1      11.917 -19.385   4.145  1.00  0.00    -0.033 N 
ATOM      9  H11 UNL     1      12.928 -19.455   4.030  1.00  0.00     0.281 HD
ATOM     10  H12 UNL     1      12.344 -19.006   4.990  1.00  0.00     0.281 HD
HETATM   11  C8  UNL     1      10.891 -18.951   3.318  1.00  0.00     0.186 A 
HETATM   12  C9  UNL     1      10.043 -17.887   3.984  1.00  0.00     0.045 C 
HETATM   13  C10 UNL     1       8.581 -18.123   3.969  1.00  0.00     0.012 C 
HETATM   14  C11 UNL     1       8.314 -19.082   2.830  1.00  0.00     0.048 C 
HETATM   15  C12 UNL     1       9.193 -18.643   1.682  1.00  0.00     0.132 C 
HETATM   16  C13 UNL     1      10.661 -18.999   1.891  1.00  0.00     0.067 C 
ENDROOT
BRANCH   1  17
HETATM   17  C2  UNL     1      11.326 -20.016  -0.324  1.00  0.00     0.124 C 
HETATM   18  C1  UNL     1      11.857 -18.623  -0.481  1.00  0.00     0.040 C 
BRANCH  17  19
HETATM   19  O1  UNL     1      12.369 -20.886  -0.661  1.00  0.00    -0.395 OA
ATOM     20  H1  UNL     1      12.607 -21.349   0.134  1.00  0.00     0.210 HD
ENDBRANCH  17  19
ENDBRANCH   1  17
BRANCH  15  21
HETATM   21  O3  UNL     1       8.676 -19.006   0.475  1.00  0.00    -0.395 OA
ATOM     22  H3  UNL     1       7.853 -18.569   0.294  1.00  0.00     0.210 HD
ENDBRANCH  15  21
TORSDOF 3
ENDMDL
MODEL 2
REMARK VINA RESULT: -6.127096691      2.349      4.245
REMARK  3 active torsions:
REMARK  status: ('A' for Active; 'I' for Inactive)
REMARK    1  A    between atoms: C2_2  and  O1_3 
REMARK    2  A    between atoms: C2_2  and  C3_5 
REMARK    3  A    between atoms: C12_19  and  O3_20 
ROOT
HETATM    1  C3  UNL     1      11.177 -19.865   3.954  1.00  0.00     0.068 C 
HETATM    2  C4  UNL     1      11.631 -18.564   3.435  1.00  0.00     0.017 C 
HETATM    3 CL1  UNL     1      12.803 -17.712   4.381  1.00  0.00    -0.089 Cl
HETATM    4  C5  UNL     1      11.232 -17.989   2.323  1.00  0.00     0.025 C 
HETATM    5  C6  UNL     1      10.263 -18.391   1.270  1.00  0.00     0.155 C 
HETATM    6  O2  UNL     1      10.656 -19.451   0.465  1.00  0.00    -0.347 OA
HETATM    7  C7  UNL     1      11.166 -20.417   1.244  1.00  0.00     0.359 A 
HETATM    8  N1  UNL     1      10.904 -21.797   1.358  1.00  0.00    -0.033 N 
ATOM      9  H11 UNL     1      11.455 -22.590   1.687  1.00  0.00     0.281 HD
ATOM     10  H12 UNL     1      10.791 -22.548   0.677  1.00  0.00     0.281 HD
HETATM   11  C8  UNL     1      10.015 -20.930   1.977  1.00  0.00     0.186 A 
HETATM   12  C9  UNL     1       8.682 -20.882   1.261  1.00  0.00     0.045 C 
HETATM   13  C10 UNL     1       8.179 -19.531   0.922  1.00  0.00     0.012 C 
HETATM   14  C11 UNL     1       8.872 -18.569   1.860  1.00  0.00     0.048 C 
HETATM   15  C12 UNL     1       8.901 -19.234   3.217  1.00  0.00     0.132 C 
HETATM   16  C13 UNL     1       9.928 -20.358   3.303  1.00  0.00     0.067 C 
ENDROOT
BRANCH   1  17
HETATM   17  C2  UNL     1      11.112 -19.888   5.486  1.00  0.00     0.124 C 
HETATM   18  C1  UNL     1       9.956 -20.746   5.904  1.00  0.00     0.040 C 
BRANCH  17  19
HETATM   19  O1  UNL     1      12.272 -20.523   5.941  1.00  0.00    -0.395 OA
ATOM     20  H1  UNL     1      12.788 -20.736   5.172  1.00  0.00     0.210 HD
ENDBRANCH  17  19
ENDBRANCH   1  17
BRANCH  15  21
HETATM   21  O3  UNL     1       8.952 -18.325   4.230  1.00  0.00    -0.395 OA
ATOM     22  H3  UNL     1       9.846 -18.127   4.487  1.00  0.00     0.210 HD
ENDBRANCH  15  21
TORSDOF 3
ENDMDL
MODEL 3
REMARK VINA RESULT: -5.317473675      2.263      4.248
REMARK  3 active torsions:
REMARK  status: ('A' for Active; 'I' for Inactive)
REMARK    1  A    between atoms: C2_2  and  O1_3 
REMARK    2  A    between atoms: C2_2  and  C3_5 
REMARK    3  A    between atoms: C12_19  and  O3_20 
ROOT
HETATM    1  C3  UNL     1      10.575 -19.011   3.460  1.00  0.00     0.068 C 
HETATM    2  C4  UNL     1       9.294 -18.324   3.225  1.00  0.00     0.017 C 
HETATM    3 CL1  UNL     1       8.865 -17.071   4.339  1.00  0.00    -0.089 Cl
HETATM    4  C5  UNL     1       8.447 -18.570   2.252  1.00  0.00     0.025 C 
HETATM    5  C6  UNL     1       8.455 -19.542   1.128  1.00  0.00     0.155 C 
HETATM    6  O2  UNL     1       9.384 -19.294   0.125  1.00  0.00    -0.347 OA
HETATM    7  C7  UNL     1      10.560 -18.989   0.694  1.00  0.00     0.359 A 
HETATM    8  N1  UNL     1      11.868 -19.481   0.518  1.00  0.00    -0.033 N 
ATOM      9  H11 UNL     1      12.794 -19.086   0.683  1.00  0.00     0.281 HD
ATOM     10  H12 UNL     1      12.436 -19.686  -0.304  1.00  0.00     0.281 HD
HETATM   11  C8  UNL     1      11.003 -20.241   1.294  1.00  0.00     0.186 A 
HETATM   12  C9  UNL     1      10.584 -21.513   0.587  1.00  0.00     0.045 C 
HETATM   13  C10 UNL     1       9.126 -21.769   0.529  1.00  0.00     0.012 C 
HETATM   14  C11 UNL     1       8.506 -20.969   1.653  1.00  0.00     0.048 C 
HETATM   15  C12 UNL     1       9.426 -21.113   2.843  1.00  0.00     0.132 C 
HETATM   16  C13 UNL     1      10.704 -20.293   2.708  1.00  0.00     0.067 C 
ENDROOT
BRANCH   1  17
HETATM   17  C2  UNL     1      10.894 -19.150   4.953  1.00  0.00     0.124 C 
HETATM   18  C1  UNL     1      11.995 -20.153   5.117  1.00  0.00     0.040 C 
BRANCH  17  19
HETATM   19  O1  UNL     1      11.400 -17.920   5.385  1.00  0.00    -0.395 OA
ATOM     20  H1  UNL     1      11.687 -18.041   6.283  1.00  0.00     0.210 HD
ENDBRANCH  17  19
ENDBRANCH   1  17
BRANCH  15  21
HETATM   21  O3  UNL     1       8.762 -20.959   4.023  1.00  0.00    -0.395 OA
ATOM     22  H3  UNL     1       8.731 -21.766   4.523  1.00  0.00     0.210 HD
ENDBRANCH  15  21
TORSDOF 3
ENDMDL
MODEL 4
REMARK VINA RESULT: -5.277285619      1.768      2.513
REMARK  3 active torsions:
REMARK  status: ('A' for Active; 'I' for Inactive)
REMARK    1  A    between atoms: C2_2  and  O1_3 
REMARK    2  A    between atoms: C2_2  and  C3_5 
REMARK    3  A    between atoms: C12_19  and  O3_20 
ROOT
HETATM    1  C3  UNL     1      10.011 -20.823   2.219  1.00  0.00     0.068 C 
HETATM    2  C4  UNL     1       8.919 -19.915   1.829  1.00  0.00     0.017 C 
HETATM    3 CL1  UNL     1       7.987 -20.365   0.443  1.00  0.00    -0.089 Cl
HETATM    4  C5  UNL     1       8.584 -18.797   2.434  1.00  0.00     0.025 C 
HETATM    5  C6  UNL     1       9.129 -18.090   3.622  1.00  0.00     0.155 C 
HETATM    6  O2  UNL     1       8.898 -18.706   4.846  1.00  0.00    -0.347 OA
HETATM    7  C7  UNL     1       9.162 -20.015   4.725  1.00  0.00     0.359 A 
HETATM    8  N1  UNL     1       9.965 -20.905   5.465  1.00  0.00    -0.033 N 
ATOM      9  H11 UNL     1       9.949 -21.916   5.601  1.00  0.00     0.281 HD
ATOM     10  H12 UNL     1      10.083 -21.078   6.463  1.00  0.00     0.281 HD
HETATM   11  C8  UNL     1      10.609 -20.075   4.558  1.00  0.00     0.186 A 
HETATM   12  C9  UNL     1      11.414 -18.997   5.254  1.00  0.00     0.045 C 
HETATM   13  C10 UNL     1      11.168 -17.610   4.795  1.00  0.00     0.012 C 
HETATM   14  C11 UNL     1      10.587 -17.717   3.403  1.00  0.00     0.048 C 
HETATM   15  C12 UNL     1      11.361 -18.805   2.695  1.00  0.00     0.132 C 
HETATM   16  C13 UNL     1      10.983 -20.204   3.167  1.00  0.00     0.067 C 
ENDROOT
BRANCH   1  17
HETATM   17  C2  UNL     1      10.681 -21.478   1.006  1.00  0.00     0.124 C 
HETATM   18  C1  UNL     1      10.051 -22.817   0.774  1.00  0.00     0.040 C 
BRANCH  17  19
HETATM   19  O1  UNL     1      10.379 -20.690  -0.110  1.00  0.00    -0.395 OA
ATOM     20  H1  UNL     1      10.167 -19.823   0.215  1.00  0.00     0.210 HD
ENDBRANCH  17  19
ENDBRANCH   1  17
BRANCH  15  21
HETATM   21  O3  UNL     1      11.364 -18.632   1.343  1.00  0.00    -0.395 OA
ATOM     22  H3  UNL     1      12.034 -19.156   0.918  1.00  0.00     0.210 HD
ENDBRANCH  15  21
TORSDOF 3
ENDMDL
MODEL 5
REMARK VINA RESULT: -5.179299041      2.172      3.229
REMARK  3 active torsions:
REMARK  status: ('A' for Active; 'I' for Inactive)
REMARK    1  A    between atoms: C2_2  and  O1_3 
REMARK    2  A    between atoms: C2_2  and  C3_5 
REMARK    3  A    between atoms: C12_19  and  O3_20 
ROOT
HETATM    1  C3  UNL     1       9.678 -18.957   1.622  1.00  0.00     0.068 C 
HETATM    2  C4  UNL     1      10.909 -18.162   1.764  1.00  0.00     0.017 C 
HETATM    3 CL1  UNL     1      11.532 -17.425   0.328  1.00  0.00    -0.089 Cl
HETATM    4  C5  UNL     1      11.578 -17.957   2.876  1.00  0.00     0.025 C 
HETATM    5  C6  UNL     1      11.371 -18.409   4.276  1.00  0.00     0.155 C 
HETATM    6  O2  UNL     1      10.290 -17.840   4.938  1.00  0.00    -0.347 OA
HETATM    7  C7  UNL     1       9.230 -17.849   4.117  1.00  0.00     0.359 A 
HETATM    8  N1  UNL     1       7.905 -18.307   4.264  1.00  0.00    -0.033 N 
ATOM      9  H11 UNL     1       7.024 -18.061   3.812  1.00  0.00     0.281 HD
ATOM     10  H12 UNL     1       7.206 -18.204   4.999  1.00  0.00     0.281 HD
HETATM   11  C8  UNL     1       8.879 -19.260   4.001  1.00  0.00     0.186 A 
HETATM   12  C9  UNL     1       9.161 -20.126   5.211  1.00  0.00     0.045 C 
HETATM   13  C10 UNL     1      10.585 -20.255   5.596  1.00  0.00     0.012 C 
HETATM   14  C11 UNL     1      11.393 -19.927   4.360  1.00  0.00     0.048 C 
HETATM   15  C12 UNL     1      10.685 -20.580   3.195  1.00  0.00     0.132 C 
HETATM   16  C13 UNL     1       9.411 -19.846   2.791  1.00  0.00     0.067 C 
ENDROOT
BRANCH   1  17
HETATM   17  C2  UNL     1       9.612 -19.690   0.277  1.00  0.00     0.124 C 
HETATM   18  C1  UNL     1      11.009 -19.981  -0.180  1.00  0.00     0.040 C 
BRANCH  17  19
HETATM   19  O1  UNL     1       8.996 -20.925   0.507  1.00  0.00    -0.395 OA
ATOM     20  H1  UNL     1       8.108 -20.855   0.176  1.00  0.00     0.210 HD
ENDBRANCH  17  19
ENDBRANCH   1  17
BRANCH  15  21
HETATM   21  O3  UNL     1      11.538 -20.864   2.172  1.00  0.00    -0.395 OA
ATOM     22  H3  UNL     1      12.188 -20.181   2.050  1.00  0.00     0.210 HD
ENDBRANCH  15  21
TORSDOF 3
ENDMDL
