MODEL 1
REMARK VINA RESULT: -8.231079090      0.000      0.000
REMARK  10 active torsions:
REMARK  status: ('A' for Active; 'I' for Inactive)
REMARK    1  A    between atoms: C2_2  and  O2_4 
REMARK    2  A    between atoms: O2_4  and  C3_5 
REMARK    3  A    between atoms: C3_5  and  C4_6 
REMARK    4  A    between atoms: C4_6  and  N1_7 
REMARK       I    between atoms: N1_7  and  C5_9 
REMARK    5  A    between atoms: C5_9  and  C6_11 
REMARK    6  A    between atoms: C8_13  and  N2_14 
REMARK       I    between atoms: N2_14  and  C9_16 
REMARK    7  A    between atoms: C9_16  and  C10_18 
REMARK    8  A    between atoms: C10_18  and  C11_20 
REMARK    9  A    between atoms: C15_24  and  C16_25 
REMARK       I    between atoms: C16_25  and  N3_27 
REMARK       I    between atoms: N4_31  and  C20_32 
REMARK   10  A    between atoms: C22_36  and  C23_37 
ROOT
HETATM    1  C6  UNL     1      13.578 -14.608  20.882  1.00  0.00     0.119 C 
HETATM    2  C7  UNL     1      14.030 -15.479  22.034  1.00  0.00     0.049 C 
HETATM    3  C8  UNL     1      15.256 -16.329  21.683  1.00  0.00     0.106 C 
HETATM    4  C15 UNL     1      14.471 -17.514  22.090  1.00  0.00     0.124 C 
HETATM    5  C19 UNL     1      13.201 -16.750  21.990  1.00  0.00     0.111 C 
HETATM    6  N4  UNL     1      12.414 -16.654  20.819  1.00  0.00    -0.318 N 
HETATM    7  C20 UNL     1      11.304 -17.447  20.456  1.00  0.00     0.325 C 
HETATM    8  O6  UNL     1      10.864 -18.324  21.210  1.00  0.00    -0.256 OA
HETATM    9  C21 UNL     1      10.658 -17.255  19.200  1.00  0.00     0.162 C 
HETATM   10  N5  UNL     1      10.123 -17.114  18.171  1.00  0.00    -0.186 NA
HETATM   11  C22 UNL     1      12.815 -15.515  19.972  1.00  0.00     0.203 C 
ENDROOT
BRANCH  11  12
HETATM   12  C23 UNL     1      13.536 -15.889  18.765  1.00  0.00     0.197 C 
HETATM   13  O7  UNL     1      14.185 -15.000  18.114  1.00  0.00    -0.646 OA
HETATM   14  O8  UNL     1      13.592 -17.158  18.230  1.00  0.00    -0.646 OA
ENDBRANCH  11  12
BRANCH   4  15
HETATM   15  C16 UNL     1      14.618 -18.799  21.421  1.00  0.00     0.227 C 
HETATM   16  O5  UNL     1      15.392 -18.761  20.379  1.00  0.00    -0.273 OA
HETATM   17  N3  UNL     1      14.071 -20.060  21.702  1.00  0.00    -0.360 N 
HETATM   18  C17 UNL     1      13.177 -20.432  22.761  1.00  0.00     0.152 C 
HETATM   19  C18 UNL     1      14.458 -21.175  20.799  1.00  0.00     0.152 C 
ENDBRANCH   4  15
BRANCH   1  20
HETATM   20  C5  UNL     1      12.691 -13.511  21.341  1.00  0.00     0.225 C 
HETATM   21  N1  UNL     1      11.847 -13.618  22.472  1.00  0.00    -0.359 N 
ATOM     22  H1  UNL     1      11.866 -14.501  22.982  1.00  0.00     0.162 HD
HETATM   23  O3  UNL     1      12.693 -12.439  20.691  1.00  0.00    -0.273 OA
BRANCH  21  24
HETATM   24  C4  UNL     1      10.970 -12.604  22.965  1.00  0.00     0.149 C 
BRANCH  24  25
HETATM   25  C3  UNL     1      11.597 -11.769  24.032  1.00  0.00     0.198 C 
BRANCH  25  26
HETATM   26  O2  UNL     1      11.372 -10.396  23.695  1.00  0.00    -0.320 OA
BRANCH  26  27
HETATM   27  C2  UNL     1      12.305  -9.421  24.057  1.00  0.00     0.254 C 
HETATM   28  C1  UNL     1      11.946  -8.365  25.034  1.00  0.00     0.126 C 
HETATM   29  O1  UNL     1      13.440  -9.487  23.518  1.00  0.00    -0.266 OA
ENDBRANCH  26  27
ENDBRANCH  25  26
ENDBRANCH  24  25
ENDBRANCH  21  24
ENDBRANCH   1  20
BRANCH   3  30
HETATM   30  N2  UNL     1      16.399 -15.977  22.520  1.00  0.00    -0.354 N 
HETATM   31  C9  UNL     1      17.293 -14.915  22.227  1.00  0.00     0.233 C 
HETATM   32  O4  UNL     1      17.046 -14.265  21.169  1.00  0.00    -0.272 OA
ATOM     33  H2  UNL     1      16.565 -16.526  23.364  1.00  0.00     0.162 HD
BRANCH  31  34
HETATM   34  C10 UNL     1      18.425 -14.614  23.113  1.00  0.00     0.157 C 
HETATM   35 BR1  UNL     1      18.222 -15.710  24.723  1.00  0.00    -0.080 Br
BRANCH  34  36
HETATM   36  C11 UNL     1      19.762 -14.950  22.541  1.00  0.00    -0.030 C 
HETATM   37  C12 UNL     1      20.218 -14.085  21.420  1.00  0.00     0.016 C 
HETATM   38  C13 UNL     1      20.787 -14.811  23.668  1.00  0.00     0.016 C 
HETATM   39  C14 UNL     1      19.834 -16.402  22.098  1.00  0.00     0.016 C 
ENDBRANCH  34  36
ENDBRANCH  31  34
ENDBRANCH   3  30
TORSDOF 10
ENDMDL
MODEL 2
REMARK VINA RESULT: -7.857988572      0.894      1.025
REMARK  10 active torsions:
REMARK  status: ('A' for Active; 'I' for Inactive)
REMARK    1  A    between atoms: C2_2  and  O2_4 
REMARK    2  A    between atoms: O2_4  and  C3_5 
REMARK    3  A    between atoms: C3_5  and  C4_6 
REMARK    4  A    between atoms: C4_6  and  N1_7 
REMARK       I    between atoms: N1_7  and  C5_9 
REMARK    5  A    between atoms: C5_9  and  C6_11 
REMARK    6  A    between atoms: C8_13  and  N2_14 
REMARK       I    between atoms: N2_14  and  C9_16 
REMARK    7  A    between atoms: C9_16  and  C10_18 
REMARK    8  A    between atoms: C10_18  and  C11_20 
REMARK    9  A    between atoms: C15_24  and  C16_25 
REMARK       I    between atoms: C16_25  and  N3_27 
REMARK       I    between atoms: N4_31  and  C20_32 
REMARK   10  A    between atoms: C22_36  and  C23_37 
ROOT
HETATM    1  C6  UNL     1      13.778 -14.727  20.571  1.00  0.00     0.119 C 
HETATM    2  C7  UNL     1      14.145 -15.514  21.811  1.00  0.00     0.049 C 
HETATM    3  C8  UNL     1      15.310 -16.479  21.571  1.00  0.00     0.106 C 
HETATM    4  C15 UNL     1      14.433 -17.561  22.069  1.00  0.00     0.124 C 
HETATM    5  C19 UNL     1      13.225 -16.720  21.865  1.00  0.00     0.111 C 
HETATM    6  N4  UNL     1      12.468 -16.680  20.671  1.00  0.00    -0.318 N 
HETATM    7  C20 UNL     1      11.309 -17.423  20.356  1.00  0.00     0.325 C 
HETATM    8  O6  UNL     1      10.792 -18.190  21.179  1.00  0.00    -0.256 OA
HETATM    9  C21 UNL     1      10.702 -17.306  19.072  1.00  0.00     0.162 C 
HETATM   10  N5  UNL     1      10.198 -17.225  18.022  1.00  0.00    -0.186 NA
HETATM   11  C22 UNL     1      12.967 -15.660  19.731  1.00  0.00     0.203 C 
ENDROOT
BRANCH  11  12
HETATM   12  C23 UNL     1      13.681 -16.198  18.584  1.00  0.00     0.197 C 
HETATM   13  O7  UNL     1      14.279 -15.402  17.780  1.00  0.00    -0.646 OA
HETATM   14  O8  UNL     1      13.781 -17.534  18.261  1.00  0.00    -0.646 OA
ENDBRANCH  11  12
BRANCH   4  15
HETATM   15  C16 UNL     1      14.497 -18.911  21.527  1.00  0.00     0.227 C 
HETATM   16  O5  UNL     1      15.290 -19.028  20.505  1.00  0.00    -0.273 OA
HETATM   17  N3  UNL     1      13.854 -20.097  21.912  1.00  0.00    -0.360 N 
HETATM   18  C17 UNL     1      12.915 -20.301  22.979  1.00  0.00     0.152 C 
HETATM   19  C18 UNL     1      14.174 -21.318  21.127  1.00  0.00     0.152 C 
ENDBRANCH   4  15
BRANCH   1  20
HETATM   20  C5  UNL     1      12.967 -13.530  20.903  1.00  0.00     0.225 C 
HETATM   21  N1  UNL     1      13.472 -12.209  20.838  1.00  0.00    -0.359 N 
ATOM     22  H1  UNL     1      14.443 -12.099  20.546  1.00  0.00     0.162 HD
HETATM   23  O3  UNL     1      11.777 -13.703  21.256  1.00  0.00    -0.273 OA
BRANCH  21  24
HETATM   24  C4  UNL     1      12.748 -11.016  21.143  1.00  0.00     0.149 C 
BRANCH  24  25
HETATM   25  C3  UNL     1      12.970 -10.551  22.544  1.00  0.00     0.198 C 
BRANCH  25  26
HETATM   26  O2  UNL     1      11.694 -10.500  23.191  1.00  0.00    -0.320 OA
BRANCH  26  27
HETATM   27  C2  UNL     1      11.601 -10.129  24.535  1.00  0.00     0.254 C 
HETATM   28  C1  UNL     1      11.798  -8.716  24.939  1.00  0.00     0.126 C 
HETATM   29  O1  UNL     1      11.346 -11.041  25.363  1.00  0.00    -0.266 OA
ENDBRANCH  26  27
ENDBRANCH  25  26
ENDBRANCH  24  25
ENDBRANCH  21  24
ENDBRANCH   1  20
BRANCH   3  30
HETATM   30  N2  UNL     1      16.462 -16.132  22.400  1.00  0.00    -0.354 N 
HETATM   31  C9  UNL     1      17.323 -15.037  22.134  1.00  0.00     0.233 C 
HETATM   32  O4  UNL     1      17.038 -14.351  21.108  1.00  0.00    -0.272 OA
ATOM     33  H2  UNL     1      16.658 -16.710  23.217  1.00  0.00     0.162 HD
BRANCH  31  34
HETATM   34  C10 UNL     1      18.464 -14.743  23.009  1.00  0.00     0.157 C 
HETATM   35 BR1  UNL     1      18.342 -15.935  24.558  1.00  0.00    -0.080 Br
BRANCH  34  36
HETATM   36  C11 UNL     1      19.798 -14.993  22.388  1.00  0.00    -0.030 C 
HETATM   37  C12 UNL     1      20.160 -14.099  21.257  1.00  0.00     0.016 C 
HETATM   38  C13 UNL     1      20.852 -14.796  23.480  1.00  0.00     0.016 C 
HETATM   39  C14 UNL     1      19.944 -16.437  21.935  1.00  0.00     0.016 C 
ENDBRANCH  34  36
ENDBRANCH  31  34
ENDBRANCH   3  30
TORSDOF 10
ENDMDL
MODEL 3
REMARK VINA RESULT: -7.815112556      0.984      1.113
REMARK  10 active torsions:
REMARK  status: ('A' for Active; 'I' for Inactive)
REMARK    1  A    between atoms: C2_2  and  O2_4 
REMARK    2  A    between atoms: O2_4  and  C3_5 
REMARK    3  A    between atoms: C3_5  and  C4_6 
REMARK    4  A    between atoms: C4_6  and  N1_7 
REMARK       I    between atoms: N1_7  and  C5_9 
REMARK    5  A    between atoms: C5_9  and  C6_11 
REMARK    6  A    between atoms: C8_13  and  N2_14 
REMARK       I    between atoms: N2_14  and  C9_16 
REMARK    7  A    between atoms: C9_16  and  C10_18 
REMARK    8  A    between atoms: C10_18  and  C11_20 
REMARK    9  A    between atoms: C15_24  and  C16_25 
REMARK       I    between atoms: C16_25  and  N3_27 
REMARK       I    between atoms: N4_31  and  C20_32 
REMARK   10  A    between atoms: C22_36  and  C23_37 
ROOT
HETATM    1  C6  UNL     1      13.540 -14.992  20.888  1.00  0.00     0.119 C 
HETATM    2  C7  UNL     1      13.798 -15.880  22.086  1.00  0.00     0.049 C 
HETATM    3  C8  UNL     1      14.948 -16.866  21.851  1.00  0.00     0.106 C 
HETATM    4  C15 UNL     1      14.007 -17.949  22.207  1.00  0.00     0.124 C 
HETATM    5  C19 UNL     1      12.841 -17.055  21.989  1.00  0.00     0.111 C 
HETATM    6  N4  UNL     1      12.168 -16.901  20.756  1.00  0.00    -0.318 N 
HETATM    7  C20 UNL     1      11.011 -17.578  20.311  1.00  0.00     0.325 C 
HETATM    8  O6  UNL     1      10.417 -18.385  21.038  1.00  0.00    -0.256 OA
HETATM    9  C21 UNL     1      10.496 -17.346  19.003  1.00  0.00     0.162 C 
HETATM   10  N5  UNL     1      10.066 -17.172  17.931  1.00  0.00    -0.186 NA
HETATM   11  C22 UNL     1      12.759 -15.833  19.930  1.00  0.00     0.203 C 
ENDROOT
BRANCH  11  12
HETATM   12  C23 UNL     1      13.532 -16.310  18.793  1.00  0.00     0.197 C 
HETATM   13  O7  UNL     1      14.190 -15.476  18.080  1.00  0.00    -0.646 OA
HETATM   14  O8  UNL     1      13.630 -17.624  18.390  1.00  0.00    -0.646 OA
ENDBRANCH  11  12
BRANCH   4  15
HETATM   15  C16 UNL     1      14.067 -19.258  21.571  1.00  0.00     0.227 C 
HETATM   16  O5  UNL     1      14.934 -19.331  20.606  1.00  0.00    -0.273 OA
HETATM   17  N3  UNL     1      13.355 -20.442  21.814  1.00  0.00    -0.360 N 
HETATM   18  C17 UNL     1      12.329 -20.685  22.788  1.00  0.00     0.152 C 
HETATM   19  C18 UNL     1      13.694 -21.614  20.965  1.00  0.00     0.152 C 
ENDBRANCH   4  15
BRANCH   1  20
HETATM   20  C5  UNL     1      12.744 -13.795  21.255  1.00  0.00     0.225 C 
HETATM   21  N1  UNL     1      11.956 -13.718  22.429  1.00  0.00    -0.359 N 
ATOM     22  H1  UNL     1      11.952 -14.537  23.038  1.00  0.00     0.162 HD
HETATM   23  O3  UNL     1      12.774 -12.807  20.484  1.00  0.00    -0.273 OA
BRANCH  21  24
HETATM   24  C4  UNL     1      11.167 -12.601  22.840  1.00  0.00     0.149 C 
BRANCH  24  25
HETATM   25  C3  UNL     1      11.797 -11.829  23.951  1.00  0.00     0.198 C 
BRANCH  25  26
HETATM   26  O2  UNL     1      11.412 -10.459  23.798  1.00  0.00    -0.320 OA
BRANCH  26  27
HETATM   27  C2  UNL     1      12.312  -9.435  24.110  1.00  0.00     0.254 C 
HETATM   28  C1  UNL     1      11.927  -8.360  25.056  1.00  0.00     0.126 C 
HETATM   29  O1  UNL     1      13.441  -9.478  23.556  1.00  0.00    -0.266 OA
ENDBRANCH  26  27
ENDBRANCH  25  26
ENDBRANCH  24  25
ENDBRANCH  21  24
ENDBRANCH   1  20
BRANCH   3  30
HETATM   30  N2  UNL     1      16.051 -16.620  22.776  1.00  0.00    -0.354 N 
HETATM   31  C9  UNL     1      17.419 -16.695  22.410  1.00  0.00     0.233 C 
HETATM   32  O4  UNL     1      17.648 -16.996  21.201  1.00  0.00    -0.272 OA
ATOM     33  H2  UNL     1      15.824 -16.380  23.742  1.00  0.00     0.162 HD
BRANCH  31  34
HETATM   34  C10 UNL     1      18.479 -16.435  23.391  1.00  0.00     0.157 C 
HETATM   35 BR1  UNL     1      19.998 -17.584  22.937  1.00  0.00    -0.080 Br
BRANCH  34  36
HETATM   36  C11 UNL     1      18.994 -15.034  23.387  1.00  0.00    -0.030 C 
HETATM   37  C12 UNL     1      18.003 -13.985  23.030  1.00  0.00     0.016 C 
HETATM   38  C13 UNL     1      19.491 -14.728  24.801  1.00  0.00     0.016 C 
HETATM   39  C14 UNL     1      20.209 -14.886  22.484  1.00  0.00     0.016 C 
ENDBRANCH  34  36
ENDBRANCH  31  34
ENDBRANCH   3  30
TORSDOF 10
ENDMDL
MODEL 4
REMARK VINA RESULT: -7.769134262      1.059      1.384
REMARK  10 active torsions:
REMARK  status: ('A' for Active; 'I' for Inactive)
REMARK    1  A    between atoms: C2_2  and  O2_4 
REMARK    2  A    between atoms: O2_4  and  C3_5 
REMARK    3  A    between atoms: C3_5  and  C4_6 
REMARK    4  A    between atoms: C4_6  and  N1_7 
REMARK       I    between atoms: N1_7  and  C5_9 
REMARK    5  A    between atoms: C5_9  and  C6_11 
REMARK    6  A    between atoms: C8_13  and  N2_14 
REMARK       I    between atoms: N2_14  and  C9_16 
REMARK    7  A    between atoms: C9_16  and  C10_18 
REMARK    8  A    between atoms: C10_18  and  C11_20 
REMARK    9  A    between atoms: C15_24  and  C16_25 
REMARK       I    between atoms: C16_25  and  N3_27 
REMARK       I    between atoms: N4_31  and  C20_32 
REMARK   10  A    between atoms: C22_36  and  C23_37 
ROOT
HETATM    1  C6  UNL     1      13.717 -14.763  20.687  1.00  0.00     0.119 C 
HETATM    2  C7  UNL     1      14.053 -15.555  21.931  1.00  0.00     0.049 C 
HETATM    3  C8  UNL     1      15.219 -16.525  21.715  1.00  0.00     0.106 C 
HETATM    4  C15 UNL     1      14.327 -17.604  22.189  1.00  0.00     0.124 C 
HETATM    5  C19 UNL     1      13.128 -16.759  21.961  1.00  0.00     0.111 C 
HETATM    6  N4  UNL     1      12.397 -16.712  20.751  1.00  0.00    -0.318 N 
HETATM    7  C20 UNL     1      11.243 -17.449  20.408  1.00  0.00     0.325 C 
HETATM    8  O6  UNL     1      10.705 -18.217  21.217  1.00  0.00    -0.256 OA
HETATM    9  C21 UNL     1      10.665 -17.326  19.111  1.00  0.00     0.162 C 
HETATM   10  N5  UNL     1      10.184 -17.240  18.050  1.00  0.00    -0.186 NA
HETATM   11  C22 UNL     1      12.921 -15.691  19.826  1.00  0.00     0.203 C 
ENDROOT
BRANCH  11  12
HETATM   12  C23 UNL     1      13.658 -16.228  18.693  1.00  0.00     0.197 C 
HETATM   13  O7  UNL     1      14.225 -15.429  17.869  1.00  0.00    -0.646 OA
HETATM   14  O8  UNL     1      13.813 -17.566  18.403  1.00  0.00    -0.646 OA
ENDBRANCH  11  12
BRANCH   4  15
HETATM   15  C16 UNL     1      14.398 -18.953  21.645  1.00  0.00     0.227 C 
HETATM   16  O5  UNL     1      13.456 -19.739  22.069  1.00  0.00    -0.273 OA
HETATM   17  N3  UNL     1      15.303 -19.548  20.752  1.00  0.00    -0.360 N 
HETATM   18  C17 UNL     1      16.452 -18.963  20.121  1.00  0.00     0.152 C 
HETATM   19  C18 UNL     1      15.058 -20.970  20.397  1.00  0.00     0.152 C 
ENDBRANCH   4  15
BRANCH   1  20
HETATM   20  C5  UNL     1      12.903 -13.564  21.004  1.00  0.00     0.225 C 
HETATM   21  N1  UNL     1      13.435 -12.253  21.036  1.00  0.00    -0.359 N 
ATOM     22  H1  UNL     1      14.428 -12.151  20.828  1.00  0.00     0.162 HD
HETATM   23  O3  UNL     1      11.685 -13.727  21.254  1.00  0.00    -0.273 OA
BRANCH  21  24
HETATM   24  C4  UNL     1      12.710 -11.059  21.335  1.00  0.00     0.149 C 
BRANCH  24  25
HETATM   25  C3  UNL     1      13.370 -10.232  22.388  1.00  0.00     0.198 C 
BRANCH  25  26
HETATM   26  O2  UNL     1      12.913 -10.706  23.659  1.00  0.00    -0.320 OA
BRANCH  26  27
HETATM   27  C2  UNL     1      11.838 -10.082  24.298  1.00  0.00     0.254 C 
HETATM   28  C1  UNL     1      11.995  -8.728  24.882  1.00  0.00     0.126 C 
HETATM   29  O1  UNL     1      10.756 -10.720  24.350  1.00  0.00    -0.266 OA
ENDBRANCH  26  27
ENDBRANCH  25  26
ENDBRANCH  24  25
ENDBRANCH  21  24
ENDBRANCH   1  20
BRANCH   3  30
HETATM   30  N2  UNL     1      16.354 -16.184  22.570  1.00  0.00    -0.354 N 
HETATM   31  C9  UNL     1      17.289 -15.162  22.268  1.00  0.00     0.233 C 
HETATM   32  O4  UNL     1      17.089 -14.537  21.185  1.00  0.00    -0.272 OA
ATOM     33  H2  UNL     1      16.480 -16.712  23.434  1.00  0.00     0.162 HD
BRANCH  31  34
HETATM   34  C10 UNL     1      18.408 -14.871  23.173  1.00  0.00     0.157 C 
HETATM   35 BR1  UNL     1      18.251 -16.072  24.712  1.00  0.00    -0.080 Br
BRANCH  34  36
HETATM   36  C11 UNL     1      19.758 -15.115  22.584  1.00  0.00    -0.030 C 
HETATM   37  C12 UNL     1      20.167 -14.178  21.505  1.00  0.00     0.016 C 
HETATM   38  C13 UNL     1      20.779 -14.980  23.715  1.00  0.00     0.016 C 
HETATM   39  C14 UNL     1      19.897 -16.540  22.074  1.00  0.00     0.016 C 
ENDBRANCH  34  36
ENDBRANCH  31  34
ENDBRANCH   3  30
TORSDOF 10
ENDMDL
MODEL 5
REMARK VINA RESULT: -7.634008222      1.442      1.786
REMARK  10 active torsions:
REMARK  status: ('A' for Active; 'I' for Inactive)
REMARK    1  A    between atoms: C2_2  and  O2_4 
REMARK    2  A    between atoms: O2_4  and  C3_5 
REMARK    3  A    between atoms: C3_5  and  C4_6 
REMARK    4  A    between atoms: C4_6  and  N1_7 
REMARK       I    between atoms: N1_7  and  C5_9 
REMARK    5  A    between atoms: C5_9  and  C6_11 
REMARK    6  A    between atoms: C8_13  and  N2_14 
REMARK       I    between atoms: N2_14  and  C9_16 
REMARK    7  A    between atoms: C9_16  and  C10_18 
REMARK    8  A    between atoms: C10_18  and  C11_20 
REMARK    9  A    between atoms: C15_24  and  C16_25 
REMARK       I    between atoms: C16_25  and  N3_27 
REMARK       I    between atoms: N4_31  and  C20_32 
REMARK   10  A    between atoms: C22_36  and  C23_37 
ROOT
HETATM    1  C6  UNL     1      13.590 -14.937  20.886  1.00  0.00     0.119 C 
HETATM    2  C7  UNL     1      13.863 -15.823  22.082  1.00  0.00     0.049 C 
HETATM    3  C8  UNL     1      15.019 -16.800  21.838  1.00  0.00     0.106 C 
HETATM    4  C15 UNL     1      14.089 -17.891  22.201  1.00  0.00     0.124 C 
HETATM    5  C19 UNL     1      12.915 -17.005  21.991  1.00  0.00     0.111 C 
HETATM    6  N4  UNL     1      12.232 -16.857  20.762  1.00  0.00    -0.318 N 
HETATM    7  C20 UNL     1      11.078 -17.542  20.325  1.00  0.00     0.325 C 
HETATM    8  O6  UNL     1      10.495 -18.353  21.056  1.00  0.00    -0.256 OA
HETATM    9  C21 UNL     1      10.551 -17.314  19.021  1.00  0.00     0.162 C 
HETATM   10  N5  UNL     1      10.112 -17.142  17.952  1.00  0.00    -0.186 NA
HETATM   11  C22 UNL     1      12.810 -15.783  19.933  1.00  0.00     0.203 C 
ENDROOT
BRANCH  11  12
HETATM   12  C23 UNL     1      13.578 -16.254  18.791  1.00  0.00     0.197 C 
HETATM   13  O7  UNL     1      14.251 -15.419  18.092  1.00  0.00    -0.646 OA
HETATM   14  O8  UNL     1      13.658 -17.563  18.367  1.00  0.00    -0.646 OA
ENDBRANCH  11  12
BRANCH   4  15
HETATM   15  C16 UNL     1      14.155 -19.199  21.563  1.00  0.00     0.227 C 
HETATM   16  O5  UNL     1      14.977 -19.251  20.560  1.00  0.00    -0.273 OA
HETATM   17  N3  UNL     1      13.487 -20.401  21.840  1.00  0.00    -0.360 N 
HETATM   18  C17 UNL     1      12.514 -20.670  22.860  1.00  0.00     0.152 C 
HETATM   19  C18 UNL     1      13.817 -21.566  20.977  1.00  0.00     0.152 C 
ENDBRANCH   4  15
BRANCH   1  20
HETATM   20  C5  UNL     1      12.788 -13.746  21.259  1.00  0.00     0.225 C 
HETATM   21  N1  UNL     1      11.929 -13.712  22.384  1.00  0.00    -0.359 N 
ATOM     22  H1  UNL     1      11.876 -14.558  22.952  1.00  0.00     0.162 HD
HETATM   23  O3  UNL     1      12.878 -12.724  20.539  1.00  0.00    -0.273 OA
BRANCH  21  24
HETATM   24  C4  UNL     1      11.130 -12.603  22.797  1.00  0.00     0.149 C 
BRANCH  24  25
HETATM   25  C3  UNL     1      11.754 -11.825  23.908  1.00  0.00     0.198 C 
BRANCH  25  26
HETATM   26  O2  UNL     1      11.397 -10.451  23.728  1.00  0.00    -0.320 OA
BRANCH  26  27
HETATM   27  C2  UNL     1      12.296  -9.438  24.077  1.00  0.00     0.254 C 
HETATM   28  C1  UNL     1      11.898  -8.380  25.037  1.00  0.00     0.126 C 
HETATM   29  O1  UNL     1      13.434  -9.475  23.542  1.00  0.00    -0.266 OA
ENDBRANCH  26  27
ENDBRANCH  25  26
ENDBRANCH  24  25
ENDBRANCH  21  24
ENDBRANCH   1  20
BRANCH   3  30
HETATM   30  N2  UNL     1      16.126 -16.546  22.756  1.00  0.00    -0.354 N 
HETATM   31  C9  UNL     1      17.414 -17.125  22.617  1.00  0.00     0.233 C 
HETATM   32  O4  UNL     1      17.563 -17.900  21.627  1.00  0.00    -0.272 OA
ATOM     33  H2  UNL     1      15.964 -15.916  23.542  1.00  0.00     0.162 HD
BRANCH  31  34
HETATM   34  C10 UNL     1      18.484 -16.826  23.578  1.00  0.00     0.157 C 
HETATM   35 BR1  UNL     1      18.601 -14.879  23.743  1.00  0.00    -0.080 Br
BRANCH  34  36
HETATM   36  C11 UNL     1      18.242 -17.352  24.954  1.00  0.00    -0.030 C 
HETATM   37  C12 UNL     1      17.452 -18.609  25.032  1.00  0.00     0.016 C 
HETATM   38  C13 UNL     1      19.610 -17.635  25.579  1.00  0.00     0.016 C 
HETATM   39  C14 UNL     1      17.591 -16.309  25.847  1.00  0.00     0.016 C 
ENDBRANCH  34  36
ENDBRANCH  31  34
ENDBRANCH   3  30
TORSDOF 10
ENDMDL
