MODEL 1
REMARK VINA RESULT: -7.550842983      0.000      0.000
REMARK  9 active torsions:
REMARK  status: ('A' for Active; 'I' for Inactive)
REMARK       I    between atoms: C2_2  and  N1_4 
REMARK       I    between atoms: N3_15  and  C10_16 
REMARK    1  A    between atoms: C10_16  and  C11_18 
REMARK    2  A    between atoms: C11_18  and  N4_19 
REMARK    3  A    between atoms: C11_18  and  C19_34 
REMARK       I    between atoms: N4_19  and  C12_21 
REMARK    4  A    between atoms: C12_21  and  C13_23 
REMARK    5  A    between atoms: C13_23  and  N5_24 
REMARK    6  A    between atoms: C13_23  and  C16_31 
REMARK       I    between atoms: N5_24  and  C14_26 
REMARK    7  A    between atoms: C14_26  and  C15_28 
REMARK    8  A    between atoms: C22_37  and  O8_38 
REMARK    9  A    between atoms: O8_38  and  C23_39 
ROOT
HETATM    1  C1  UNL     1      22.018 -15.932  25.854  1.00  0.00     0.117 C 
HETATM    2  C2  UNL     1      21.616 -15.191  24.628  1.00  0.00     0.216 C 
HETATM    3  O1  UNL     1      22.523 -14.640  23.958  1.00  0.00    -0.274 OA
HETATM    4  N1  UNL     1      20.261 -15.098  24.212  1.00  0.00    -0.342 N 
HETATM    5  C3  UNL     1      20.048 -14.353  23.016  1.00  0.00     0.159 C 
HETATM    6  C4  UNL     1      19.160 -14.888  21.978  1.00  0.00     0.070 C 
HETATM    7  C5  UNL     1      19.938 -14.723  20.622  1.00  0.00     0.081 C 
HETATM    8  C6  UNL     1      19.910 -13.257  20.344  1.00  0.00     0.264 C 
HETATM    9  F1  UNL     1      21.087 -12.596  20.571  1.00  0.00    -0.239 F 
HETATM   10  C7  UNL     1      18.781 -12.765  21.197  1.00  0.00     0.254 C 
HETATM   11  O2  UNL     1      18.496 -11.547  21.411  1.00  0.00    -0.270 OA
HETATM   12  N2  UNL     1      18.103 -13.938  21.709  1.00  0.00    -0.341 N 
HETATM   13  C8  UNL     1      16.683 -13.962  21.859  1.00  0.00     0.153 C 
HETATM   14  C9  UNL     1      18.775 -16.313  21.964  1.00  0.00     0.161 C 
HETATM   15  N3  UNL     1      18.238 -16.929  23.125  1.00  0.00    -0.319 N 
HETATM   16  C10 UNL     1      16.976 -17.535  22.977  1.00  0.00     0.245 C 
HETATM   17  O3  UNL     1      16.367 -17.905  24.051  1.00  0.00    -0.271 OA
HETATM   18  C22 UNL     1      18.873 -17.077  24.386  1.00  0.00     0.248 C 
HETATM   19  C26 UNL     1      19.297 -15.764  25.040  1.00  0.00     0.132 C 
HETATM   20  C27 UNL     1      18.079 -14.971  25.380  1.00  0.00     0.037 C 
ENDROOT
BRANCH  16  21
HETATM   21  C11 UNL     1      16.280 -17.794  21.680  1.00  0.00     0.180 C 
BRANCH  21  22
HETATM   22  N4  UNL     1      14.918 -17.228  21.731  1.00  0.00    -0.346 N 
HETATM   23  C12 UNL     1      14.416 -16.383  20.748  1.00  0.00     0.241 C 
HETATM   24  O4  UNL     1      15.159 -16.087  19.760  1.00  0.00    -0.271 OA
ATOM     25  H4  UNL     1      14.320 -17.468  22.522  1.00  0.00     0.163 HD
BRANCH  23  26
HETATM   26  C13 UNL     1      13.078 -15.805  20.765  1.00  0.00     0.180 C 
BRANCH  26  27
HETATM   27  N5  UNL     1      13.112 -14.412  20.308  1.00  0.00    -0.338 N 
HETATM   28  C14 UNL     1      13.174 -13.307  21.186  1.00  0.00     0.319 C 
HETATM   29  O5  UNL     1      13.204 -13.447  22.425  1.00  0.00    -0.261 OA
ATOM     30  H5  UNL     1      13.089 -14.231  19.304  1.00  0.00     0.163 HD
BRANCH  28  31
HETATM   31  C15 UNL     1      13.206 -11.937  20.657  1.00  0.00     0.270 C 
HETATM   32  O6  UNL     1      12.622 -11.013  21.298  1.00  0.00    -0.640 OA
HETATM   33  O7  UNL     1      13.851 -11.609  19.481  1.00  0.00    -0.640 OA
ENDBRANCH  28  31
ENDBRANCH  26  27
BRANCH  26  34
HETATM   34  C16 UNL     1      11.974 -16.568  20.118  1.00  0.00     0.009 C 
HETATM   35  C17 UNL     1      12.298 -17.139  18.780  1.00  0.00     0.012 C 
HETATM   36  C18 UNL     1      11.266 -17.566  20.967  1.00  0.00     0.012 C 
ENDBRANCH  26  34
ENDBRANCH  23  26
ENDBRANCH  21  22
BRANCH  21  37
HETATM   37  C19 UNL     1      16.156 -19.298  21.441  1.00  0.00     0.009 C 
HETATM   38  C20 UNL     1      16.743 -19.658  20.117  1.00  0.00     0.012 C 
HETATM   39  C21 UNL     1      14.706 -19.735  21.472  1.00  0.00     0.012 C 
ENDBRANCH  21  37
ENDBRANCH  16  21
BRANCH  18  40
HETATM   40  O8  UNL     1      18.273 -17.849  25.343  1.00  0.00    -0.360 OA
BRANCH  40  41
HETATM   41  C23 UNL     1      19.125 -18.132  26.406  1.00  0.00     0.116 C 
HETATM   42  C24 UNL     1      18.380 -18.354  27.699  1.00  0.00     0.039 C 
HETATM   43  C25 UNL     1      19.959 -19.323  26.126  1.00  0.00     0.039 C 
ENDBRANCH  40  41
ENDBRANCH  18  40
TORSDOF 9
ENDMDL
MODEL 2
REMARK VINA RESULT: -7.291885419      2.551      8.477
REMARK  9 active torsions:
REMARK  status: ('A' for Active; 'I' for Inactive)
REMARK       I    between atoms: C2_2  and  N1_4 
REMARK       I    between atoms: N3_15  and  C10_16 
REMARK    1  A    between atoms: C10_16  and  C11_18 
REMARK    2  A    between atoms: C11_18  and  N4_19 
REMARK    3  A    between atoms: C11_18  and  C19_34 
REMARK       I    between atoms: N4_19  and  C12_21 
REMARK    4  A    between atoms: C12_21  and  C13_23 
REMARK    5  A    between atoms: C13_23  and  N5_24 
REMARK    6  A    between atoms: C13_23  and  C16_31 
REMARK       I    between atoms: N5_24  and  C14_26 
REMARK    7  A    between atoms: C14_26  and  C15_28 
REMARK    8  A    between atoms: C22_37  and  O8_38 
REMARK    9  A    between atoms: O8_38  and  C23_39 
ROOT
HETATM    1  C1  UNL     1      11.173 -16.527  19.651  1.00  0.00     0.117 C 
HETATM    2  C2  UNL     1      12.327 -17.461  19.550  1.00  0.00     0.216 C 
HETATM    3  O1  UNL     1      12.306 -18.312  18.627  1.00  0.00    -0.274 OA
HETATM    4  N1  UNL     1      13.422 -17.410  20.452  1.00  0.00    -0.342 N 
HETATM    5  C3  UNL     1      14.444 -18.375  20.215  1.00  0.00     0.159 C 
HETATM    6  C4  UNL     1      15.851 -17.960  20.240  1.00  0.00     0.070 C 
HETATM    7  C5  UNL     1      16.505 -18.589  18.955  1.00  0.00     0.081 C 
HETATM    8  C6  UNL     1      16.595 -20.049  19.251  1.00  0.00     0.264 C 
HETATM    9  F1  UNL     1      15.675 -20.834  18.608  1.00  0.00    -0.239 F 
HETATM   10  C7  UNL     1      16.482 -20.107  20.744  1.00  0.00     0.254 C 
HETATM   11  O2  UNL     1      16.339 -21.165  21.431  1.00  0.00    -0.270 OA
HETATM   12  N2  UNL     1      16.567 -18.744  21.223  1.00  0.00    -0.341 N 
HETATM   13  C8  UNL     1      17.249 -18.431  22.438  1.00  0.00     0.153 C 
HETATM   14  C9  UNL     1      16.229 -16.538  20.138  1.00  0.00     0.161 C 
HETATM   15  N3  UNL     1      15.646 -15.570  20.999  1.00  0.00    -0.319 N 
HETATM   16  C10 UNL     1      16.542 -14.804  21.767  1.00  0.00     0.245 C 
HETATM   17  O3  UNL     1      16.045 -14.080  22.709  1.00  0.00    -0.271 OA
HETATM   18  C22 UNL     1      14.271 -15.234  21.099  1.00  0.00     0.248 C 
HETATM   19  C26 UNL     1      13.358 -16.401  21.470  1.00  0.00     0.132 C 
HETATM   20  C27 UNL     1      13.683 -16.856  22.854  1.00  0.00     0.037 C 
ENDROOT
BRANCH  16  21
HETATM   21  C11 UNL     1      18.025 -14.751  21.581  1.00  0.00     0.180 C 
BRANCH  21  22
HETATM   22  N4  UNL     1      18.688 -14.832  22.896  1.00  0.00    -0.346 N 
HETATM   23  C12 UNL     1      19.799 -15.634  23.132  1.00  0.00     0.241 C 
HETATM   24  O4  UNL     1      20.267 -16.325  22.172  1.00  0.00    -0.271 OA
ATOM     25  H4  UNL     1      18.316 -14.276  23.665  1.00  0.00     0.163 HD
BRANCH  23  26
HETATM   26  C13 UNL     1      20.480 -15.742  24.416  1.00  0.00     0.180 C 
BRANCH  26  27
HETATM   27  N5  UNL     1      21.863 -15.264  24.308  1.00  0.00    -0.338 N 
HETATM   28  C14 UNL     1      22.954 -15.893  24.948  1.00  0.00     0.319 C 
HETATM   29  O5  UNL     1      22.810 -16.909  25.656  1.00  0.00    -0.261 OA
ATOM     30  H5  UNL     1      22.046 -14.436  23.742  1.00  0.00     0.163 HD
BRANCH  28  31
HETATM   31  C15 UNL     1      24.314 -15.360  24.795  1.00  0.00     0.270 C 
HETATM   32  O6  UNL     1      24.486 -14.105  24.747  1.00  0.00    -0.640 OA
HETATM   33  O7  UNL     1      25.425 -16.175  24.702  1.00  0.00    -0.640 OA
ENDBRANCH  28  31
ENDBRANCH  26  27
BRANCH  26  34
HETATM   34  C16 UNL     1      19.800 -15.189  25.620  1.00  0.00     0.009 C 
HETATM   35  C17 UNL     1      19.285 -16.206  26.580  1.00  0.00     0.012 C 
HETATM   36  C18 UNL     1      20.501 -14.086  26.336  1.00  0.00     0.012 C 
ENDBRANCH  26  34
ENDBRANCH  23  26
ENDBRANCH  21  22
BRANCH  21  37
HETATM   37  C19 UNL     1      18.426 -13.426  20.933  1.00  0.00     0.009 C 
HETATM   38  C20 UNL     1      17.489 -13.094  19.820  1.00  0.00     0.012 C 
HETATM   39  C21 UNL     1      19.837 -13.495  20.385  1.00  0.00     0.012 C 
ENDBRANCH  21  37
ENDBRANCH  16  21
BRANCH  18  40
HETATM   40  O8  UNL     1      13.906 -14.157  21.860  1.00  0.00    -0.360 OA
BRANCH  40  41
HETATM   41  C23 UNL     1      12.936 -13.375  21.241  1.00  0.00     0.116 C 
HETATM   42  C24 UNL     1      11.963 -12.777  22.226  1.00  0.00     0.039 C 
HETATM   43  C25 UNL     1      13.547 -12.282  20.451  1.00  0.00     0.039 C 
ENDBRANCH  40  41
ENDBRANCH  18  40
TORSDOF 9
ENDMDL
MODEL 3
REMARK VINA RESULT: -7.281883224      1.339      1.572
REMARK  9 active torsions:
REMARK  status: ('A' for Active; 'I' for Inactive)
REMARK       I    between atoms: C2_2  and  N1_4 
REMARK       I    between atoms: N3_15  and  C10_16 
REMARK    1  A    between atoms: C10_16  and  C11_18 
REMARK    2  A    between atoms: C11_18  and  N4_19 
REMARK    3  A    between atoms: C11_18  and  C19_34 
REMARK       I    between atoms: N4_19  and  C12_21 
REMARK    4  A    between atoms: C12_21  and  C13_23 
REMARK    5  A    between atoms: C13_23  and  N5_24 
REMARK    6  A    between atoms: C13_23  and  C16_31 
REMARK       I    between atoms: N5_24  and  C14_26 
REMARK    7  A    between atoms: C14_26  and  C15_28 
REMARK    8  A    between atoms: C22_37  and  O8_38 
REMARK    9  A    between atoms: O8_38  and  C23_39 
ROOT
HETATM    1  C1  UNL     1      21.467 -15.096  26.476  1.00  0.00     0.117 C 
HETATM    2  C2  UNL     1      21.146 -14.591  25.113  1.00  0.00     0.216 C 
HETATM    3  O1  UNL     1      22.024 -13.917  24.521  1.00  0.00    -0.274 OA
HETATM    4  N1  UNL     1      19.899 -14.851  24.486  1.00  0.00    -0.342 N 
HETATM    5  C3  UNL     1      19.753 -14.296  23.181  1.00  0.00     0.159 C 
HETATM    6  C4  UNL     1      19.197 -15.121  22.103  1.00  0.00     0.070 C 
HETATM    7  C5  UNL     1      20.155 -14.918  20.871  1.00  0.00     0.081 C 
HETATM    8  C6  UNL     1      19.873 -13.532  20.395  1.00  0.00     0.264 C 
HETATM    9  F1  UNL     1      20.827 -12.601  20.708  1.00  0.00    -0.239 F 
HETATM   10  C7  UNL     1      18.532 -13.228  20.990  1.00  0.00     0.254 C 
HETATM   11  O2  UNL     1      17.966 -12.091  20.990  1.00  0.00    -0.270 OA
HETATM   12  N2  UNL     1      18.032 -14.467  21.548  1.00  0.00    -0.341 N 
HETATM   13  C8  UNL     1      16.644 -14.799  21.480  1.00  0.00     0.153 C 
HETATM   14  C9  UNL     1      19.125 -16.589  22.224  1.00  0.00     0.161 C 
HETATM   15  N3  UNL     1      18.528 -17.194  23.362  1.00  0.00    -0.319 N 
HETATM   16  C10 UNL     1      17.467 -18.082  23.107  1.00  0.00     0.245 C 
HETATM   17  O3  UNL     1      16.766 -18.472  24.114  1.00  0.00    -0.271 OA
HETATM   18  C22 UNL     1      18.943 -17.067  24.713  1.00  0.00     0.248 C 
HETATM   19  C26 UNL     1      18.961 -15.633  25.239  1.00  0.00     0.132 C 
HETATM   20  C27 UNL     1      17.564 -15.109  25.278  1.00  0.00     0.037 C 
ENDROOT
BRANCH  16  21
HETATM   21  C11 UNL     1      17.084 -18.620  21.765  1.00  0.00     0.180 C 
BRANCH  21  22
HETATM   22  N4  UNL     1      15.640 -18.410  21.545  1.00  0.00    -0.346 N 
HETATM   23  C12 UNL     1      15.125 -17.906  20.356  1.00  0.00     0.241 C 
HETATM   24  O4  UNL     1      15.931 -17.618  19.416  1.00  0.00    -0.271 OA
ATOM     25  H4  UNL     1      14.993 -18.643  22.298  1.00  0.00     0.163 HD
BRANCH  23  26
HETATM   26  C13 UNL     1      13.708 -17.683  20.102  1.00  0.00     0.180 C 
BRANCH  26  27
HETATM   27  N5  UNL     1      13.346 -16.289  20.376  1.00  0.00    -0.338 N 
HETATM   28  C14 UNL     1      13.060 -15.801  21.670  1.00  0.00     0.319 C 
HETATM   29  O5  UNL     1      13.097 -16.534  22.678  1.00  0.00    -0.261 OA
ATOM     30  H5  UNL     1      13.299 -15.638  19.592  1.00  0.00     0.163 HD
BRANCH  28  31
HETATM   31  C15 UNL     1      12.705 -14.389  21.871  1.00  0.00     0.270 C 
HETATM   32  O6  UNL     1      11.672 -13.924  21.304  1.00  0.00    -0.640 OA
HETATM   33  O7  UNL     1      13.456 -13.540  22.661  1.00  0.00    -0.640 OA
ENDBRANCH  28  31
ENDBRANCH  26  27
BRANCH  26  34
HETATM   34  C16 UNL     1      13.144 -18.152  18.804  1.00  0.00     0.009 C 
HETATM   35  C17 UNL     1      13.242 -19.620  18.565  1.00  0.00     0.012 C 
HETATM   36  C18 UNL     1      11.795 -17.640  18.438  1.00  0.00     0.012 C 
ENDBRANCH  26  34
ENDBRANCH  23  26
ENDBRANCH  21  22
BRANCH  21  37
HETATM   37  C19 UNL     1      17.355 -20.123  21.705  1.00  0.00     0.009 C 
HETATM   38  C20 UNL     1      18.169 -20.450  20.499  1.00  0.00     0.012 C 
HETATM   39  C21 UNL     1      16.059 -20.906  21.652  1.00  0.00     0.012 C 
ENDBRANCH  21  37
ENDBRANCH  16  21
BRANCH  18  40
HETATM   40  O8  UNL     1      18.355 -17.856  25.664  1.00  0.00    -0.360 OA
BRANCH  40  41
HETATM   41  C23 UNL     1      19.149 -18.003  26.796  1.00  0.00     0.116 C 
HETATM   42  C24 UNL     1      18.382 -18.558  27.971  1.00  0.00     0.039 C 
HETATM   43  C25 UNL     1      20.313 -18.879  26.530  1.00  0.00     0.039 C 
ENDBRANCH  40  41
ENDBRANCH  18  40
TORSDOF 9
ENDMDL
MODEL 4
REMARK VINA RESULT: -7.113304331      2.519      7.339
REMARK  9 active torsions:
REMARK  status: ('A' for Active; 'I' for Inactive)
REMARK       I    between atoms: C2_2  and  N1_4 
REMARK       I    between atoms: N3_15  and  C10_16 
REMARK    1  A    between atoms: C10_16  and  C11_18 
REMARK    2  A    between atoms: C11_18  and  N4_19 
REMARK    3  A    between atoms: C11_18  and  C19_34 
REMARK       I    between atoms: N4_19  and  C12_21 
REMARK    4  A    between atoms: C12_21  and  C13_23 
REMARK    5  A    between atoms: C13_23  and  N5_24 
REMARK    6  A    between atoms: C13_23  and  C16_31 
REMARK       I    between atoms: N5_24  and  C14_26 
REMARK    7  A    between atoms: C14_26  and  C15_28 
REMARK    8  A    between atoms: C22_37  and  O8_38 
REMARK    9  A    between atoms: O8_38  and  C23_39 
ROOT
HETATM    1  C1  UNL     1      12.062 -18.868  17.963  1.00  0.00     0.117 C 
HETATM    2  C2  UNL     1      12.087 -17.645  18.812  1.00  0.00     0.216 C 
HETATM    3  O1  UNL     1      10.996 -17.060  19.018  1.00  0.00    -0.274 OA
HETATM    4  N1  UNL     1      13.289 -17.142  19.377  1.00  0.00    -0.342 N 
HETATM    5  C3  UNL     1      13.138 -15.964  20.164  1.00  0.00     0.159 C 
HETATM    6  C4  UNL     1      13.805 -15.873  21.467  1.00  0.00     0.070 C 
HETATM    7  C5  UNL     1      12.716 -15.343  22.470  1.00  0.00     0.081 C 
HETATM    8  C6  UNL     1      12.529 -13.908  22.104  1.00  0.00     0.264 C 
HETATM    9  F1  UNL     1      11.378 -13.624  21.419  1.00  0.00    -0.239 F 
HETATM   10  C7  UNL     1      13.772 -13.584  21.332  1.00  0.00     0.254 C 
HETATM   11  O2  UNL     1      13.975 -12.516  20.677  1.00  0.00    -0.270 OA
HETATM   12  N2  UNL     1      14.667 -14.712  21.488  1.00  0.00    -0.341 N 
HETATM   13  C8  UNL     1      16.077 -14.523  21.611  1.00  0.00     0.153 C 
HETATM   14  C9  UNL     1      14.318 -17.078  22.147  1.00  0.00     0.161 C 
HETATM   15  N3  UNL     1      15.174 -17.985  21.467  1.00  0.00    -0.319 N 
HETATM   16  C10 UNL     1      16.420 -18.234  22.072  1.00  0.00     0.245 C 
HETATM   17  O3  UNL     1      17.298 -18.870  21.378  1.00  0.00    -0.271 OA
HETATM   18  C22 UNL     1      14.872 -18.730  20.298  1.00  0.00     0.248 C 
HETATM   19  C26 UNL     1      14.484 -17.882  19.088  1.00  0.00     0.132 C 
HETATM   20  C27 UNL     1      15.661 -17.070  18.661  1.00  0.00     0.037 C 
ENDROOT
BRANCH  16  21
HETATM   21  C11 UNL     1      16.812 -17.829  23.457  1.00  0.00     0.180 C 
BRANCH  21  22
HETATM   22  N4  UNL     1      18.069 -17.057  23.405  1.00  0.00    -0.346 N 
HETATM   23  C12 UNL     1      18.276 -15.905  24.155  1.00  0.00     0.241 C 
HETATM   24  O4  UNL     1      17.347 -15.500  24.922  1.00  0.00    -0.271 OA
ATOM     25  H4  UNL     1      18.816 -17.383  22.793  1.00  0.00     0.163 HD
BRANCH  23  26
HETATM   26  C13 UNL     1      19.502 -15.116  24.130  1.00  0.00     0.180 C 
BRANCH  26  27
HETATM   27  N5  UNL     1      19.440 -14.098  23.077  1.00  0.00    -0.338 N 
HETATM   28  C14 UNL     1      19.796 -14.348  21.733  1.00  0.00     0.319 C 
HETATM   29  O5  UNL     1      20.193 -15.466  21.350  1.00  0.00    -0.261 OA
ATOM     30  H5  UNL     1      19.123 -13.161  23.327  1.00  0.00     0.163 HD
BRANCH  28  31
HETATM   31  C15 UNL     1      19.708 -13.279  20.729  1.00  0.00     0.270 C 
HETATM   32  O6  UNL     1      18.818 -12.386  20.851  1.00  0.00    -0.640 OA
HETATM   33  O7  UNL     1      20.563 -13.206  19.646  1.00  0.00    -0.640 OA
ENDBRANCH  28  31
ENDBRANCH  26  27
BRANCH  26  34
HETATM   34  C16 UNL     1      19.998 -14.547  25.415  1.00  0.00     0.009 C 
HETATM   35  C17 UNL     1      20.157 -15.531  26.524  1.00  0.00     0.012 C 
HETATM   36  C18 UNL     1      21.175 -13.639  25.333  1.00  0.00     0.012 C 
ENDBRANCH  26  34
ENDBRANCH  23  26
ENDBRANCH  21  22
BRANCH  21  37
HETATM   37  C19 UNL     1      17.057 -19.068  24.318  1.00  0.00     0.009 C 
HETATM   38  C20 UNL     1      16.459 -18.878  25.672  1.00  0.00     0.012 C 
HETATM   39  C21 UNL     1      18.539 -19.341  24.467  1.00  0.00     0.012 C 
ENDBRANCH  21  37
ENDBRANCH  16  21
BRANCH  18  40
HETATM   40  O8  UNL     1      15.756 -19.686  19.874  1.00  0.00    -0.360 OA
BRANCH  40  41
HETATM   41  C23 UNL     1      15.124 -20.747  19.235  1.00  0.00     0.116 C 
HETATM   42  C24 UNL     1      16.101 -21.767  18.707  1.00  0.00     0.039 C 
HETATM   43  C25 UNL     1      14.165 -21.426  20.135  1.00  0.00     0.039 C 
ENDBRANCH  40  41
ENDBRANCH  18  40
TORSDOF 9
ENDMDL
MODEL 5
REMARK VINA RESULT: -7.098668000      2.370      8.376
REMARK  9 active torsions:
REMARK  status: ('A' for Active; 'I' for Inactive)
REMARK       I    between atoms: C2_2  and  N1_4 
REMARK       I    between atoms: N3_15  and  C10_16 
REMARK    1  A    between atoms: C10_16  and  C11_18 
REMARK    2  A    between atoms: C11_18  and  N4_19 
REMARK    3  A    between atoms: C11_18  and  C19_34 
REMARK       I    between atoms: N4_19  and  C12_21 
REMARK    4  A    between atoms: C12_21  and  C13_23 
REMARK    5  A    between atoms: C13_23  and  N5_24 
REMARK    6  A    between atoms: C13_23  and  C16_31 
REMARK       I    between atoms: N5_24  and  C14_26 
REMARK    7  A    between atoms: C14_26  and  C15_28 
REMARK    8  A    between atoms: C22_37  and  O8_38 
REMARK    9  A    between atoms: O8_38  and  C23_39 
ROOT
HETATM    1  C1  UNL     1      11.556 -16.739  19.185  1.00  0.00     0.117 C 
HETATM    2  C2  UNL     1      12.675 -17.667  19.504  1.00  0.00     0.216 C 
HETATM    3  O1  UNL     1      12.788 -18.703  18.803  1.00  0.00    -0.274 OA
HETATM    4  N1  UNL     1      13.593 -17.411  20.556  1.00  0.00    -0.342 N 
HETATM    5  C3  UNL     1      14.605 -18.400  20.728  1.00  0.00     0.159 C 
HETATM    6  C4  UNL     1      15.999 -17.983  20.916  1.00  0.00     0.070 C 
HETATM    7  C5  UNL     1      16.849 -18.880  19.942  1.00  0.00     0.081 C 
HETATM    8  C6  UNL     1      16.831 -20.237  20.563  1.00  0.00     0.264 C 
HETATM    9  F1  UNL     1      16.013 -21.149  19.953  1.00  0.00    -0.239 F 
HETATM   10  C7  UNL     1      16.452 -19.961  21.986  1.00  0.00     0.254 C 
HETATM   11  O2  UNL     1      16.151 -20.839  22.852  1.00  0.00    -0.270 OA
HETATM   12  N2  UNL     1      16.500 -18.524  22.160  1.00  0.00    -0.341 N 
HETATM   13  C8  UNL     1      16.965 -17.945  23.380  1.00  0.00     0.153 C 
HETATM   14  C9  UNL     1      16.440 -16.618  20.574  1.00  0.00     0.161 C 
HETATM   15  N3  UNL     1      15.748 -15.485  21.079  1.00  0.00    -0.319 N 
HETATM   16  C10 UNL     1      16.521 -14.563  21.809  1.00  0.00     0.245 C 
HETATM   17  O3  UNL     1      15.890 -13.649  22.463  1.00  0.00    -0.271 OA
HETATM   18  C22 UNL     1      14.391 -15.141  20.851  1.00  0.00     0.248 C 
HETATM   19  C26 UNL     1      13.385 -16.200  21.298  1.00  0.00     0.132 C 
HETATM   20  C27 UNL     1      13.441 -16.333  22.783  1.00  0.00     0.037 C 
ENDROOT
BRANCH  16  21
HETATM   21  C11 UNL     1      18.014 -14.546  21.889  1.00  0.00     0.180 C 
BRANCH  21  22
HETATM   22  N4  UNL     1      18.429 -14.372  23.294  1.00  0.00    -0.346 N 
HETATM   23  C12 UNL     1      19.393 -15.171  23.899  1.00  0.00     0.241 C 
HETATM   24  O4  UNL     1      19.945 -16.087  23.212  1.00  0.00    -0.271 OA
ATOM     25  H4  UNL     1      17.989 -13.635  23.845  1.00  0.00     0.163 HD
BRANCH  23  26
HETATM   26  C13 UNL     1      19.829 -15.031  25.282  1.00  0.00     0.180 C 
BRANCH  26  27
HETATM   27  N5  UNL     1      20.202 -16.334  25.841  1.00  0.00    -0.338 N 
HETATM   28  C14 UNL     1      19.305 -17.160  26.553  1.00  0.00     0.319 C 
HETATM   29  O5  UNL     1      18.120 -16.829  26.756  1.00  0.00    -0.261 OA
ATOM     30  H5  UNL     1      21.159 -16.661  25.708  1.00  0.00     0.163 HD
BRANCH  28  31
HETATM   31  C15 UNL     1      19.748 -18.456  27.084  1.00  0.00     0.270 C 
HETATM   32  O6  UNL     1      20.821 -18.970  26.649  1.00  0.00    -0.640 OA
HETATM   33  O7  UNL     1      19.038 -19.145  28.049  1.00  0.00    -0.640 OA
ENDBRANCH  28  31
ENDBRANCH  26  27
BRANCH  26  34
HETATM   34  C16 UNL     1      20.844 -13.987  25.598  1.00  0.00     0.009 C 
HETATM   35  C17 UNL     1      20.940 -13.611  27.037  1.00  0.00     0.012 C 
HETATM   36  C18 UNL     1      22.197 -14.169  25.002  1.00  0.00     0.012 C 
ENDBRANCH  26  34
ENDBRANCH  23  26
ENDBRANCH  21  22
BRANCH  21  37
HETATM   37  C19 UNL     1      18.570 -13.370  21.086  1.00  0.00     0.009 C 
HETATM   38  C20 UNL     1      17.772 -13.176  19.840  1.00  0.00     0.012 C 
HETATM   39  C21 UNL     1      20.018 -13.605  20.711  1.00  0.00     0.012 C 
ENDBRANCH  21  37
ENDBRANCH  16  21
BRANCH  18  40
HETATM   40  O8  UNL     1      13.935 -13.923  21.277  1.00  0.00    -0.360 OA
BRANCH  40  41
HETATM   41  C23 UNL     1      13.440 -13.148  20.233  1.00  0.00     0.116 C 
HETATM   42  C24 UNL     1      13.440 -11.675  20.559  1.00  0.00     0.039 C 
HETATM   43  C25 UNL     1      14.213 -13.362  18.988  1.00  0.00     0.039 C 
ENDBRANCH  40  41
ENDBRANCH  18  40
TORSDOF 9
ENDMDL
