MODEL 1
REMARK VINA RESULT: -8.204364676      0.000      0.000
REMARK  11 active torsions:
REMARK  status: ('A' for Active; 'I' for Inactive)
REMARK    1  A    between atoms: C3_3  and  C4_4 
REMARK    2  A    between atoms: C4_4  and  O1_5 
REMARK    3  A    between atoms: C4_4  and  C5_7 
REMARK    4  A    between atoms: C4_4  and  S2_34 
REMARK    5  A    between atoms: C5_7  and  N1_8 
REMARK    6  A    between atoms: N1_8  and  N2_9 
REMARK    7  A    between atoms: N1_8  and  C14_29 
REMARK    8  A    between atoms: C7_14  and  N4_15 
REMARK    9  A    between atoms: N4_15  and  S1_16 
REMARK   10  A    between atoms: S1_16  and  N5_19 
REMARK   11  A    between atoms: S2_34  and  N7_37 
ROOT
HETATM    1  C1  UNL     1      17.974 -16.978  27.294  1.00  0.00     0.112 C 
HETATM    2  C2  UNL     1      18.583 -17.239  25.996  1.00  0.00    -0.107 C 
HETATM    3  C3  UNL     1      19.079 -17.472  24.898  1.00  0.00    -0.049 C 
ENDROOT
BRANCH   3   4
HETATM    4  C4  UNL     1      19.690 -17.769  23.602  1.00  0.00     0.262 C 
BRANCH   4   5
HETATM    5  O1  UNL     1      20.852 -18.523  23.946  1.00  0.00    -0.362 OA
ATOM      6  H1  UNL     1      21.440 -18.371  23.217  1.00  0.00     0.213 HD
ENDBRANCH   4   5
BRANCH   4   7
HETATM    7  C5  UNL     1      20.204 -16.596  22.894  1.00  0.00     0.213 C 
BRANCH   7   8
HETATM    8  N1  UNL     1      19.894 -15.273  23.361  1.00  0.00    -0.317 N 
BRANCH   8   9
HETATM    9  N2  UNL     1      18.696 -14.756  23.038  1.00  0.00    -0.286 N 
HETATM   10  C6  UNL     1      18.047 -14.104  22.231  1.00  0.00     0.146 A 
HETATM   11  N3  UNL     1      16.727 -13.883  22.468  1.00  0.00    -0.299 N 
HETATM   12  C13 UNL     1      18.575 -13.551  21.087  1.00  0.00     0.095 A 
HETATM   13  C7  UNL     1      15.910 -13.162  21.658  1.00  0.00     0.274 A 
ATOM     14  H3  UNL     1      16.322 -14.287  23.312  1.00  0.00     0.171 HD
HETATM   15  N6  UNL     1      16.488 -12.631  20.527  1.00  0.00    -0.324 N 
HETATM   16  C12 UNL     1      17.776 -12.804  20.227  1.00  0.00     0.120 A 
ATOM     17  H6  UNL     1      15.907 -12.083  19.892  1.00  0.00     0.169 HD
HETATM   18 CL1  UNL     1      20.248 -13.723  20.610  1.00  0.00    -0.079 Cl
ATOM     19  H2  UNL     1      18.053 -15.021  23.785  1.00  0.00     0.188 HD
BRANCH  13  20
HETATM   20  N4  UNL     1      14.739 -12.964  21.862  1.00  0.00    -0.273 NA
BRANCH  20  21
HETATM   21  S1  UNL     1      13.200 -12.705  22.124  1.00  0.00     0.371 S 
HETATM   22  O2  UNL     1      12.386 -12.208  20.911  1.00  0.00    -0.174 OA
HETATM   23  O3  UNL     1      12.473 -14.008  22.515  1.00  0.00    -0.174 OA
BRANCH  21  24
HETATM   24  N5  UNL     1      12.851 -11.605  23.442  1.00  0.00    -0.182 NA
HETATM   25  C8  UNL     1      11.476 -11.626  23.828  1.00  0.00     0.110 C 
HETATM   26  C9  UNL     1      11.338 -10.345  24.646  1.00  0.00     0.017 C 
HETATM   27  C10 UNL     1      12.400  -9.436  24.118  1.00  0.00     0.017 C 
HETATM   28  C11 UNL     1      13.092 -10.244  23.038  1.00  0.00     0.110 C 
ENDBRANCH  21  24
ENDBRANCH  20  21
ENDBRANCH  13  20
ENDBRANCH   8   9
BRANCH   8  29
HETATM   29  C14 UNL     1      20.753 -14.472  24.178  1.00  0.00     0.102 C 
HETATM   30  C15 UNL     1      21.951 -15.264  24.631  1.00  0.00     0.027 C 
HETATM   31  C16 UNL     1      22.349 -14.659  25.969  1.00  0.00     0.002 C 
HETATM   32  C17 UNL     1      21.409 -13.525  26.194  1.00  0.00     0.002 C 
HETATM   33  C18 UNL     1      20.134 -14.021  25.480  1.00  0.00     0.027 C 
ENDBRANCH   8  29
ENDBRANCH   7   8
ENDBRANCH   4   7
BRANCH   4  34
HETATM   34  S2  UNL     1      18.716 -18.917  22.671  1.00  0.00     0.275 S 
HETATM   35  O4  UNL     1      18.437 -20.120  23.519  1.00  0.00    -0.202 OA
HETATM   36  O5  UNL     1      19.386 -19.381  21.425  1.00  0.00    -0.202 OA
BRANCH  34  37
HETATM   37  N7  UNL     1      17.291 -18.079  22.237  1.00  0.00    -0.303 N 
HETATM   38  C19 UNL     1      16.241 -18.036  23.164  1.00  0.00     0.161 C 
HETATM   39  C20 UNL     1      15.022 -17.469  22.412  1.00  0.00     0.188 C 
HETATM   40  O6  UNL     1      15.422 -16.442  21.563  1.00  0.00    -0.388 OA
HETATM   41  C21 UNL     1      16.239 -16.831  20.529  1.00  0.00     0.188 C 
HETATM   42  C22 UNL     1      16.871 -18.187  20.891  1.00  0.00     0.161 C 
ENDBRANCH  34  37
ENDBRANCH   4  34
ENDBRANCH   3   4
TORSDOF 11
ENDMDL
MODEL 2
REMARK VINA RESULT: -8.150352094      1.623      3.422
REMARK  11 active torsions:
REMARK  status: ('A' for Active; 'I' for Inactive)
REMARK    1  A    between atoms: C3_3  and  C4_4 
REMARK    2  A    between atoms: C4_4  and  O1_5 
REMARK    3  A    between atoms: C4_4  and  C5_7 
REMARK    4  A    between atoms: C4_4  and  S2_34 
REMARK    5  A    between atoms: C5_7  and  N1_8 
REMARK    6  A    between atoms: N1_8  and  N2_9 
REMARK    7  A    between atoms: N1_8  and  C14_29 
REMARK    8  A    between atoms: C7_14  and  N4_15 
REMARK    9  A    between atoms: N4_15  and  S1_16 
REMARK   10  A    between atoms: S1_16  and  N5_19 
REMARK   11  A    between atoms: S2_34  and  N7_37 
ROOT
HETATM    1  C1  UNL     1      16.107 -17.524  20.278  1.00  0.00     0.112 C 
HETATM    2  C2  UNL     1      17.142 -17.488  21.303  1.00  0.00    -0.107 C 
HETATM    3  C3  UNL     1      17.998 -17.459  22.182  1.00  0.00    -0.049 C 
ENDROOT
BRANCH   3   4
HETATM    4  C4  UNL     1      19.022 -17.395  23.225  1.00  0.00     0.262 C 
BRANCH   4   5
HETATM    5  O1  UNL     1      18.275 -17.110  24.408  1.00  0.00    -0.362 OA
ATOM      6  H1  UNL     1      18.867 -16.574  24.920  1.00  0.00     0.213 HD
ENDBRANCH   4   5
BRANCH   4   7
HETATM    7  C5  UNL     1      19.952 -16.273  23.092  1.00  0.00     0.213 C 
BRANCH   7   8
HETATM    8  N1  UNL     1      19.595 -14.972  23.588  1.00  0.00    -0.317 N 
BRANCH   8   9
HETATM    9  N2  UNL     1      18.476 -14.401  23.109  1.00  0.00    -0.286 N 
HETATM   10  C6  UNL     1      17.937 -13.843  22.163  1.00  0.00     0.146 A 
HETATM   11  N3  UNL     1      16.641 -13.448  22.278  1.00  0.00    -0.299 N 
HETATM   12  C13 UNL     1      18.568 -13.565  20.972  1.00  0.00     0.095 A 
HETATM   13  C7  UNL     1      15.943 -12.805  21.308  1.00  0.00     0.274 A 
ATOM     14  H3  UNL     1      16.160 -13.648  23.155  1.00  0.00     0.171 HD
HETATM   15  N6  UNL     1      16.621 -12.551  20.137  1.00  0.00    -0.324 N 
HETATM   16  C12 UNL     1      17.892 -12.908  19.948  1.00  0.00     0.120 A 
ATOM     17  H6  UNL     1      16.131 -12.070  19.382  1.00  0.00     0.169 HD
HETATM   18 CL1  UNL     1      20.229 -13.992  20.633  1.00  0.00    -0.079 Cl
ATOM     19  H2  UNL     1      17.778 -14.458  23.851  1.00  0.00     0.188 HD
BRANCH  13  20
HETATM   20  N4  UNL     1      14.794 -12.453  21.404  1.00  0.00    -0.273 NA
BRANCH  20  21
HETATM   21  S1  UNL     1      13.287 -11.991  21.536  1.00  0.00     0.371 S 
HETATM   22  O2  UNL     1      12.863 -10.815  20.631  1.00  0.00    -0.174 OA
HETATM   23  O3  UNL     1      12.319 -13.116  21.112  1.00  0.00    -0.174 OA
BRANCH  21  24
HETATM   24  N5  UNL     1      12.782 -11.576  23.161  1.00  0.00    -0.182 NA
HETATM   25  C8  UNL     1      11.501 -12.114  23.494  1.00  0.00     0.110 C 
HETATM   26  C9  UNL     1      11.107 -11.301  24.724  1.00  0.00     0.017 C 
HETATM   27  C10 UNL     1      11.841 -10.007  24.582  1.00  0.00     0.017 C 
HETATM   28  C11 UNL     1      12.620 -10.152  23.289  1.00  0.00     0.110 C 
ENDBRANCH  21  24
ENDBRANCH  20  21
ENDBRANCH  13  20
ENDBRANCH   8   9
BRANCH   8  29
HETATM   29  C14 UNL     1      20.324 -14.248  24.584  1.00  0.00     0.102 C 
HETATM   30  C15 UNL     1      21.807 -14.376  24.359  1.00  0.00     0.027 C 
HETATM   31  C16 UNL     1      22.433 -14.255  25.741  1.00  0.00     0.002 C 
HETATM   32  C17 UNL     1      21.300 -14.010  26.677  1.00  0.00     0.002 C 
HETATM   33  C18 UNL     1      20.148 -14.773  25.990  1.00  0.00     0.027 C 
ENDBRANCH   8  29
ENDBRANCH   7   8
ENDBRANCH   4   7
BRANCH   4  34
HETATM   34  S2  UNL     1      19.717 -18.989  23.553  1.00  0.00     0.275 S 
HETATM   35  O4  UNL     1      19.252 -19.950  22.501  1.00  0.00    -0.202 OA
HETATM   36  O5  UNL     1      19.327 -19.539  24.881  1.00  0.00    -0.202 OA
BRANCH  34  37
HETATM   37  N7  UNL     1      21.413 -18.775  23.537  1.00  0.00    -0.303 N 
HETATM   38  C19 UNL     1      22.137 -19.318  22.466  1.00  0.00     0.161 C 
HETATM   39  C20 UNL     1      23.625 -19.212  22.851  1.00  0.00     0.188 C 
HETATM   40  O6  UNL     1      23.866 -17.997  23.486  1.00  0.00    -0.388 OA
HETATM   41  C21 UNL     1      23.245 -17.846  24.702  1.00  0.00     0.188 C 
HETATM   42  C22 UNL     1      22.079 -18.847  24.781  1.00  0.00     0.161 C 
ENDBRANCH  34  37
ENDBRANCH   4  34
ENDBRANCH   3   4
TORSDOF 11
ENDMDL
MODEL 3
REMARK VINA RESULT: -8.111001360      1.672      2.980
REMARK  11 active torsions:
REMARK  status: ('A' for Active; 'I' for Inactive)
REMARK    1  A    between atoms: C3_3  and  C4_4 
REMARK    2  A    between atoms: C4_4  and  O1_5 
REMARK    3  A    between atoms: C4_4  and  C5_7 
REMARK    4  A    between atoms: C4_4  and  S2_34 
REMARK    5  A    between atoms: C5_7  and  N1_8 
REMARK    6  A    between atoms: N1_8  and  N2_9 
REMARK    7  A    between atoms: N1_8  and  C14_29 
REMARK    8  A    between atoms: C7_14  and  N4_15 
REMARK    9  A    between atoms: N4_15  and  S1_16 
REMARK   10  A    between atoms: S1_16  and  N5_19 
REMARK   11  A    between atoms: S2_34  and  N7_37 
ROOT
HETATM    1  C1  UNL     1      16.144 -17.479  20.207  1.00  0.00     0.112 C 
HETATM    2  C2  UNL     1      17.113 -17.437  21.295  1.00  0.00    -0.107 C 
HETATM    3  C3  UNL     1      17.938 -17.421  22.203  1.00  0.00    -0.049 C 
ENDROOT
BRANCH   3   4
HETATM    4  C4  UNL     1      18.901 -17.412  23.305  1.00  0.00     0.262 C 
BRANCH   4   5
HETATM    5  O1  UNL     1      18.103 -17.087  24.442  1.00  0.00    -0.362 OA
ATOM      6  H1  UNL     1      18.204 -17.843  25.008  1.00  0.00     0.213 HD
ENDBRANCH   4   5
BRANCH   4   7
HETATM    7  C5  UNL     1      19.895 -16.341  23.229  1.00  0.00     0.213 C 
BRANCH   7   8
HETATM    8  N1  UNL     1      19.571 -15.015  23.680  1.00  0.00    -0.317 N 
BRANCH   8   9
HETATM    9  N2  UNL     1      18.466 -14.434  23.182  1.00  0.00    -0.286 N 
HETATM   10  C6  UNL     1      17.950 -13.869  22.227  1.00  0.00     0.146 A 
HETATM   11  N3  UNL     1      16.656 -13.462  22.319  1.00  0.00    -0.299 N 
HETATM   12  C13 UNL     1      18.606 -13.595  21.049  1.00  0.00     0.095 A 
HETATM   13  C7  UNL     1      15.982 -12.812  21.337  1.00  0.00     0.274 A 
ATOM     14  H3  UNL     1      16.157 -13.659  23.186  1.00  0.00     0.171 HD
HETATM   15  N6  UNL     1      16.684 -12.562  20.179  1.00  0.00    -0.324 N 
HETATM   16  C12 UNL     1      17.955 -12.930  20.013  1.00  0.00     0.120 A 
ATOM     17  H6  UNL     1      16.213 -12.075  19.416  1.00  0.00     0.169 HD
HETATM   18 CL1  UNL     1      20.268 -14.037  20.740  1.00  0.00    -0.079 Cl
ATOM     19  H2  UNL     1      17.754 -14.485  23.911  1.00  0.00     0.188 HD
BRANCH  13  20
HETATM   20  N4  UNL     1      14.835 -12.450  21.412  1.00  0.00    -0.273 NA
BRANCH  20  21
HETATM   21  S1  UNL     1      13.331 -11.969  21.514  1.00  0.00     0.371 S 
HETATM   22  O2  UNL     1      12.949 -10.765  20.628  1.00  0.00    -0.174 OA
HETATM   23  O3  UNL     1      12.360 -13.069  21.036  1.00  0.00    -0.174 OA
BRANCH  21  24
HETATM   24  N5  UNL     1      12.787 -11.588  23.135  1.00  0.00    -0.182 NA
HETATM   25  C8  UNL     1      11.499 -12.132  23.426  1.00  0.00     0.110 C 
HETATM   26  C9  UNL     1      11.075 -11.345  24.663  1.00  0.00     0.017 C 
HETATM   27  C10 UNL     1      11.811 -10.048  24.564  1.00  0.00     0.017 C 
HETATM   28  C11 UNL     1      12.621 -10.166  23.288  1.00  0.00     0.110 C 
ENDBRANCH  21  24
ENDBRANCH  20  21
ENDBRANCH  13  20
ENDBRANCH   8   9
BRANCH   8  29
HETATM   29  C14 UNL     1      20.317 -14.277  24.652  1.00  0.00     0.102 C 
HETATM   30  C15 UNL     1      21.796 -14.392  24.391  1.00  0.00     0.027 C 
HETATM   31  C16 UNL     1      22.455 -14.254  25.756  1.00  0.00     0.002 C 
HETATM   32  C17 UNL     1      21.343 -14.012  26.718  1.00  0.00     0.002 C 
HETATM   33  C18 UNL     1      20.182 -14.791  26.066  1.00  0.00     0.027 C 
ENDBRANCH   8  29
ENDBRANCH   7   8
ENDBRANCH   4   7
BRANCH   4  34
HETATM   34  S2  UNL     1      19.490 -19.041  23.668  1.00  0.00     0.275 S 
HETATM   35  O4  UNL     1      18.317 -19.938  23.923  1.00  0.00    -0.202 OA
HETATM   36  O5  UNL     1      20.374 -19.093  24.864  1.00  0.00    -0.202 OA
BRANCH  34  37
HETATM   37  N7  UNL     1      20.399 -19.527  22.305  1.00  0.00    -0.303 N 
HETATM   38  C19 UNL     1      19.872 -20.532  21.483  1.00  0.00     0.161 C 
HETATM   39  C20 UNL     1      21.003 -20.944  20.522  1.00  0.00     0.188 C 
HETATM   40  O6  UNL     1      21.708 -19.817  20.107  1.00  0.00    -0.388 OA
HETATM   41  C21 UNL     1      22.400 -19.170  21.101  1.00  0.00     0.188 C 
HETATM   42  C22 UNL     1      21.803 -19.581  22.458  1.00  0.00     0.161 C 
ENDBRANCH  34  37
ENDBRANCH   4  34
ENDBRANCH   3   4
TORSDOF 11
ENDMDL
MODEL 4
REMARK VINA RESULT: -8.099375101      1.603      3.109
REMARK  11 active torsions:
REMARK  status: ('A' for Active; 'I' for Inactive)
REMARK    1  A    between atoms: C3_3  and  C4_4 
REMARK    2  A    between atoms: C4_4  and  O1_5 
REMARK    3  A    between atoms: C4_4  and  C5_7 
REMARK    4  A    between atoms: C4_4  and  S2_34 
REMARK    5  A    between atoms: C5_7  and  N1_8 
REMARK    6  A    between atoms: N1_8  and  N2_9 
REMARK    7  A    between atoms: N1_8  and  C14_29 
REMARK    8  A    between atoms: C7_14  and  N4_15 
REMARK    9  A    between atoms: N4_15  and  S1_16 
REMARK   10  A    between atoms: S1_16  and  N5_19 
REMARK   11  A    between atoms: S2_34  and  N7_37 
ROOT
HETATM    1  C1  UNL     1      16.128 -17.466  20.205  1.00  0.00     0.112 C 
HETATM    2  C2  UNL     1      17.075 -17.450  21.312  1.00  0.00    -0.107 C 
HETATM    3  C3  UNL     1      17.857 -17.444  22.258  1.00  0.00    -0.049 C 
ENDROOT
BRANCH   3   4
HETATM    4  C4  UNL     1      18.786 -17.407  23.388  1.00  0.00     0.262 C 
BRANCH   4   5
HETATM    5  O1  UNL     1      17.965 -17.000  24.481  1.00  0.00    -0.362 OA
ATOM      6  H1  UNL     1      17.263 -16.516  24.064  1.00  0.00     0.213 HD
ENDBRANCH   4   5
BRANCH   4   7
HETATM    7  C5  UNL     1      19.816 -16.373  23.290  1.00  0.00     0.213 C 
BRANCH   7   8
HETATM    8  N1  UNL     1      19.532 -15.024  23.699  1.00  0.00    -0.317 N 
BRANCH   8   9
HETATM    9  N2  UNL     1      18.432 -14.434  23.200  1.00  0.00    -0.286 N 
HETATM   10  C6  UNL     1      17.919 -13.873  22.241  1.00  0.00     0.146 A 
HETATM   11  N3  UNL     1      16.631 -13.448  22.335  1.00  0.00    -0.299 N 
HETATM   12  C13 UNL     1      18.572 -13.620  21.057  1.00  0.00     0.095 A 
HETATM   13  C7  UNL     1      15.961 -12.800  21.349  1.00  0.00     0.274 A 
ATOM     14  H3  UNL     1      16.134 -13.629  23.207  1.00  0.00     0.171 HD
HETATM   15  N6  UNL     1      16.660 -12.571  20.185  1.00  0.00    -0.324 N 
HETATM   16  C12 UNL     1      17.925 -12.958  20.017  1.00  0.00     0.120 A 
ATOM     17  H6  UNL     1      16.191 -12.087  19.420  1.00  0.00     0.169 HD
HETATM   18 CL1  UNL     1      20.227 -14.087  20.744  1.00  0.00    -0.079 Cl
ATOM     19  H2  UNL     1      17.724 -14.468  23.933  1.00  0.00     0.188 HD
BRANCH  13  20
HETATM   20  N4  UNL     1      14.819 -12.421  21.426  1.00  0.00    -0.273 NA
BRANCH  20  21
HETATM   21  S1  UNL     1      13.320 -11.926  21.533  1.00  0.00     0.371 S 
HETATM   22  O2  UNL     1      12.954 -10.700  20.669  1.00  0.00    -0.174 OA
HETATM   23  O3  UNL     1      12.338 -13.005  21.031  1.00  0.00    -0.174 OA
BRANCH  21  24
HETATM   24  N5  UNL     1      12.775 -11.569  23.159  1.00  0.00    -0.182 NA
HETATM   25  C8  UNL     1      11.504 -12.150  23.453  1.00  0.00     0.110 C 
HETATM   26  C9  UNL     1      11.065 -11.382  24.697  1.00  0.00     0.017 C 
HETATM   27  C10 UNL     1      11.765 -10.065  24.603  1.00  0.00     0.017 C 
HETATM   28  C11 UNL     1      12.571 -10.153  23.321  1.00  0.00     0.110 C 
ENDBRANCH  21  24
ENDBRANCH  20  21
ENDBRANCH  13  20
ENDBRANCH   8   9
BRANCH   8  29
HETATM   29  C14 UNL     1      20.314 -14.270  24.631  1.00  0.00     0.102 C 
HETATM   30  C15 UNL     1      21.783 -14.408  24.330  1.00  0.00     0.027 C 
HETATM   31  C16 UNL     1      22.483 -14.244  25.671  1.00  0.00     0.002 C 
HETATM   32  C17 UNL     1      21.402 -13.967  26.659  1.00  0.00     0.002 C 
HETATM   33  C18 UNL     1      20.215 -14.750  26.060  1.00  0.00     0.027 C 
ENDBRANCH   8  29
ENDBRANCH   7   8
ENDBRANCH   4   7
BRANCH   4  34
HETATM   34  S2  UNL     1      19.311 -19.033  23.851  1.00  0.00     0.275 S 
HETATM   35  O4  UNL     1      20.740 -19.219  23.440  1.00  0.00    -0.202 OA
HETATM   36  O5  UNL     1      18.508 -20.113  23.215  1.00  0.00    -0.202 OA
BRANCH  34  37
HETATM   37  N7  UNL     1      19.101 -19.130  25.544  1.00  0.00    -0.303 N 
HETATM   38  C19 UNL     1      20.205 -18.860  26.364  1.00  0.00     0.161 C 
HETATM   39  C20 UNL     1      19.801 -19.284  27.789  1.00  0.00     0.188 C 
HETATM   40  O6  UNL     1      18.478 -18.929  28.034  1.00  0.00    -0.388 OA
HETATM   41  C21 UNL     1      17.550 -19.589  27.266  1.00  0.00     0.188 C 
HETATM   42  C22 UNL     1      18.261 -20.160  26.026  1.00  0.00     0.161 C 
ENDBRANCH  34  37
ENDBRANCH   4  34
ENDBRANCH   3   4
TORSDOF 11
ENDMDL
MODEL 5
REMARK VINA RESULT: -8.087575528      1.284      1.987
REMARK  11 active torsions:
REMARK  status: ('A' for Active; 'I' for Inactive)
REMARK    1  A    between atoms: C3_3  and  C4_4 
REMARK    2  A    between atoms: C4_4  and  O1_5 
REMARK    3  A    between atoms: C4_4  and  C5_7 
REMARK    4  A    between atoms: C4_4  and  S2_34 
REMARK    5  A    between atoms: C5_7  and  N1_8 
REMARK    6  A    between atoms: N1_8  and  N2_9 
REMARK    7  A    between atoms: N1_8  and  C14_29 
REMARK    8  A    between atoms: C7_14  and  N4_15 
REMARK    9  A    between atoms: N4_15  and  S1_16 
REMARK   10  A    between atoms: S1_16  and  N5_19 
REMARK   11  A    between atoms: S2_34  and  N7_37 
ROOT
HETATM    1  C1  UNL     1      18.314 -17.428  27.775  1.00  0.00     0.112 C 
HETATM    2  C2  UNL     1      18.515 -17.469  26.332  1.00  0.00    -0.107 C 
HETATM    3  C3  UNL     1      18.705 -17.509  25.121  1.00  0.00    -0.049 C 
ENDROOT
BRANCH   3   4
HETATM    4  C4  UNL     1      18.934 -17.529  23.676  1.00  0.00     0.262 C 
BRANCH   4   5
HETATM    5  O1  UNL     1      19.644 -18.749  23.467  1.00  0.00    -0.362 OA
ATOM      6  H1  UNL     1      20.437 -18.472  23.025  1.00  0.00     0.213 HD
ENDBRANCH   4   5
BRANCH   4   7
HETATM    7  C5  UNL     1      19.839 -16.484  23.194  1.00  0.00     0.213 C 
BRANCH   7   8
HETATM    8  N1  UNL     1      19.611 -15.108  23.542  1.00  0.00    -0.317 N 
BRANCH   8   9
HETATM    9  N2  UNL     1      18.497 -14.518  23.075  1.00  0.00    -0.286 N 
HETATM   10  C6  UNL     1      17.974 -13.904  22.155  1.00  0.00     0.146 A 
HETATM   11  N3  UNL     1      16.672 -13.529  22.265  1.00  0.00    -0.299 N 
HETATM   12  C13 UNL     1      18.629 -13.543  21.000  1.00  0.00     0.095 A 
HETATM   13  C7  UNL     1      15.989 -12.831  21.323  1.00  0.00     0.274 A 
ATOM     14  H3  UNL     1      16.173 -13.790  23.116  1.00  0.00     0.171 HD
HETATM   15  N6  UNL     1      16.691 -12.495  20.187  1.00  0.00    -0.324 N 
HETATM   16  C12 UNL     1      17.970 -12.827  20.005  1.00  0.00     0.120 A 
ATOM     17  H6  UNL     1      16.213 -11.970  19.454  1.00  0.00     0.169 HD
HETATM   18 CL1  UNL     1      20.301 -13.933  20.672  1.00  0.00    -0.079 Cl
ATOM     19  H2  UNL     1      17.783 -14.629  23.796  1.00  0.00     0.188 HD
BRANCH  13  20
HETATM   20  N4  UNL     1      14.835 -12.497  21.414  1.00  0.00    -0.273 NA
BRANCH  20  21
HETATM   21  S1  UNL     1      13.321 -12.053  21.538  1.00  0.00     0.371 S 
HETATM   22  O2  UNL     1      12.878 -10.910  20.601  1.00  0.00    -0.174 OA
HETATM   23  O3  UNL     1      12.368 -13.203  21.152  1.00  0.00    -0.174 OA
BRANCH  21  24
HETATM   24  N5  UNL     1      12.816 -11.597  23.153  1.00  0.00    -0.182 NA
HETATM   25  C8  UNL     1      11.528 -12.112  23.492  1.00  0.00     0.110 C 
HETATM   26  C9  UNL     1      11.139 -11.268  24.703  1.00  0.00     0.017 C 
HETATM   27  C10 UNL     1      11.890  -9.987  24.536  1.00  0.00     0.017 C 
HETATM   28  C11 UNL     1      12.671 -10.168  23.249  1.00  0.00     0.110 C 
ENDBRANCH  21  24
ENDBRANCH  20  21
ENDBRANCH  13  20
ENDBRANCH   8   9
BRANCH   8  29
HETATM   29  C14 UNL     1      20.464 -14.325  24.381  1.00  0.00     0.102 C 
HETATM   30  C15 UNL     1      21.863 -14.883  24.392  1.00  0.00     0.027 C 
HETATM   31  C16 UNL     1      22.432 -14.511  25.753  1.00  0.00     0.002 C 
HETATM   32  C17 UNL     1      21.369 -13.717  26.431  1.00  0.00     0.002 C 
HETATM   33  C18 UNL     1      20.084 -14.337  25.843  1.00  0.00     0.027 C 
ENDBRANCH   8  29
ENDBRANCH   7   8
ENDBRANCH   4   7
BRANCH   4  34
HETATM   34  S2  UNL     1      17.427 -17.771  22.781  1.00  0.00     0.275 S 
HETATM   35  O4  UNL     1      17.747 -17.972  21.331  1.00  0.00    -0.202 OA
HETATM   36  O5  UNL     1      16.489 -16.620  22.887  1.00  0.00    -0.202 OA
BRANCH  34  37
HETATM   37  N7  UNL     1      16.680 -19.140  23.480  1.00  0.00    -0.303 N 
HETATM   38  C19 UNL     1      16.639 -20.325  22.732  1.00  0.00     0.161 C 
HETATM   39  C20 UNL     1      15.689 -21.278  23.482  1.00  0.00     0.188 C 
HETATM   40  O6  UNL     1      15.894 -21.170  24.855  1.00  0.00    -0.388 OA
HETATM   41  C21 UNL     1      15.559 -19.952  25.395  1.00  0.00     0.188 C 
HETATM   42  C22 UNL     1      15.526 -18.909  24.263  1.00  0.00     0.161 C 
ENDBRANCH  34  37
ENDBRANCH   4  34
ENDBRANCH   3   4
TORSDOF 11
ENDMDL
