MODEL 1
REMARK VINA RESULT: -7.377443560      0.000      0.000
REMARK  11 active torsions:
REMARK  status: ('A' for Active; 'I' for Inactive)
REMARK    1  A    between atoms: C2_2  and  N1_3 
REMARK    2  A    between atoms: C2_2  and  C3_7 
REMARK       I    between atoms: C3_7  and  N2_9 
REMARK    3  A    between atoms: C7_14  and  C8_15 
REMARK       I    between atoms: C8_15  and  N3_17 
REMARK    4  A    between atoms: N3_17  and  C9_19 
REMARK    5  A    between atoms: C9_19  and  C10_20 
REMARK    6  A    between atoms: C9_19  and  C16_28 
REMARK    7  A    between atoms: C10_20  and  C11_21 
REMARK       I    between atoms: C11_21  and  N4_23 
REMARK    8  A    between atoms: N4_23  and  C13_25 
REMARK       I    between atoms: C16_28  and  N5_30 
REMARK    9  A    between atoms: N5_30  and  C17_32 
REMARK       I    between atoms: N7_37  and  C21_38 
REMARK   10  A    between atoms: C21_38  and  O6_40 
REMARK   11  A    between atoms: O6_40  and  C22_41 
ROOT
HETATM    1  C9  UNL     1      13.625 -17.756  20.679  1.00  0.00     0.185 C 
ENDROOT
BRANCH   1   2
HETATM    2  N3  UNL     1      13.479 -16.280  20.493  1.00  0.00    -0.346 N 
HETATM    3  C8  UNL     1      12.977 -15.476  21.589  1.00  0.00     0.241 C 
HETATM    4  O2  UNL     1      12.685 -16.072  22.647  1.00  0.00    -0.271 OA
ATOM      5  H3  UNL     1      13.730 -15.845  19.606  1.00  0.00     0.163 HD
BRANCH   3   6
HETATM    6  C7  UNL     1      12.849 -14.068  21.385  1.00  0.00     0.182 C 
HETATM    7  N2  UNL     1      13.923 -13.268  20.904  1.00  0.00    -0.334 N 
HETATM    8  C3  UNL     1      15.289 -13.461  20.656  1.00  0.00     0.251 C 
HETATM    9  C4  UNL     1      13.230 -11.957  20.698  1.00  0.00     0.164 C 
HETATM   10  O1  UNL     1      15.850 -14.562  20.837  1.00  0.00    -0.271 OA
HETATM   11  C5  UNL     1      12.489 -11.820  21.993  1.00  0.00     0.190 C 
HETATM   12  F1  UNL     1      13.015 -10.945  22.886  1.00  0.00    -0.248 F 
HETATM   13  C6  UNL     1      12.432 -13.239  22.601  1.00  0.00     0.074 C 
BRANCH   8  14
HETATM   14  C2  UNL     1      16.179 -12.367  20.155  1.00  0.00     0.271 C 
HETATM   15  C1  UNL     1      17.638 -12.624  20.537  1.00  0.00     0.050 C 
BRANCH  14  16
HETATM   16  N1  UNL     1      16.071 -12.306  18.695  1.00  0.00    -0.067 N 
ATOM     17  H13 UNL     1      15.967 -11.351  18.353  1.00  0.00     0.275 HD
ATOM     18  H12 UNL     1      16.953 -12.529  18.231  1.00  0.00     0.275 HD
ATOM     19  H11 UNL     1      15.309 -12.913  18.392  1.00  0.00     0.275 HD
ENDBRANCH  14  16
ENDBRANCH   8  14
ENDBRANCH   3   6
ENDBRANCH   1   2
BRANCH   1  20
HETATM   20  C10 UNL     1      13.301 -18.373  19.331  1.00  0.00     0.138 C 
BRANCH  20  21
HETATM   21  C11 UNL     1      12.012 -19.049  19.247  1.00  0.00     0.222 C 
HETATM   22  O3  UNL     1      10.950 -18.400  19.145  1.00  0.00    -0.273 OA
HETATM   23  N4  UNL     1      11.909 -20.485  19.278  1.00  0.00    -0.352 N 
HETATM   24  C12 UNL     1      13.131 -21.243  19.400  1.00  0.00     0.153 C 
BRANCH  23  25
HETATM   25  C13 UNL     1      10.657 -21.162  19.192  1.00  0.00     0.078 C 
HETATM   26  C14 UNL     1      10.448 -21.866  17.868  1.00  0.00     0.032 C 
HETATM   27  C15 UNL     1      10.420 -22.165  20.309  1.00  0.00     0.032 C 
ENDBRANCH  23  25
ENDBRANCH  20  21
ENDBRANCH   1  20
BRANCH   1  28
HETATM   28  C16 UNL     1      14.994 -18.049  21.112  1.00  0.00     0.241 C 
HETATM   29  O4  UNL     1      15.620 -19.078  20.656  1.00  0.00    -0.271 OA
HETATM   30  N5  UNL     1      15.722 -17.257  22.034  1.00  0.00    -0.344 N 
ATOM     31  H5  UNL     1      15.284 -16.419  22.416  1.00  0.00     0.163 HD
BRANCH  30  32
HETATM   32  C17 UNL     1      17.068 -17.596  22.453  1.00  0.00     0.207 C 
HETATM   33  C18 UNL     1      18.145 -16.849  21.693  1.00  0.00     0.299 C 
HETATM   34  N6  UNL     1      19.239 -16.722  22.674  1.00  0.00     0.020 N 
HETATM   35  C19 UNL     1      19.961 -17.964  22.799  1.00  0.00     0.302 C 
HETATM   36  C20 UNL     1      20.127 -15.694  22.198  1.00  0.00     0.302 C 
HETATM   37  N7  UNL     1      18.540 -16.353  23.803  1.00  0.00    -0.079 N 
HETATM   38  C21 UNL     1      18.870 -15.363  24.784  1.00  0.00     0.395 C 
HETATM   39  C26 UNL     1      17.361 -17.175  23.841  1.00  0.00     0.278 C 
HETATM   40  O5  UNL     1      18.086 -15.160  25.756  1.00  0.00    -0.236 OA
HETATM   41  O7  UNL     1      16.696 -17.477  24.890  1.00  0.00    -0.269 OA
BRANCH  38  42
HETATM   42  O6  UNL     1      20.015 -14.619  24.710  1.00  0.00    -0.292 OA
BRANCH  42  43
HETATM   43  C22 UNL     1      21.132 -14.731  25.549  1.00  0.00     0.061 C 
HETATM   44  C23 UNL     1      20.963 -14.037  26.887  1.00  0.00     0.046 C 
HETATM   45  C24 UNL     1      22.366 -14.150  24.882  1.00  0.00     0.046 C 
HETATM   46  C25 UNL     1      21.428 -16.196  25.889  1.00  0.00     0.046 C 
ENDBRANCH  42  43
ENDBRANCH  38  42
ENDBRANCH  30  32
ENDBRANCH   1  28
TORSDOF 11
ENDMDL
MODEL 2
REMARK VINA RESULT: -7.377297344      4.170      6.629
REMARK  11 active torsions:
REMARK  status: ('A' for Active; 'I' for Inactive)
REMARK    1  A    between atoms: C2_2  and  N1_3 
REMARK    2  A    between atoms: C2_2  and  C3_7 
REMARK       I    between atoms: C3_7  and  N2_9 
REMARK    3  A    between atoms: C7_14  and  C8_15 
REMARK       I    between atoms: C8_15  and  N3_17 
REMARK    4  A    between atoms: N3_17  and  C9_19 
REMARK    5  A    between atoms: C9_19  and  C10_20 
REMARK    6  A    between atoms: C9_19  and  C16_28 
REMARK    7  A    between atoms: C10_20  and  C11_21 
REMARK       I    between atoms: C11_21  and  N4_23 
REMARK    8  A    between atoms: N4_23  and  C13_25 
REMARK       I    between atoms: C16_28  and  N5_30 
REMARK    9  A    between atoms: N5_30  and  C17_32 
REMARK       I    between atoms: N7_37  and  C21_38 
REMARK   10  A    between atoms: C21_38  and  O6_40 
REMARK   11  A    between atoms: O6_40  and  C22_41 
ROOT
HETATM    1  C9  UNL     1      16.221 -12.714  19.208  1.00  0.00     0.185 C 
ENDROOT
BRANCH   1   2
HETATM    2  N3  UNL     1      16.630 -13.142  17.835  1.00  0.00    -0.346 N 
HETATM    3  C8  UNL     1      15.990 -12.536  16.686  1.00  0.00     0.241 C 
HETATM    4  O2  UNL     1      15.112 -11.677  16.909  1.00  0.00    -0.271 OA
ATOM      5  H3  UNL     1      17.352 -13.851  17.710  1.00  0.00     0.163 HD
BRANCH   3   6
HETATM    6  C7  UNL     1      16.402 -12.961  15.385  1.00  0.00     0.182 C 
HETATM    7  N2  UNL     1      16.313 -14.318  14.965  1.00  0.00    -0.334 N 
HETATM    8  C3  UNL     1      16.017 -15.544  15.575  1.00  0.00     0.251 C 
HETATM    9  C4  UNL     1      16.677 -14.190  13.518  1.00  0.00     0.164 C 
HETATM   10  O1  UNL     1      15.719 -15.630  16.785  1.00  0.00    -0.271 OA
HETATM   11  C5  UNL     1      17.902 -13.332  13.607  1.00  0.00     0.190 C 
HETATM   12  F1  UNL     1      19.086 -13.972  13.434  1.00  0.00    -0.248 F 
HETATM   13  C6  UNL     1      17.851 -12.663  14.999  1.00  0.00     0.074 C 
BRANCH   8  14
HETATM   14  C2  UNL     1      16.033 -16.841  14.830  1.00  0.00     0.271 C 
HETATM   15  C1  UNL     1      17.306 -17.634  15.129  1.00  0.00     0.050 C 
BRANCH  14  16
HETATM   16  N1  UNL     1      14.870 -17.632  15.239  1.00  0.00    -0.067 N 
ATOM     17  H13 UNL     1      14.868 -18.563  14.823  1.00  0.00     0.275 HD
ATOM     18  H12 UNL     1      14.916 -17.912  16.219  1.00  0.00     0.275 HD
ATOM     19  H11 UNL     1      14.020 -17.110  15.024  1.00  0.00     0.275 HD
ENDBRANCH  14  16
ENDBRANCH   8  14
ENDBRANCH   3   6
ENDBRANCH   1   2
BRANCH   1  20
HETATM   20  C10 UNL     1      14.824 -13.272  19.411  1.00  0.00     0.138 C 
BRANCH  20  21
HETATM   21  C11 UNL     1      13.879 -12.369  20.058  1.00  0.00     0.222 C 
HETATM   22  O3  UNL     1      13.496 -11.324  19.491  1.00  0.00    -0.273 OA
HETATM   23  N4  UNL     1      13.351 -12.643  21.369  1.00  0.00    -0.352 N 
HETATM   24  C12 UNL     1      13.792 -13.845  22.033  1.00  0.00     0.153 C 
BRANCH  23  25
HETATM   25  C13 UNL     1      12.422 -11.773  22.013  1.00  0.00     0.078 C 
HETATM   26  C14 UNL     1      11.453 -12.501  22.922  1.00  0.00     0.032 C 
HETATM   27  C15 UNL     1      13.074 -10.655  22.809  1.00  0.00     0.032 C 
ENDBRANCH  23  25
ENDBRANCH  20  21
ENDBRANCH   1  20
BRANCH   1  28
HETATM   28  C16 UNL     1      17.181 -13.245  20.179  1.00  0.00     0.241 C 
HETATM   29  O4  UNL     1      18.217 -12.560  20.518  1.00  0.00    -0.271 OA
HETATM   30  N5  UNL     1      17.058 -14.508  20.808  1.00  0.00    -0.344 N 
ATOM     31  H5  UNL     1      16.247 -15.089  20.592  1.00  0.00     0.163 HD
BRANCH  30  32
HETATM   32  C17 UNL     1      18.043 -15.006  21.747  1.00  0.00     0.207 C 
HETATM   33  C18 UNL     1      17.905 -14.419  23.138  1.00  0.00     0.299 C 
HETATM   34  N6  UNL     1      18.386 -15.499  24.020  1.00  0.00     0.020 N 
HETATM   35  C19 UNL     1      19.827 -15.561  24.014  1.00  0.00     0.302 C 
HETATM   36  C20 UNL     1      17.922 -15.206  25.351  1.00  0.00     0.302 C 
HETATM   37  N7  UNL     1      17.767 -16.595  23.460  1.00  0.00    -0.079 N 
HETATM   38  C21 UNL     1      17.119 -17.695  24.110  1.00  0.00     0.395 C 
HETATM   39  C26 UNL     1      17.887 -16.449  22.035  1.00  0.00     0.278 C 
HETATM   40  O5  UNL     1      16.593 -18.611  23.414  1.00  0.00    -0.236 OA
HETATM   41  O7  UNL     1      17.861 -17.401  21.183  1.00  0.00    -0.269 OA
BRANCH  38  42
HETATM   42  O6  UNL     1      17.047 -17.794  25.472  1.00  0.00    -0.292 OA
BRANCH  42  43
HETATM   43  C22 UNL     1      17.783 -18.672  26.280  1.00  0.00     0.061 C 
HETATM   44  C23 UNL     1      19.085 -19.131  25.652  1.00  0.00     0.046 C 
HETATM   45  C24 UNL     1      16.969 -19.911  26.609  1.00  0.00     0.046 C 
HETATM   46  C25 UNL     1      18.184 -18.008  27.601  1.00  0.00     0.046 C 
ENDBRANCH  42  43
ENDBRANCH  38  42
ENDBRANCH  30  32
ENDBRANCH   1  28
TORSDOF 11
ENDMDL
MODEL 3
REMARK VINA RESULT: -7.347179158      3.460      8.250
REMARK  11 active torsions:
REMARK  status: ('A' for Active; 'I' for Inactive)
REMARK    1  A    between atoms: C2_2  and  N1_3 
REMARK    2  A    between atoms: C2_2  and  C3_7 
REMARK       I    between atoms: C3_7  and  N2_9 
REMARK    3  A    between atoms: C7_14  and  C8_15 
REMARK       I    between atoms: C8_15  and  N3_17 
REMARK    4  A    between atoms: N3_17  and  C9_19 
REMARK    5  A    between atoms: C9_19  and  C10_20 
REMARK    6  A    between atoms: C9_19  and  C16_28 
REMARK    7  A    between atoms: C10_20  and  C11_21 
REMARK       I    between atoms: C11_21  and  N4_23 
REMARK    8  A    between atoms: N4_23  and  C13_25 
REMARK       I    between atoms: C16_28  and  N5_30 
REMARK    9  A    between atoms: N5_30  and  C17_32 
REMARK       I    between atoms: N7_37  and  C21_38 
REMARK   10  A    between atoms: C21_38  and  O6_40 
REMARK   11  A    between atoms: O6_40  and  C22_41 
ROOT
HETATM    1  C9  UNL     1      18.664 -17.536  22.514  1.00  0.00     0.185 C 
ENDROOT
BRANCH   1   2
HETATM    2  N3  UNL     1      19.348 -16.684  23.534  1.00  0.00    -0.346 N 
HETATM    3  C8  UNL     1      20.175 -15.580  23.092  1.00  0.00     0.241 C 
HETATM    4  O2  UNL     1      20.276 -15.400  21.861  1.00  0.00    -0.271 OA
ATOM      5  H3  UNL     1      19.234 -16.878  24.529  1.00  0.00     0.163 HD
BRANCH   3   6
HETATM    6  C7  UNL     1      20.816 -14.780  24.088  1.00  0.00     0.182 C 
HETATM    7  N2  UNL     1      22.029 -15.176  24.717  1.00  0.00    -0.334 N 
HETATM    8  C3  UNL     1      22.821 -16.332  24.740  1.00  0.00     0.251 C 
HETATM    9  C4  UNL     1      22.356 -13.944  25.503  1.00  0.00     0.164 C 
HETATM   10  O1  UNL     1      22.529 -17.352  24.080  1.00  0.00    -0.271 OA
HETATM   11  C5  UNL     1      21.035 -13.659  26.149  1.00  0.00     0.190 C 
HETATM   12  F1  UNL     1      20.936 -13.984  27.462  1.00  0.00    -0.248 F 
HETATM   13  C6  UNL     1      19.983 -14.433  25.322  1.00  0.00     0.074 C 
BRANCH   8  14
HETATM   14  C2  UNL     1      24.072 -16.436  25.554  1.00  0.00     0.271 C 
HETATM   15  C1  UNL     1      24.372 -17.890  25.923  1.00  0.00     0.050 C 
BRANCH  14  16
HETATM   16  N1  UNL     1      25.188 -15.903  24.768  1.00  0.00    -0.067 N 
ATOM     17  H13 UNL     1      26.087 -16.286  25.060  1.00  0.00     0.275 HD
ATOM     18  H12 UNL     1      25.189 -16.251  23.808  1.00  0.00     0.275 HD
ATOM     19  H11 UNL     1      25.167 -14.884  24.811  1.00  0.00     0.275 HD
ENDBRANCH  14  16
ENDBRANCH   8  14
ENDBRANCH   3   6
ENDBRANCH   1   2
BRANCH   1  20
HETATM   20  C10 UNL     1      18.327 -18.835  23.225  1.00  0.00     0.138 C 
BRANCH  20  21
HETATM   21  C11 UNL     1      18.777 -18.924  24.609  1.00  0.00     0.222 C 
HETATM   22  O3  UNL     1      19.969 -19.183  24.883  1.00  0.00    -0.273 OA
HETATM   23  N4  UNL     1      17.875 -18.720  25.711  1.00  0.00    -0.352 N 
HETATM   24  C12 UNL     1      16.496 -18.426  25.404  1.00  0.00     0.153 C 
BRANCH  23  25
HETATM   25  C13 UNL     1      18.300 -18.799  27.070  1.00  0.00     0.078 C 
HETATM   26  C14 UNL     1      18.236 -17.471  27.795  1.00  0.00     0.032 C 
HETATM   27  C15 UNL     1      17.545 -19.829  27.894  1.00  0.00     0.032 C 
ENDBRANCH  23  25
ENDBRANCH  20  21
ENDBRANCH   1  20
BRANCH   1  28
HETATM   28  C16 UNL     1      17.470 -16.837  22.032  1.00  0.00     0.241 C 
HETATM   29  O4  UNL     1      16.845 -16.007  22.793  1.00  0.00    -0.271 OA
HETATM   30  N5  UNL     1      16.920 -17.005  20.738  1.00  0.00    -0.344 N 
ATOM     31  H5  UNL     1      17.382 -17.637  20.085  1.00  0.00     0.163 HD
BRANCH  30  32
HETATM   32  C17 UNL     1      15.722 -16.311  20.309  1.00  0.00     0.207 C 
HETATM   33  C18 UNL     1      14.518 -16.577  21.190  1.00  0.00     0.299 C 
HETATM   34  N6  UNL     1      13.738 -15.329  21.099  1.00  0.00     0.020 N 
HETATM   35  C19 UNL     1      13.015 -15.267  19.853  1.00  0.00     0.302 C 
HETATM   36  C20 UNL     1      12.807 -15.322  22.197  1.00  0.00     0.302 C 
HETATM   37  N7  UNL     1      14.733 -14.384  21.228  1.00  0.00    -0.079 N 
HETATM   38  C21 UNL     1      14.731 -13.170  21.987  1.00  0.00     0.395 C 
HETATM   39  C26 UNL     1      15.836 -14.840  20.426  1.00  0.00     0.278 C 
HETATM   40  O5  UNL     1      15.758 -12.431  21.988  1.00  0.00    -0.236 OA
HETATM   41  O7  UNL     1      16.743 -14.099  19.915  1.00  0.00    -0.269 OA
BRANCH  38  42
HETATM   42  O6  UNL     1      13.648 -12.773  22.721  1.00  0.00    -0.292 OA
BRANCH  42  43
HETATM   43  C22 UNL     1      12.786 -11.708  22.419  1.00  0.00     0.061 C 
HETATM   44  C23 UNL     1      13.167 -10.406  23.096  1.00  0.00     0.046 C 
HETATM   45  C24 UNL     1      11.361 -12.039  22.825  1.00  0.00     0.046 C 
HETATM   46  C25 UNL     1      12.789 -11.399  20.918  1.00  0.00     0.046 C 
ENDBRANCH  42  43
ENDBRANCH  38  42
ENDBRANCH  30  32
ENDBRANCH   1  28
TORSDOF 11
ENDMDL
MODEL 4
REMARK VINA RESULT: -7.275165995      2.055      2.820
REMARK  11 active torsions:
REMARK  status: ('A' for Active; 'I' for Inactive)
REMARK    1  A    between atoms: C2_2  and  N1_3 
REMARK    2  A    between atoms: C2_2  and  C3_7 
REMARK       I    between atoms: C3_7  and  N2_9 
REMARK    3  A    between atoms: C7_14  and  C8_15 
REMARK       I    between atoms: C8_15  and  N3_17 
REMARK    4  A    between atoms: N3_17  and  C9_19 
REMARK    5  A    between atoms: C9_19  and  C10_20 
REMARK    6  A    between atoms: C9_19  and  C16_28 
REMARK    7  A    between atoms: C10_20  and  C11_21 
REMARK       I    between atoms: C11_21  and  N4_23 
REMARK    8  A    between atoms: N4_23  and  C13_25 
REMARK       I    between atoms: C16_28  and  N5_30 
REMARK    9  A    between atoms: N5_30  and  C17_32 
REMARK       I    between atoms: N7_37  and  C21_38 
REMARK   10  A    between atoms: C21_38  and  O6_40 
REMARK   11  A    between atoms: O6_40  and  C22_41 
ROOT
HETATM    1  C9  UNL     1      13.924 -17.704  21.568  1.00  0.00     0.185 C 
ENDROOT
BRANCH   1   2
HETATM    2  N3  UNL     1      13.936 -16.317  21.012  1.00  0.00    -0.346 N 
HETATM    3  C8  UNL     1      13.167 -15.283  21.675  1.00  0.00     0.241 C 
HETATM    4  O2  UNL     1      12.521 -15.616  22.691  1.00  0.00    -0.271 OA
ATOM      5  H3  UNL     1      14.479 -16.101  20.177  1.00  0.00     0.163 HD
BRANCH   3   6
HETATM    6  C7  UNL     1      13.197 -13.965  21.124  1.00  0.00     0.182 C 
HETATM    7  N2  UNL     1      14.405 -13.351  20.688  1.00  0.00    -0.334 N 
HETATM    8  C3  UNL     1      15.771 -13.651  20.764  1.00  0.00     0.251 C 
HETATM    9  C4  UNL     1      13.873 -12.106  20.047  1.00  0.00     0.164 C 
HETATM   10  O1  UNL     1      16.195 -14.694  21.305  1.00  0.00    -0.271 OA
HETATM   11  C5  UNL     1      12.926 -11.625  21.103  1.00  0.00     0.190 C 
HETATM   12  F1  UNL     1      13.354 -10.577  21.850  1.00  0.00    -0.248 F 
HETATM   13  C6  UNL     1      12.640 -12.847  22.005  1.00  0.00     0.074 C 
BRANCH   8  14
HETATM   14  C2  UNL     1      16.827 -12.750  20.203  1.00  0.00     0.271 C 
HETATM   15  C1  UNL     1      18.173 -12.982  20.890  1.00  0.00     0.050 C 
BRANCH  14  16
HETATM   16  N1  UNL     1      16.967 -13.027  18.771  1.00  0.00    -0.067 N 
ATOM     17  H13 UNL     1      16.072 -13.227  18.325  1.00  0.00     0.275 HD
ATOM     18  H12 UNL     1      17.210 -12.192  18.237  1.00  0.00     0.275 HD
ATOM     19  H11 UNL     1      17.642 -13.781  18.643  1.00  0.00     0.275 HD
ENDBRANCH  14  16
ENDBRANCH   8  14
ENDBRANCH   3   6
ENDBRANCH   1   2
BRANCH   1  20
HETATM   20  C10 UNL     1      14.373 -18.605  20.431  1.00  0.00     0.138 C 
BRANCH  20  21
HETATM   21  C11 UNL     1      15.184 -17.959  19.406  1.00  0.00     0.222 C 
HETATM   22  O3  UNL     1      16.304 -17.479  19.680  1.00  0.00    -0.273 OA
HETATM   23  N4  UNL     1      14.733 -17.850  18.044  1.00  0.00    -0.352 N 
HETATM   24  C12 UNL     1      13.438 -18.397  17.720  1.00  0.00     0.153 C 
BRANCH  23  25
HETATM   25  C13 UNL     1      15.516 -17.226  17.028  1.00  0.00     0.078 C 
HETATM   26  C14 UNL     1      15.307 -17.832  15.656  1.00  0.00     0.032 C 
HETATM   27  C15 UNL     1      15.309 -15.724  16.924  1.00  0.00     0.032 C 
ENDBRANCH  23  25
ENDBRANCH  20  21
ENDBRANCH   1  20
BRANCH   1  28
HETATM   28  C16 UNL     1      14.829 -17.765  22.719  1.00  0.00     0.241 C 
HETATM   29  O4  UNL     1      14.490 -18.399  23.787  1.00  0.00    -0.271 OA
HETATM   30  N5  UNL     1      16.108 -17.157  22.757  1.00  0.00    -0.344 N 
ATOM     31  H5  UNL     1      16.439 -16.656  21.933  1.00  0.00     0.163 HD
BRANCH  30  32
HETATM   32  C17 UNL     1      16.963 -17.222  23.925  1.00  0.00     0.207 C 
HETATM   33  C18 UNL     1      18.131 -18.176  23.769  1.00  0.00     0.299 C 
HETATM   34  N6  UNL     1      19.186 -17.574  24.605  1.00  0.00     0.020 N 
HETATM   35  C19 UNL     1      18.946 -17.840  26.002  1.00  0.00     0.302 C 
HETATM   36  C20 UNL     1      20.437 -18.164  24.210  1.00  0.00     0.302 C 
HETATM   37  N7  UNL     1      19.078 -16.246  24.252  1.00  0.00    -0.079 N 
HETATM   38  C21 UNL     1      20.118 -15.296  23.989  1.00  0.00     0.395 C 
HETATM   39  C26 UNL     1      17.672 -15.951  24.191  1.00  0.00     0.278 C 
HETATM   40  O5  UNL     1      19.815 -14.111  23.664  1.00  0.00    -0.236 OA
HETATM   41  O7  UNL     1      17.145 -14.797  24.340  1.00  0.00    -0.269 OA
BRANCH  38  42
HETATM   42  O6  UNL     1      21.442 -15.623  24.078  1.00  0.00    -0.292 OA
BRANCH  42  43
HETATM   43  C22 UNL     1      22.314 -15.280  25.121  1.00  0.00     0.061 C 
HETATM   44  C23 UNL     1      21.605 -14.887  26.403  1.00  0.00     0.046 C 
HETATM   45  C24 UNL     1      23.208 -14.122  24.715  1.00  0.00     0.046 C 
HETATM   46  C25 UNL     1      23.215 -16.460  25.504  1.00  0.00     0.046 C 
ENDBRANCH  42  43
ENDBRANCH  38  42
ENDBRANCH  30  32
ENDBRANCH   1  28
TORSDOF 11
ENDMDL
MODEL 5
REMARK VINA RESULT: -7.247511567      1.656      2.428
REMARK  11 active torsions:
REMARK  status: ('A' for Active; 'I' for Inactive)
REMARK    1  A    between atoms: C2_2  and  N1_3 
REMARK    2  A    between atoms: C2_2  and  C3_7 
REMARK       I    between atoms: C3_7  and  N2_9 
REMARK    3  A    between atoms: C7_14  and  C8_15 
REMARK       I    between atoms: C8_15  and  N3_17 
REMARK    4  A    between atoms: N3_17  and  C9_19 
REMARK    5  A    between atoms: C9_19  and  C10_20 
REMARK    6  A    between atoms: C9_19  and  C16_28 
REMARK    7  A    between atoms: C10_20  and  C11_21 
REMARK       I    between atoms: C11_21  and  N4_23 
REMARK    8  A    between atoms: N4_23  and  C13_25 
REMARK       I    between atoms: C16_28  and  N5_30 
REMARK    9  A    between atoms: N5_30  and  C17_32 
REMARK       I    between atoms: N7_37  and  C21_38 
REMARK   10  A    between atoms: C21_38  and  O6_40 
REMARK   11  A    between atoms: O6_40  and  C22_41 
ROOT
HETATM    1  C9  UNL     1      13.542 -17.809  20.464  1.00  0.00     0.185 C 
ENDROOT
BRANCH   1   2
HETATM    2  N3  UNL     1      13.393 -16.325  20.373  1.00  0.00    -0.346 N 
HETATM    3  C8  UNL     1      12.915 -15.590  21.527  1.00  0.00     0.241 C 
HETATM    4  O2  UNL     1      12.646 -16.250  22.552  1.00  0.00    -0.271 OA
ATOM      5  H3  UNL     1      13.625 -15.835  19.509  1.00  0.00     0.163 HD
BRANCH   3   6
HETATM    6  C7  UNL     1      12.785 -14.172  21.414  1.00  0.00     0.182 C 
HETATM    7  N2  UNL     1      13.840 -13.346  20.933  1.00  0.00    -0.334 N 
HETATM    8  C3  UNL     1      15.192 -13.526  20.613  1.00  0.00     0.251 C 
HETATM    9  C4  UNL     1      13.144 -12.024  20.837  1.00  0.00     0.164 C 
HETATM   10  O1  UNL     1      15.756 -14.637  20.703  1.00  0.00    -0.271 OA
HETATM   11  C5  UNL     1      12.462 -11.964  22.170  1.00  0.00     0.190 C 
HETATM   12  F1  UNL     1      13.031 -11.144  23.089  1.00  0.00    -0.248 F 
HETATM   13  C6  UNL     1      12.426 -13.417  22.694  1.00  0.00     0.074 C 
BRANCH   8  14
HETATM   14  C2  UNL     1      16.064 -12.406  20.139  1.00  0.00     0.271 C 
HETATM   15  C1  UNL     1      17.513 -12.606  20.588  1.00  0.00     0.050 C 
BRANCH  14  16
HETATM   16  N1  UNL     1      16.019 -12.364  18.675  1.00  0.00    -0.067 N 
ATOM     17  H13 UNL     1      16.741 -11.761  18.281  1.00  0.00     0.275 HD
ATOM     18  H12 UNL     1      16.319 -13.243  18.252  1.00  0.00     0.275 HD
ATOM     19  H11 UNL     1      15.082 -12.091  18.379  1.00  0.00     0.275 HD
ENDBRANCH  14  16
ENDBRANCH   8  14
ENDBRANCH   3   6
ENDBRANCH   1   2
BRANCH   1  20
HETATM   20  C10 UNL     1      13.297 -18.332  19.061  1.00  0.00     0.138 C 
BRANCH  20  21
HETATM   21  C11 UNL     1      14.148 -17.762  18.024  1.00  0.00     0.222 C 
HETATM   22  O3  UNL     1      14.198 -16.527  17.839  1.00  0.00    -0.273 OA
HETATM   23  N4  UNL     1      14.961 -18.591  17.174  1.00  0.00    -0.352 N 
HETATM   24  C12 UNL     1      14.905 -20.019  17.376  1.00  0.00     0.153 C 
BRANCH  23  25
HETATM   25  C13 UNL     1      15.803 -18.048  16.158  1.00  0.00     0.078 C 
HETATM   26  C14 UNL     1      17.154 -18.728  16.075  1.00  0.00     0.032 C 
HETATM   27  C15 UNL     1      15.180 -18.053  14.772  1.00  0.00     0.032 C 
ENDBRANCH  23  25
ENDBRANCH  20  21
ENDBRANCH   1  20
BRANCH   1  28
HETATM   28  C16 UNL     1      14.887 -18.125  20.951  1.00  0.00     0.241 C 
HETATM   29  O4  UNL     1      15.442 -19.251  20.661  1.00  0.00    -0.271 OA
HETATM   30  N5  UNL     1      15.668 -17.254  21.750  1.00  0.00    -0.344 N 
ATOM     31  H5  UNL     1      15.288 -16.340  21.996  1.00  0.00     0.163 HD
BRANCH  30  32
HETATM   32  C17 UNL     1      16.987 -17.615  22.229  1.00  0.00     0.207 C 
HETATM   33  C18 UNL     1      18.109 -16.867  21.537  1.00  0.00     0.299 C 
HETATM   34  N6  UNL     1      19.154 -16.770  22.573  1.00  0.00     0.020 N 
HETATM   35  C19 UNL     1      19.855 -18.022  22.711  1.00  0.00     0.302 C 
HETATM   36  C20 UNL     1      20.075 -15.744  22.161  1.00  0.00     0.302 C 
HETATM   37  N7  UNL     1      18.403 -16.414  23.673  1.00  0.00    -0.079 N 
HETATM   38  C21 UNL     1      18.694 -15.445  24.688  1.00  0.00     0.395 C 
HETATM   39  C26 UNL     1      17.215 -17.222  23.637  1.00  0.00     0.278 C 
HETATM   40  O5  UNL     1      17.864 -15.250  25.623  1.00  0.00    -0.236 OA
HETATM   41  O7  UNL     1      16.496 -17.536  24.646  1.00  0.00    -0.269 OA
BRANCH  38  42
HETATM   42  O6  UNL     1      19.849 -14.713  24.685  1.00  0.00    -0.292 OA
BRANCH  42  43
HETATM   43  C22 UNL     1      20.965 -14.921  25.507  1.00  0.00     0.061 C 
HETATM   44  C23 UNL     1      21.183 -16.374  25.882  1.00  0.00     0.046 C 
HETATM   45  C24 UNL     1      20.840 -14.126  26.795  1.00  0.00     0.046 C 
HETATM   46  C25 UNL     1      22.259 -14.486  24.809  1.00  0.00     0.046 C 
ENDBRANCH  42  43
ENDBRANCH  38  42
ENDBRANCH  30  32
ENDBRANCH   1  28
TORSDOF 11
ENDMDL
