MODEL 1
REMARK VINA RESULT: -8.081530811      0.000      0.000
REMARK  11 active torsions:
REMARK  status: ('A' for Active; 'I' for Inactive)
REMARK    1  A    between atoms: C2_2  and  N1_3 
REMARK    2  A    between atoms: N1_3  and  C3_5 
REMARK    3  A    between atoms: N3_9  and  C5_10 
REMARK    4  A    between atoms: C5_10  and  C6_11 
REMARK       I    between atoms: C6_11  and  N4_13 
REMARK    5  A    between atoms: N4_13  and  C7_15 
REMARK    6  A    between atoms: C7_15  and  C8_16 
REMARK    7  A    between atoms: C7_15  and  C21_41 
REMARK    8  A    between atoms: C8_16  and  C9_17 
REMARK       I    between atoms: C9_17  and  N5_19 
REMARK    9  A    between atoms: N5_19  and  C10_21 
REMARK       I    between atoms: N8_31  and  C15_32 
REMARK   10  A    between atoms: C15_32  and  C16_34 
REMARK   11  A    between atoms: C16_34  and  O4_36 
ROOT
HETATM    1  C9  UNL     1      14.033 -17.042  21.949  1.00  0.00     0.225 C 
HETATM    2  O2  UNL     1      12.944 -16.599  22.367  1.00  0.00    -0.273 OA
HETATM    3  N5  UNL     1      15.174 -16.924  22.779  1.00  0.00    -0.312 N 
ATOM      4  H5  UNL     1      15.785 -16.109  22.719  1.00  0.00     0.170 HD
ENDROOT
BRANCH   1   5
HETATM    5  C8  UNL     1      14.110 -17.670  20.617  1.00  0.00     0.129 C 
BRANCH   5   6
HETATM    6  C7  UNL     1      14.879 -16.902  19.604  1.00  0.00     0.100 C 
BRANCH   6   7
HETATM    7  N4  UNL     1      14.355 -15.599  19.299  1.00  0.00    -0.354 N 
HETATM    8  C6  UNL     1      14.831 -14.396  19.853  1.00  0.00     0.236 C 
HETATM    9  O1  UNL     1      15.781 -14.417  20.676  1.00  0.00    -0.272 OA
ATOM     10  H4  UNL     1      13.584 -15.542  18.633  1.00  0.00     0.162 HD
BRANCH   8  11
HETATM   11  C5  UNL     1      14.238 -13.092  19.490  1.00  0.00     0.233 C 
BRANCH  11  12
HETATM   12  N3  UNL     1      13.758 -12.376  20.673  1.00  0.00    -0.329 N 
HETATM   13  C4  UNL     1      14.316 -11.218  21.062  1.00  0.00     0.201 A 
HETATM   14  N2  UNL     1      13.886 -10.530  22.162  1.00  0.00    -0.188 N 
HETATM   15  C3  UNL     1      12.871 -11.038  22.872  1.00  0.00     0.681 A 
ATOM     16  H2  UNL     1      14.328  -9.652  22.435  1.00  0.00     0.185 HD
HETATM   17  N9  UNL     1      12.290 -12.202  22.504  1.00  0.00    -0.184 N 
HETATM   18  C25 UNL     1      12.735 -12.859  21.414  1.00  0.00     0.204 A 
HETATM   19  C26 UNL     1      11.197 -12.692  23.318  1.00  0.00     0.176 C 
BRANCH  15  20
HETATM   20  N1  UNL     1      12.433 -10.430  23.912  1.00  0.00    -0.226 N 
ATOM     21  H1  UNL     1      11.834 -10.940  24.561  1.00  0.00     0.177 HD
BRANCH  20  22
HETATM   22  C2  UNL     1      12.749  -9.058  24.201  1.00  0.00     0.133 C 
HETATM   23  C1  UNL     1      11.695  -8.396  25.048  1.00  0.00     0.027 C 
ENDBRANCH  20  22
ENDBRANCH  15  20
ENDBRANCH  11  12
ENDBRANCH   8  11
ENDBRANCH   6   7
BRANCH   6  24
HETATM   24  C21 UNL     1      15.035 -17.652  18.296  1.00  0.00    -0.030 C 
HETATM   25  C22 UNL     1      15.367 -16.771  17.133  1.00  0.00     0.016 C 
HETATM   26  C23 UNL     1      13.724 -18.378  17.985  1.00  0.00     0.016 C 
HETATM   27  C24 UNL     1      16.072 -18.733  18.515  1.00  0.00     0.016 C 
ENDBRANCH   6  24
ENDBRANCH   5   6
ENDBRANCH   1   5
BRANCH   3  28
HETATM   28  C10 UNL     1      15.421 -17.882  23.620  1.00  0.00     0.128 A 
HETATM   29  N6  UNL     1      14.588 -18.920  23.811  1.00  0.00    -0.318 N 
HETATM   30  C11 UNL     1      14.852 -19.910  24.687  1.00  0.00     0.181 A 
ATOM     31  H6  UNL     1      13.723 -18.959  23.272  1.00  0.00     0.170 HD
HETATM   32 CL1  UNL     1      13.742 -21.253  24.912  1.00  0.00    -0.045 Cl
HETATM   33  N7  UNL     1      16.004 -19.821  25.379  1.00  0.00    -0.332 N 
HETATM   34  C12 UNL     1      16.870 -18.804  25.226  1.00  0.00     0.055 A 
ATOM     35  H7  UNL     1      16.230 -20.558  26.048  1.00  0.00     0.168 HD
HETATM   36  C13 UNL     1      18.048 -18.713  25.933  1.00  0.00     0.048 A 
HETATM   37  C20 UNL     1      16.606 -17.788  24.330  1.00  0.00     0.103 A 
HETATM   38  C14 UNL     1      18.912 -17.629  25.730  1.00  0.00     0.106 A 
HETATM   39  N8  UNL     1      18.653 -16.647  24.864  1.00  0.00    -0.256 N 
HETATM   40  C15 UNL     1      19.482 -15.532  24.601  1.00  0.00     0.259 C 
HETATM   41  C19 UNL     1      17.483 -16.740  24.162  1.00  0.00     0.270 A 
HETATM   42  O3  UNL     1      19.130 -14.657  23.766  1.00  0.00    -0.270 OA
HETATM   43  O5  UNL     1      17.186 -15.836  23.326  1.00  0.00    -0.266 OA
BRANCH  40  44
HETATM   44  C16 UNL     1      20.786 -15.323  25.276  1.00  0.00     0.209 C 
HETATM   45  C17 UNL     1      21.698 -14.435  24.441  1.00  0.00     0.050 C 
BRANCH  44  46
HETATM   46  O4  UNL     1      20.617 -14.773  26.547  1.00  0.00    -0.382 OA
HETATM   47  C18 UNL     1      21.006 -13.441  26.498  1.00  0.00     0.202 C 
ENDBRANCH  44  46
ENDBRANCH  40  44
ENDBRANCH   3  28
TORSDOF 11
ENDMDL
MODEL 2
REMARK VINA RESULT: -8.044539042      2.775      7.934
REMARK  11 active torsions:
REMARK  status: ('A' for Active; 'I' for Inactive)
REMARK    1  A    between atoms: C2_2  and  N1_3 
REMARK    2  A    between atoms: N1_3  and  C3_5 
REMARK    3  A    between atoms: N3_9  and  C5_10 
REMARK    4  A    between atoms: C5_10  and  C6_11 
REMARK       I    between atoms: C6_11  and  N4_13 
REMARK    5  A    between atoms: N4_13  and  C7_15 
REMARK    6  A    between atoms: C7_15  and  C8_16 
REMARK    7  A    between atoms: C7_15  and  C21_41 
REMARK    8  A    between atoms: C8_16  and  C9_17 
REMARK       I    between atoms: C9_17  and  N5_19 
REMARK    9  A    between atoms: N5_19  and  C10_21 
REMARK       I    between atoms: N8_31  and  C15_32 
REMARK   10  A    between atoms: C15_32  and  C16_34 
REMARK   11  A    between atoms: C16_34  and  O4_36 
ROOT
HETATM    1  C9  UNL     1      16.660 -12.837  19.275  1.00  0.00     0.225 C 
HETATM    2  O2  UNL     1      17.054 -13.085  18.117  1.00  0.00    -0.273 OA
HETATM    3  N5  UNL     1      15.306 -12.466  19.462  1.00  0.00    -0.312 N 
ATOM      4  H5  UNL     1      15.023 -11.486  19.441  1.00  0.00     0.170 HD
ENDROOT
BRANCH   1   5
HETATM    5  C8  UNL     1      17.597 -12.934  20.409  1.00  0.00     0.129 C 
BRANCH   5   6
HETATM    6  C7  UNL     1      17.940 -14.318  20.825  1.00  0.00     0.100 C 
BRANCH   6   7
HETATM    7  N4  UNL     1      16.992 -14.942  21.707  1.00  0.00    -0.354 N 
HETATM    8  C6  UNL     1      16.294 -16.130  21.417  1.00  0.00     0.236 C 
HETATM    9  O1  UNL     1      16.483 -16.718  20.323  1.00  0.00    -0.272 OA
ATOM     10  H4  UNL     1      16.814 -14.494  22.605  1.00  0.00     0.162 HD
BRANCH   8  11
HETATM   11  C5  UNL     1      15.331 -16.711  22.377  1.00  0.00     0.233 C 
BRANCH  11  12
HETATM   12  N3  UNL     1      16.010 -17.526  23.386  1.00  0.00    -0.329 N 
HETATM   13  C4  UNL     1      15.380 -18.540  24.002  1.00  0.00     0.201 A 
HETATM   14  N2  UNL     1      15.992 -19.316  24.947  1.00  0.00    -0.188 N 
HETATM   15  C3  UNL     1      17.264 -19.046  25.264  1.00  0.00     0.681 A 
ATOM     16  H2  UNL     1      15.491 -20.081  25.399  1.00  0.00     0.185 HD
HETATM   17  N9  UNL     1      17.922 -18.031  24.660  1.00  0.00    -0.184 N 
HETATM   18  C25 UNL     1      17.294 -17.283  23.731  1.00  0.00     0.204 A 
HETATM   19  C26 UNL     1      19.297 -17.797  25.052  1.00  0.00     0.176 C 
BRANCH  15  20
HETATM   20  N1  UNL     1      17.880 -19.745  26.145  1.00  0.00    -0.226 N 
ATOM     21  H1  UNL     1      18.730 -20.239  25.870  1.00  0.00     0.177 HD
BRANCH  20  22
HETATM   22  C2  UNL     1      17.424 -19.863  27.502  1.00  0.00     0.133 C 
HETATM   23  C1  UNL     1      18.256 -19.047  28.456  1.00  0.00     0.027 C 
ENDBRANCH  20  22
ENDBRANCH  15  20
ENDBRANCH  11  12
ENDBRANCH   8  11
ENDBRANCH   6   7
BRANCH   6  24
HETATM   24  C21 UNL     1      19.306 -14.412  21.477  1.00  0.00    -0.030 C 
HETATM   25  C22 UNL     1      19.830 -15.810  21.576  1.00  0.00     0.016 C 
HETATM   26  C23 UNL     1      19.215 -13.837  22.892  1.00  0.00     0.016 C 
HETATM   27  C24 UNL     1      20.238 -13.498  20.711  1.00  0.00     0.016 C 
ENDBRANCH   6  24
ENDBRANCH   5   6
ENDBRANCH   1   5
BRANCH   3  28
HETATM   28  C10 UNL     1      14.435 -13.409  19.662  1.00  0.00     0.128 A 
HETATM   29  N6  UNL     1      14.409 -14.544  18.944  1.00  0.00    -0.318 N 
HETATM   30  C11 UNL     1      13.500 -15.517  19.158  1.00  0.00     0.181 A 
ATOM     31  H6  UNL     1      15.104 -14.675  18.208  1.00  0.00     0.170 HD
HETATM   32 CL1  UNL     1      13.494 -16.990  18.201  1.00  0.00    -0.045 Cl
HETATM   33  N7  UNL     1      12.601 -15.307  20.138  1.00  0.00    -0.332 N 
HETATM   34  C12 UNL     1      12.584 -14.188  20.885  1.00  0.00     0.055 A 
ATOM     35  H7  UNL     1      11.903 -16.027  20.323  1.00  0.00     0.168 HD
HETATM   36  C13 UNL     1      11.665 -13.973  21.887  1.00  0.00     0.048 A 
HETATM   37  C20 UNL     1      13.512 -13.189  20.671  1.00  0.00     0.103 A 
HETATM   38  C14 UNL     1      11.697 -12.787  22.632  1.00  0.00     0.106 A 
HETATM   39  N8  UNL     1      12.595 -11.822  22.422  1.00  0.00    -0.256 N 
HETATM   40  C15 UNL     1      12.693 -10.608  23.141  1.00  0.00     0.259 C 
HETATM   41  C19 UNL     1      13.508 -12.039  21.427  1.00  0.00     0.270 A 
HETATM   42  O3  UNL     1      13.578  -9.762  22.848  1.00  0.00    -0.270 OA
HETATM   43  O5  UNL     1      14.383 -11.156  21.184  1.00  0.00    -0.266 OA
BRANCH  40  44
HETATM   44  C16 UNL     1      11.781 -10.260  24.258  1.00  0.00     0.209 C 
HETATM   45  C17 UNL     1      11.367 -11.503  25.034  1.00  0.00     0.050 C 
BRANCH  44  46
HETATM   46  O4  UNL     1      12.366  -9.332  25.120  1.00  0.00    -0.382 OA
HETATM   47  C18 UNL     1      11.731  -8.111  24.938  1.00  0.00     0.202 C 
ENDBRANCH  44  46
ENDBRANCH  40  44
ENDBRANCH   3  28
TORSDOF 11
ENDMDL
MODEL 3
REMARK VINA RESULT: -8.044514621      2.793      7.862
REMARK  11 active torsions:
REMARK  status: ('A' for Active; 'I' for Inactive)
REMARK    1  A    between atoms: C2_2  and  N1_3 
REMARK    2  A    between atoms: N1_3  and  C3_5 
REMARK    3  A    between atoms: N3_9  and  C5_10 
REMARK    4  A    between atoms: C5_10  and  C6_11 
REMARK       I    between atoms: C6_11  and  N4_13 
REMARK    5  A    between atoms: N4_13  and  C7_15 
REMARK    6  A    between atoms: C7_15  and  C8_16 
REMARK    7  A    between atoms: C7_15  and  C21_41 
REMARK    8  A    between atoms: C8_16  and  C9_17 
REMARK       I    between atoms: C9_17  and  N5_19 
REMARK    9  A    between atoms: N5_19  and  C10_21 
REMARK       I    between atoms: N8_31  and  C15_32 
REMARK   10  A    between atoms: C15_32  and  C16_34 
REMARK   11  A    between atoms: C16_34  and  O4_36 
ROOT
HETATM    1  C9  UNL     1      16.838 -12.727  19.417  1.00  0.00     0.225 C 
HETATM    2  O2  UNL     1      17.259 -12.880  18.252  1.00  0.00    -0.273 OA
HETATM    3  N5  UNL     1      15.480 -12.374  19.604  1.00  0.00    -0.312 N 
ATOM      4  H5  UNL     1      15.193 -11.396  19.654  1.00  0.00     0.170 HD
ENDROOT
BRANCH   1   5
HETATM    5  C8  UNL     1      17.752 -12.912  20.559  1.00  0.00     0.129 C 
BRANCH   5   6
HETATM    6  C7  UNL     1      18.012 -14.326  20.932  1.00  0.00     0.100 C 
BRANCH   6   7
HETATM    7  N4  UNL     1      17.012 -14.931  21.767  1.00  0.00    -0.354 N 
HETATM    8  C6  UNL     1      16.333 -16.127  21.462  1.00  0.00     0.236 C 
HETATM    9  O1  UNL     1      16.591 -16.740  20.396  1.00  0.00    -0.272 OA
ATOM     10  H4  UNL     1      16.777 -14.462  22.642  1.00  0.00     0.162 HD
BRANCH   8  11
HETATM   11  C5  UNL     1      15.313 -16.687  22.373  1.00  0.00     0.233 C 
BRANCH  11  12
HETATM   12  N3  UNL     1      15.930 -17.411  23.485  1.00  0.00    -0.329 N 
HETATM   13  C4  UNL     1      17.127 -17.047  23.976  1.00  0.00     0.201 A 
HETATM   14  N2  UNL     1      17.724 -17.706  25.014  1.00  0.00    -0.188 N 
HETATM   15  C3  UNL     1      17.085 -18.752  25.554  1.00  0.00     0.681 A 
ATOM     16  H2  UNL     1      18.633 -17.409  25.369  1.00  0.00     0.185 HD
HETATM   17  N9  UNL     1      15.880 -19.140  25.079  1.00  0.00    -0.184 N 
HETATM   18  C25 UNL     1      15.315 -18.471  24.055  1.00  0.00     0.204 A 
HETATM   19  C26 UNL     1      15.247 -20.279  25.712  1.00  0.00     0.176 C 
BRANCH  15  20
HETATM   20  N1  UNL     1      17.605 -19.402  26.529  1.00  0.00    -0.226 N 
ATOM     21  H1  UNL     1      17.339 -20.378  26.663  1.00  0.00     0.177 HD
BRANCH  20  22
HETATM   22  C2  UNL     1      18.546 -18.814  27.441  1.00  0.00     0.133 C 
HETATM   23  C1  UNL     1      18.246 -19.164  28.875  1.00  0.00     0.027 C 
ENDBRANCH  20  22
ENDBRANCH  15  20
ENDBRANCH  11  12
ENDBRANCH   8  11
ENDBRANCH   6   7
BRANCH   6  24
HETATM   24  C21 UNL     1      19.354 -14.514  21.613  1.00  0.00    -0.030 C 
HETATM   25  C22 UNL     1      19.818 -15.935  21.647  1.00  0.00     0.016 C 
HETATM   26  C23 UNL     1      19.247 -14.014  23.056  1.00  0.00     0.016 C 
HETATM   27  C24 UNL     1      20.344 -13.599  20.924  1.00  0.00     0.016 C 
ENDBRANCH   6  24
ENDBRANCH   5   6
ENDBRANCH   1   5
BRANCH   3  28
HETATM   28  C10 UNL     1      14.608 -13.331  19.708  1.00  0.00     0.128 A 
HETATM   29  N6  UNL     1      14.633 -14.430  18.935  1.00  0.00    -0.318 N 
HETATM   30  C11 UNL     1      13.723 -15.419  19.051  1.00  0.00     0.181 A 
ATOM     31  H6  UNL     1      15.369 -14.520  18.235  1.00  0.00     0.170 HD
HETATM   32 CL1  UNL     1      13.784 -16.843  18.024  1.00  0.00    -0.045 Cl
HETATM   33  N7  UNL     1      12.768 -15.262  19.988  1.00  0.00    -0.332 N 
HETATM   34  C12 UNL     1      12.699 -14.182  20.785  1.00  0.00     0.055 A 
ATOM     35  H7  UNL     1      12.067 -15.995  20.097  1.00  0.00     0.168 HD
HETATM   36  C13 UNL     1      11.722 -14.022  21.743  1.00  0.00     0.048 A 
HETATM   37  C20 UNL     1      13.627 -13.167  20.672  1.00  0.00     0.103 A 
HETATM   38  C14 UNL     1      11.702 -12.874  22.545  1.00  0.00     0.106 A 
HETATM   39  N8  UNL     1      12.601 -11.894  22.433  1.00  0.00    -0.256 N 
HETATM   40  C15 UNL     1      12.646 -10.716  23.214  1.00  0.00     0.259 C 
HETATM   41  C19 UNL     1      13.570 -12.055  21.482  1.00  0.00     0.270 A 
HETATM   42  O3  UNL     1      13.539  -9.849  23.013  1.00  0.00    -0.270 OA
HETATM   43  O5  UNL     1      14.449 -11.156  21.332  1.00  0.00    -0.266 OA
BRANCH  40  44
HETATM   44  C16 UNL     1      11.670 -10.428  24.293  1.00  0.00     0.209 C 
HETATM   45  C17 UNL     1      11.318 -11.693  25.063  1.00  0.00     0.050 C 
BRANCH  44  46
HETATM   46  O4  UNL     1      12.153  -9.455  25.168  1.00  0.00    -0.382 OA
HETATM   47  C18 UNL     1      11.324  -8.345  25.083  1.00  0.00     0.202 C 
ENDBRANCH  44  46
ENDBRANCH  40  44
ENDBRANCH   3  28
TORSDOF 11
ENDMDL
MODEL 4
REMARK VINA RESULT: -7.859559359      3.142      7.860
REMARK  11 active torsions:
REMARK  status: ('A' for Active; 'I' for Inactive)
REMARK    1  A    between atoms: C2_2  and  N1_3 
REMARK    2  A    between atoms: N1_3  and  C3_5 
REMARK    3  A    between atoms: N3_9  and  C5_10 
REMARK    4  A    between atoms: C5_10  and  C6_11 
REMARK       I    between atoms: C6_11  and  N4_13 
REMARK    5  A    between atoms: N4_13  and  C7_15 
REMARK    6  A    between atoms: C7_15  and  C8_16 
REMARK    7  A    between atoms: C7_15  and  C21_41 
REMARK    8  A    between atoms: C8_16  and  C9_17 
REMARK       I    between atoms: C9_17  and  N5_19 
REMARK    9  A    between atoms: N5_19  and  C10_21 
REMARK       I    between atoms: N8_31  and  C15_32 
REMARK   10  A    between atoms: C15_32  and  C16_34 
REMARK   11  A    between atoms: C16_34  and  O4_36 
ROOT
HETATM    1  C9  UNL     1      16.794 -12.714  19.502  1.00  0.00     0.225 C 
HETATM    2  O2  UNL     1      17.244 -12.888  18.351  1.00  0.00    -0.273 OA
HETATM    3  N5  UNL     1      15.433 -12.347  19.646  1.00  0.00    -0.312 N 
ATOM      4  H5  UNL     1      15.154 -11.366  19.675  1.00  0.00     0.170 HD
ENDROOT
BRANCH   1   5
HETATM    5  C8  UNL     1      17.673 -12.889  20.672  1.00  0.00     0.129 C 
BRANCH   5   6
HETATM    6  C7  UNL     1      18.059 -14.294  20.962  1.00  0.00     0.100 C 
BRANCH   6   7
HETATM    7  N4  UNL     1      17.183 -14.995  21.860  1.00  0.00    -0.354 N 
HETATM    8  C6  UNL     1      16.389 -16.100  21.502  1.00  0.00     0.236 C 
HETATM    9  O1  UNL     1      16.418 -16.538  20.324  1.00  0.00    -0.272 OA
ATOM     10  H4  UNL     1      17.134 -14.668  22.825  1.00  0.00     0.162 HD
BRANCH   8  11
HETATM   11  C5  UNL     1      15.509 -16.768  22.484  1.00  0.00     0.233 C 
BRANCH  11  12
HETATM   12  N3  UNL     1      14.615 -17.727  21.834  1.00  0.00    -0.329 N 
HETATM   13  C4  UNL     1      13.283 -17.661  21.998  1.00  0.00     0.201 A 
HETATM   14  N2  UNL     1      12.427 -18.544  21.402  1.00  0.00    -0.188 N 
HETATM   15  C3  UNL     1      12.944 -19.507  20.629  1.00  0.00     0.681 A 
ATOM     16  H2  UNL     1      11.419 -18.471  21.542  1.00  0.00     0.185 HD
HETATM   17  N9  UNL     1      14.280 -19.598  20.447  1.00  0.00    -0.184 N 
HETATM   18  C25 UNL     1      15.101 -18.713  21.047  1.00  0.00     0.204 A 
HETATM   19  C26 UNL     1      14.769 -20.665  19.598  1.00  0.00     0.176 C 
BRANCH  15  20
HETATM   20  N1  UNL     1      12.181 -20.359  20.049  1.00  0.00    -0.226 N 
ATOM     21  H1  UNL     1      12.384 -21.352  20.161  1.00  0.00     0.177 HD
BRANCH  20  22
HETATM   22  C2  UNL     1      11.052 -19.973  19.249  1.00  0.00     0.133 C 
HETATM   23  C1  UNL     1      11.449 -19.603  17.844  1.00  0.00     0.027 C 
ENDBRANCH  20  22
ENDBRANCH  15  20
ENDBRANCH  11  12
ENDBRANCH   8  11
ENDBRANCH   6   7
BRANCH   6  24
HETATM   24  C21 UNL     1      19.469 -14.413  21.509  1.00  0.00    -0.030 C 
HETATM   25  C22 UNL     1      19.979 -15.818  21.556  1.00  0.00     0.016 C 
HETATM   26  C23 UNL     1      19.493 -13.850  22.932  1.00  0.00     0.016 C 
HETATM   27  C24 UNL     1      20.354 -13.505  20.682  1.00  0.00     0.016 C 
ENDBRANCH   6  24
ENDBRANCH   5   6
ENDBRANCH   1   5
BRANCH   3  28
HETATM   28  C10 UNL     1      14.551 -13.295  19.740  1.00  0.00     0.128 A 
HETATM   29  N6  UNL     1      14.565 -14.387  18.958  1.00  0.00    -0.318 N 
HETATM   30  C11 UNL     1      13.644 -15.367  19.063  1.00  0.00     0.181 A 
ATOM     31  H6  UNL     1      15.302 -14.479  18.258  1.00  0.00     0.170 HD
HETATM   32 CL1  UNL     1      13.692 -16.783  18.024  1.00  0.00    -0.045 Cl
HETATM   33  N7  UNL     1      12.689 -15.208  19.999  1.00  0.00    -0.332 N 
HETATM   34  C12 UNL     1      12.630 -14.134  20.806  1.00  0.00     0.055 A 
ATOM     35  H7  UNL     1      11.980 -15.934  20.101  1.00  0.00     0.168 HD
HETATM   36  C13 UNL     1      11.653 -13.972  21.764  1.00  0.00     0.048 A 
HETATM   37  C20 UNL     1      13.570 -13.129  20.704  1.00  0.00     0.103 A 
HETATM   38  C14 UNL     1      11.644 -12.831  22.576  1.00  0.00     0.106 A 
HETATM   39  N8  UNL     1      12.554 -11.860  22.474  1.00  0.00    -0.256 N 
HETATM   40  C15 UNL     1      12.611 -10.689  23.266  1.00  0.00     0.259 C 
HETATM   41  C19 UNL     1      13.523 -12.023  21.524  1.00  0.00     0.270 A 
HETATM   42  O3  UNL     1      13.513  -9.831  23.074  1.00  0.00    -0.270 OA
HETATM   43  O5  UNL     1      14.413 -11.133  21.383  1.00  0.00    -0.266 OA
BRANCH  40  44
HETATM   44  C16 UNL     1      11.636 -10.400  24.345  1.00  0.00     0.209 C 
HETATM   45  C17 UNL     1      11.297 -11.661  25.128  1.00  0.00     0.050 C 
BRANCH  44  46
HETATM   46  O4  UNL     1      12.113  -9.415  25.210  1.00  0.00    -0.382 OA
HETATM   47  C18 UNL     1      11.335  -8.277  25.043  1.00  0.00     0.202 C 
ENDBRANCH  44  46
ENDBRANCH  40  44
ENDBRANCH   3  28
TORSDOF 11
ENDMDL
MODEL 5
REMARK VINA RESULT: -7.819675050      4.288      8.262
REMARK  11 active torsions:
REMARK  status: ('A' for Active; 'I' for Inactive)
REMARK    1  A    between atoms: C2_2  and  N1_3 
REMARK    2  A    between atoms: N1_3  and  C3_5 
REMARK    3  A    between atoms: N3_9  and  C5_10 
REMARK    4  A    between atoms: C5_10  and  C6_11 
REMARK       I    between atoms: C6_11  and  N4_13 
REMARK    5  A    between atoms: N4_13  and  C7_15 
REMARK    6  A    between atoms: C7_15  and  C8_16 
REMARK    7  A    between atoms: C7_15  and  C21_41 
REMARK    8  A    between atoms: C8_16  and  C9_17 
REMARK       I    between atoms: C9_17  and  N5_19 
REMARK    9  A    between atoms: N5_19  and  C10_21 
REMARK       I    between atoms: N8_31  and  C15_32 
REMARK   10  A    between atoms: C15_32  and  C16_34 
REMARK   11  A    between atoms: C16_34  and  O4_36 
ROOT
HETATM    1  C9  UNL     1      16.309 -12.895  18.948  1.00  0.00     0.225 C 
HETATM    2  O2  UNL     1      16.066 -11.729  19.323  1.00  0.00    -0.273 OA
HETATM    3  N5  UNL     1      15.717 -13.355  17.746  1.00  0.00    -0.312 N 
ATOM      4  H5  UNL     1      14.813 -13.828  17.754  1.00  0.00     0.170 HD
ENDROOT
BRANCH   1   5
HETATM    5  C8  UNL     1      17.192 -13.757  19.753  1.00  0.00     0.129 C 
BRANCH   5   6
HETATM    6  C7  UNL     1      16.495 -14.792  20.559  1.00  0.00     0.100 C 
BRANCH   6   7
HETATM    7  N4  UNL     1      15.128 -14.493  20.887  1.00  0.00    -0.354 N 
HETATM    8  C6  UNL     1      14.033 -15.323  20.584  1.00  0.00     0.236 C 
HETATM    9  O1  UNL     1      14.219 -16.413  19.987  1.00  0.00    -0.272 OA
ATOM     10  H4  UNL     1      14.939 -13.616  21.374  1.00  0.00     0.162 HD
BRANCH   8  11
HETATM   11  C5  UNL     1      12.653 -14.945  20.953  1.00  0.00     0.233 C 
BRANCH  11  12
HETATM   12  N3  UNL     1      12.616 -13.634  21.604  1.00  0.00    -0.329 N 
HETATM   13  C4  UNL     1      12.143 -13.489  22.854  1.00  0.00     0.201 A 
HETATM   14  N2  UNL     1      12.098 -12.276  23.483  1.00  0.00    -0.188 N 
HETATM   15  C3  UNL     1      12.542 -11.200  22.822  1.00  0.00     0.681 A 
ATOM     16  H2  UNL     1      11.735 -12.193  24.433  1.00  0.00     0.185 HD
HETATM   17  N9  UNL     1      13.023 -11.317  21.564  1.00  0.00    -0.184 N 
HETATM   18  C25 UNL     1      13.056 -12.525  20.968  1.00  0.00     0.204 A 
HETATM   19  C26 UNL     1      13.487 -10.111  20.909  1.00  0.00     0.176 C 
BRANCH  15  20
HETATM   20  N1  UNL     1      12.520 -10.041  23.370  1.00  0.00    -0.226 N 
ATOM     21  H1  UNL     1      13.064  -9.290  22.948  1.00  0.00     0.177 HD
BRANCH  20  22
HETATM   22  C2  UNL     1      11.759  -9.757  24.556  1.00  0.00     0.133 C 
HETATM   23  C1  UNL     1      11.936  -8.335  25.020  1.00  0.00     0.027 C 
ENDBRANCH  20  22
ENDBRANCH  15  20
ENDBRANCH  11  12
ENDBRANCH   8  11
ENDBRANCH   6   7
BRANCH   6  24
HETATM   24  C21 UNL     1      17.218 -15.112  21.853  1.00  0.00    -0.030 C 
HETATM   25  C22 UNL     1      16.703 -14.352  23.034  1.00  0.00     0.016 C 
HETATM   26  C23 UNL     1      18.702 -14.779  21.682  1.00  0.00     0.016 C 
HETATM   27  C24 UNL     1      17.145 -16.611  22.054  1.00  0.00     0.016 C 
ENDBRANCH   6  24
ENDBRANCH   5   6
ENDBRANCH   1   5
BRANCH   3  28
HETATM   28  C10 UNL     1      16.358 -13.157  16.634  1.00  0.00     0.128 A 
HETATM   29  N6  UNL     1      16.926 -11.981  16.317  1.00  0.00    -0.318 N 
HETATM   30  C11 UNL     1      17.589 -11.785  15.159  1.00  0.00     0.181 A 
ATOM     31  H6  UNL     1      16.852 -11.207  16.977  1.00  0.00     0.170 HD
HETATM   32 CL1  UNL     1      18.321 -10.235  14.774  1.00  0.00    -0.045 Cl
HETATM   33  N7  UNL     1      17.664 -12.832  14.314  1.00  0.00    -0.332 N 
HETATM   34  C12 UNL     1      17.113 -14.028  14.585  1.00  0.00     0.055 A 
ATOM     35  H7  UNL     1      18.161 -12.712  13.432  1.00  0.00     0.168 HD
HETATM   36  C13 UNL     1      17.189 -15.098  13.721  1.00  0.00     0.048 A 
HETATM   37  C20 UNL     1      16.433 -14.235  15.768  1.00  0.00     0.103 A 
HETATM   38  C14 UNL     1      16.595 -16.321  14.058  1.00  0.00     0.106 A 
HETATM   39  N8  UNL     1      15.938 -16.518  15.203  1.00  0.00    -0.256 N 
HETATM   40  C15 UNL     1      15.325 -17.725  15.611  1.00  0.00     0.259 C 
HETATM   41  C19 UNL     1      15.864 -15.454  16.059  1.00  0.00     0.270 A 
HETATM   42  O3  UNL     1      14.720 -17.794  16.714  1.00  0.00    -0.270 OA
HETATM   43  O5  UNL     1      15.252 -15.584  17.161  1.00  0.00    -0.266 OA
BRANCH  40  44
HETATM   44  C16 UNL     1      15.351 -18.958  14.788  1.00  0.00     0.209 C 
HETATM   45  C17 UNL     1      16.330 -19.976  15.358  1.00  0.00     0.050 C 
BRANCH  44  46
HETATM   46  O4  UNL     1      14.081 -19.526  14.683  1.00  0.00    -0.382 OA
HETATM   47  C18 UNL     1      13.568 -19.212  13.431  1.00  0.00     0.202 C 
ENDBRANCH  44  46
ENDBRANCH  40  44
ENDBRANCH   3  28
TORSDOF 11
ENDMDL
