MODEL 1
REMARK VINA RESULT: -7.587008342      0.000      0.000
REMARK  8 active torsions:
REMARK  status: ('A' for Active; 'I' for Inactive)
REMARK    1  A    between atoms: C5_8  and  C6_9 
REMARK       I    between atoms: C6_9  and  N2_11 
REMARK    2  A    between atoms: N2_11  and  C7_13 
REMARK    3  A    between atoms: C7_13  and  C8_14 
REMARK    4  A    between atoms: C7_13  and  C10_18 
REMARK    5  A    between atoms: C8_14  and  C9_15 
REMARK    6  A    between atoms: C10_18  and  S1_19 
REMARK       I    between atoms: N3_25  and  C14_27 
REMARK    7  A    between atoms: C14_27  and  C15_29 
REMARK    8  A    between atoms: C22_37  and  C23_38 
ROOT
HETATM    1  C1  UNL     1      14.697 -12.120  19.904  1.00  0.00     0.315 C 
HETATM    2  N1  UNL     1      15.801 -13.012  20.074  1.00  0.00     0.140 N 
HETATM    3  C2  UNL     1      16.138 -13.050  21.469  1.00  0.00     0.409 C 
HETATM    4  O1  UNL     1      15.034 -13.509  22.211  1.00  0.00    -0.338 OA
HETATM    5  C3  UNL     1      15.059 -14.888  21.978  1.00  0.00     0.221 C 
HETATM    6  C4  UNL     1      14.759 -15.084  20.509  1.00  0.00     0.200 C 
HETATM    7  O2  UNL     1      13.860 -15.802  20.183  1.00  0.00    -0.292 OA
HETATM    8  C5  UNL     1      15.647 -14.334  19.580  1.00  0.00     0.388 C 
HETATM    9  C12 UNL     1      16.510 -15.228  22.300  1.00  0.00     0.169 C 
HETATM   10 CL1  UNL     1      17.012 -16.720  21.525  1.00  0.00    -0.115 Cl
HETATM   11  C13 UNL     1      17.203 -14.012  21.834  1.00  0.00     0.070 C 
HETATM   12  N3  UNL     1      18.448 -13.752  21.736  1.00  0.00    -0.328 N 
ATOM     13  H3  UNL     1      18.690 -12.827  21.382  1.00  0.00     0.168 HD
HETATM   14  C14 UNL     1      19.530 -14.599  22.062  1.00  0.00     0.228 C 
HETATM   15  O7  UNL     1      20.241 -14.988  21.109  1.00  0.00    -0.273 OA
ENDROOT
BRANCH  14  16
HETATM   16  C15 UNL     1      19.795 -14.993  23.420  1.00  0.00     0.112 C 
HETATM   17  C16 UNL     1      21.079 -14.465  24.024  1.00  0.00     0.055 C 
HETATM   18  C17 UNL     1      21.148 -15.239  25.353  1.00  0.00     0.123 C 
HETATM   19  C18 UNL     1      20.611 -14.248  26.404  1.00  0.00     0.046 C 
HETATM   20  C19 UNL     1      22.552 -15.540  25.753  1.00  0.00     0.046 C 
HETATM   21  N4  UNL     1      20.279 -16.358  25.176  1.00  0.00    -0.061 N 
HETATM   22  C20 UNL     1      19.082 -16.135  25.998  1.00  0.00     0.273 C 
HETATM   23  C21 UNL     1      20.777 -17.626  25.650  1.00  0.00     0.273 C 
HETATM   24  C22 UNL     1      19.826 -16.407  23.804  1.00  0.00     0.213 C 
BRANCH  24  25
HETATM   25  C23 UNL     1      20.533 -17.393  22.959  1.00  0.00     0.120 C 
HETATM   26  S2  UNL     1      19.580 -18.789  22.371  1.00  0.00    -0.096 SA
ENDBRANCH  24  25
ENDBRANCH  14  16
BRANCH   8  27
HETATM   27  C6  UNL     1      15.286 -14.465  18.172  1.00  0.00     0.259 C 
HETATM   28  O3  UNL     1      14.202 -15.026  17.867  1.00  0.00    -0.271 OA
HETATM   29  N2  UNL     1      16.071 -14.007  17.084  1.00  0.00    -0.353 N 
ATOM     30  H2  UNL     1      16.958 -13.546  17.288  1.00  0.00     0.163 HD
BRANCH  29  31
HETATM   31  C7  UNL     1      15.674 -14.161  15.692  1.00  0.00     0.106 C 
BRANCH  31  32
HETATM   32  C8  UNL     1      15.338 -12.839  15.063  1.00  0.00     0.139 C 
BRANCH  32  33
HETATM   33  C9  UNL     1      15.406 -11.669  15.954  1.00  0.00     0.174 C 
HETATM   34  O4  UNL     1      14.354 -11.183  16.522  1.00  0.00    -0.648 OA
HETATM   35  O5  UNL     1      16.556 -10.959  16.296  1.00  0.00    -0.648 OA
ENDBRANCH  32  33
ENDBRANCH  31  32
BRANCH  31  36
HETATM   36  C10 UNL     1      16.696 -14.945  14.922  1.00  0.00     0.134 C 
BRANCH  36  37
HETATM   37  S1  UNL     1      16.555 -16.645  14.810  1.00  0.00     0.012 S 
HETATM   38  C11 UNL     1      17.889 -17.679  14.560  1.00  0.00     0.127 C 
HETATM   39  O6  UNL     1      15.410 -17.270  15.833  1.00  0.00    -0.258 OA
ENDBRANCH  36  37
ENDBRANCH  31  36
ENDBRANCH  29  31
ENDBRANCH   8  27
TORSDOF 8
ENDMDL
MODEL 2
REMARK VINA RESULT: -7.136246996      3.013      4.998
REMARK  8 active torsions:
REMARK  status: ('A' for Active; 'I' for Inactive)
REMARK    1  A    between atoms: C5_8  and  C6_9 
REMARK       I    between atoms: C6_9  and  N2_11 
REMARK    2  A    between atoms: N2_11  and  C7_13 
REMARK    3  A    between atoms: C7_13  and  C8_14 
REMARK    4  A    between atoms: C7_13  and  C10_18 
REMARK    5  A    between atoms: C8_14  and  C9_15 
REMARK    6  A    between atoms: C10_18  and  S1_19 
REMARK       I    between atoms: N3_25  and  C14_27 
REMARK    7  A    between atoms: C14_27  and  C15_29 
REMARK    8  A    between atoms: C22_37  and  C23_38 
ROOT
HETATM    1  C1  UNL     1      12.866 -17.569  21.496  1.00  0.00     0.315 C 
HETATM    2  N1  UNL     1      13.912 -17.075  22.335  1.00  0.00     0.140 N 
HETATM    3  C2  UNL     1      14.803 -18.161  22.631  1.00  0.00     0.409 C 
HETATM    4  O1  UNL     1      15.347 -18.667  21.435  1.00  0.00    -0.338 OA
HETATM    5  C3  UNL     1      16.320 -17.714  21.113  1.00  0.00     0.221 C 
HETATM    6  C4  UNL     1      15.581 -16.434  20.795  1.00  0.00     0.200 C 
HETATM    7  O2  UNL     1      15.774 -15.888  19.748  1.00  0.00    -0.292 OA
HETATM    8  C5  UNL     1      14.653 -15.961  21.858  1.00  0.00     0.388 C 
HETATM    9  C12 UNL     1      17.088 -17.603  22.426  1.00  0.00     0.169 C 
HETATM   10 CL1  UNL     1      17.948 -16.078  22.545  1.00  0.00    -0.115 Cl
HETATM   11  C13 UNL     1      16.007 -17.795  23.411  1.00  0.00     0.070 C 
HETATM   12  N3  UNL     1      16.015 -17.693  24.683  1.00  0.00    -0.328 N 
ATOM     13  H3  UNL     1      15.132 -17.877  25.156  1.00  0.00     0.168 HD
HETATM   14  C14 UNL     1      17.109 -17.355  25.509  1.00  0.00     0.228 C 
HETATM   15  O7  UNL     1      17.036 -16.262  26.113  1.00  0.00    -0.273 OA
ENDROOT
BRANCH  14  16
HETATM   16  C15 UNL     1      18.247 -18.225  25.646  1.00  0.00     0.112 C 
HETATM   17  C16 UNL     1      18.312 -19.035  26.923  1.00  0.00     0.055 C 
HETATM   18  C17 UNL     1      19.718 -19.657  26.835  1.00  0.00     0.123 C 
HETATM   19  C18 UNL     1      19.475 -21.086  26.309  1.00  0.00     0.046 C 
HETATM   20  C19 UNL     1      20.344 -19.817  28.178  1.00  0.00     0.046 C 
HETATM   21  N4  UNL     1      20.422 -18.849  25.893  1.00  0.00    -0.061 N 
HETATM   22  C20 UNL     1      20.593 -19.634  24.663  1.00  0.00     0.273 C 
HETATM   23  C21 UNL     1      21.772 -18.492  26.250  1.00  0.00     0.273 C 
HETATM   24  C22 UNL     1      19.613 -17.706  25.534  1.00  0.00     0.213 C 
BRANCH  24  25
HETATM   25  C23 UNL     1      19.989 -16.450  26.216  1.00  0.00     0.120 C 
HETATM   26  S2  UNL     1      20.364 -15.043  25.175  1.00  0.00    -0.096 SA
ENDBRANCH  24  25
ENDBRANCH  14  16
BRANCH   8  27
HETATM   27  C6  UNL     1      13.885 -14.774  21.497  1.00  0.00     0.259 C 
HETATM   28  O3  UNL     1      12.629 -14.841  21.472  1.00  0.00    -0.271 OA
HETATM   29  N2  UNL     1      14.442 -13.516  21.158  1.00  0.00    -0.353 N 
ATOM     30  H2  UNL     1      15.457 -13.418  21.166  1.00  0.00     0.163 HD
BRANCH  29  31
HETATM   31  C7  UNL     1      13.638 -12.356  20.800  1.00  0.00     0.106 C 
BRANCH  31  32
HETATM   32  C8  UNL     1      13.927 -11.185  21.694  1.00  0.00     0.139 C 
BRANCH  32  33
HETATM   33  C9  UNL     1      13.082 -11.070  22.894  1.00  0.00     0.174 C 
HETATM   34  O4  UNL     1      12.567 -12.104  23.468  1.00  0.00    -0.648 OA
HETATM   35  O5  UNL     1      12.738  -9.887  23.549  1.00  0.00    -0.648 OA
ENDBRANCH  32  33
ENDBRANCH  31  32
BRANCH  31  36
HETATM   36  C10 UNL     1      13.770 -12.037  19.339  1.00  0.00     0.134 C 
BRANCH  36  37
HETATM   37  S1  UNL     1      15.018 -12.759  18.422  1.00  0.00     0.012 S 
HETATM   38  C11 UNL     1      14.898 -13.049  16.745  1.00  0.00     0.127 C 
HETATM   39  O6  UNL     1      16.533 -12.297  18.911  1.00  0.00    -0.258 OA
ENDBRANCH  36  37
ENDBRANCH  31  36
ENDBRANCH  29  31
ENDBRANCH   8  27
TORSDOF 8
ENDMDL
MODEL 3
REMARK VINA RESULT: -7.066881640      2.695      4.024
REMARK  8 active torsions:
REMARK  status: ('A' for Active; 'I' for Inactive)
REMARK    1  A    between atoms: C5_8  and  C6_9 
REMARK       I    between atoms: C6_9  and  N2_11 
REMARK    2  A    between atoms: N2_11  and  C7_13 
REMARK    3  A    between atoms: C7_13  and  C8_14 
REMARK    4  A    between atoms: C7_13  and  C10_18 
REMARK    5  A    between atoms: C8_14  and  C9_15 
REMARK    6  A    between atoms: C10_18  and  S1_19 
REMARK       I    between atoms: N3_25  and  C14_27 
REMARK    7  A    between atoms: C14_27  and  C15_29 
REMARK    8  A    between atoms: C22_37  and  C23_38 
ROOT
HETATM    1  C1  UNL     1      15.840 -12.828  19.020  1.00  0.00     0.315 C 
HETATM    2  N1  UNL     1      16.451 -13.919  19.711  1.00  0.00     0.140 N 
HETATM    3  C2  UNL     1      17.231 -13.387  20.793  1.00  0.00     0.409 C 
HETATM    4  O1  UNL     1      16.396 -12.671  21.671  1.00  0.00    -0.338 OA
HETATM    5  C3  UNL     1      15.759 -13.690  22.388  1.00  0.00     0.221 C 
HETATM    6  C4  UNL     1      14.886 -14.432  21.402  1.00  0.00     0.200 C 
HETATM    7  O2  UNL     1      13.720 -14.565  21.633  1.00  0.00    -0.292 OA
HETATM    8  C5  UNL     1      15.592 -14.942  20.195  1.00  0.00     0.388 C 
HETATM    9  C12 UNL     1      16.944 -14.541  22.832  1.00  0.00     0.169 C 
HETATM   10 CL1  UNL     1      16.458 -16.185  23.203  1.00  0.00    -0.115 Cl
HETATM   11  C13 UNL     1      17.852 -14.397  21.679  1.00  0.00     0.070 C 
HETATM   12  N3  UNL     1      18.959 -14.974  21.418  1.00  0.00    -0.328 N 
ATOM     13  H3  UNL     1      19.413 -14.707  20.545  1.00  0.00     0.168 HD
HETATM   14  C14 UNL     1      19.629 -15.941  22.198  1.00  0.00     0.228 C 
HETATM   15  O7  UNL     1      19.707 -17.093  21.715  1.00  0.00    -0.273 OA
ENDROOT
BRANCH  14  16
HETATM   16  C15 UNL     1      20.188 -15.616  23.484  1.00  0.00     0.112 C 
HETATM   17  C16 UNL     1      21.204 -14.494  23.500  1.00  0.00     0.055 C 
HETATM   18  C17 UNL     1      21.737 -14.567  24.942  1.00  0.00     0.123 C 
HETATM   19  C18 UNL     1      20.967 -13.463  25.694  1.00  0.00     0.046 C 
HETATM   20  C19 UNL     1      23.177 -14.192  25.027  1.00  0.00     0.046 C 
HETATM   21  N4  UNL     1      21.387 -15.873  25.401  1.00  0.00    -0.061 N 
HETATM   22  C20 UNL     1      20.308 -15.732  26.387  1.00  0.00     0.273 C 
HETATM   23  C21 UNL     1      22.411 -16.582  26.128  1.00  0.00     0.273 C 
HETATM   24  C22 UNL     1      20.838 -16.640  24.306  1.00  0.00     0.213 C 
BRANCH  24  25
HETATM   25  C23 UNL     1      21.783 -17.597  23.692  1.00  0.00     0.120 C 
HETATM   26  S2  UNL     1      21.384 -19.336  23.834  1.00  0.00    -0.096 SA
ENDBRANCH  24  25
ENDBRANCH  14  16
BRANCH   8  27
HETATM   27  C6  UNL     1      14.718 -15.577  19.214  1.00  0.00     0.259 C 
HETATM   28  O3  UNL     1      14.744 -15.178  18.021  1.00  0.00    -0.271 OA
HETATM   29  N2  UNL     1      13.813 -16.631  19.492  1.00  0.00    -0.353 N 
ATOM     30  H2  UNL     1      13.760 -16.985  20.448  1.00  0.00     0.163 HD
BRANCH  29  31
HETATM   31  C7  UNL     1      12.954 -17.234  18.483  1.00  0.00     0.106 C 
BRANCH  31  32
HETATM   32  C8  UNL     1      13.536 -18.514  17.956  1.00  0.00     0.139 C 
BRANCH  32  33
HETATM   33  C9  UNL     1      14.707 -19.034  18.682  1.00  0.00     0.174 C 
HETATM   34  O4  UNL     1      14.585 -19.816  19.701  1.00  0.00    -0.648 OA
HETATM   35  O5  UNL     1      16.044 -18.771  18.386  1.00  0.00    -0.648 OA
ENDBRANCH  32  33
ENDBRANCH  31  32
BRANCH  31  36
HETATM   36  C10 UNL     1      11.548 -17.382  18.987  1.00  0.00     0.134 C 
BRANCH  36  37
HETATM   37  S1  UNL     1      11.258 -18.178  20.471  1.00  0.00     0.012 S 
HETATM   38  C11 UNL     1      11.123 -19.873  20.613  1.00  0.00     0.127 C 
HETATM   39  O6  UNL     1      12.027 -17.462  21.753  1.00  0.00    -0.258 OA
ENDBRANCH  36  37
ENDBRANCH  31  36
ENDBRANCH  29  31
ENDBRANCH   8  27
TORSDOF 8
ENDMDL
MODEL 4
REMARK VINA RESULT: -7.005930268      2.578      4.438
REMARK  8 active torsions:
REMARK  status: ('A' for Active; 'I' for Inactive)
REMARK    1  A    between atoms: C5_8  and  C6_9 
REMARK       I    between atoms: C6_9  and  N2_11 
REMARK    2  A    between atoms: N2_11  and  C7_13 
REMARK    3  A    between atoms: C7_13  and  C8_14 
REMARK    4  A    between atoms: C7_13  and  C10_18 
REMARK    5  A    between atoms: C8_14  and  C9_15 
REMARK    6  A    between atoms: C10_18  and  S1_19 
REMARK       I    between atoms: N3_25  and  C14_27 
REMARK    7  A    between atoms: C14_27  and  C15_29 
REMARK    8  A    between atoms: C22_37  and  C23_38 
ROOT
HETATM    1  C1  UNL     1      18.674 -12.995  20.890  1.00  0.00     0.315 C 
HETATM    2  N1  UNL     1      18.738 -14.405  21.114  1.00  0.00     0.140 N 
HETATM    3  C2  UNL     1      19.819 -14.668  22.020  1.00  0.00     0.409 C 
HETATM    4  O1  UNL     1      19.590 -14.000  23.238  1.00  0.00    -0.338 OA
HETATM    5  C3  UNL     1      18.631 -14.810  23.857  1.00  0.00     0.221 C 
HETATM    6  C4  UNL     1      17.377 -14.712  23.017  1.00  0.00     0.200 C 
HETATM    7  O2  UNL     1      16.348 -14.388  23.534  1.00  0.00    -0.292 OA
HETATM    8  C5  UNL     1      17.556 -15.042  21.577  1.00  0.00     0.388 C 
HETATM    9  C12 UNL     1      19.272 -16.189  23.741  1.00  0.00     0.169 C 
HETATM   10 CL1  UNL     1      18.077 -17.468  23.853  1.00  0.00    -0.115 Cl
HETATM   11  C13 UNL     1      19.960 -16.081  22.441  1.00  0.00     0.070 C 
HETATM   12  N3  UNL     1      20.576 -16.961  21.753  1.00  0.00    -0.328 N 
ATOM     13  H3  UNL     1      20.978 -16.644  20.871  1.00  0.00     0.168 HD
HETATM   14  C14 UNL     1      20.764 -18.323  22.072  1.00  0.00     0.228 C 
HETATM   15  O7  UNL     1      20.183 -19.153  21.339  1.00  0.00    -0.273 OA
ENDROOT
BRANCH  14  16
HETATM   16  C15 UNL     1      21.581 -18.730  23.184  1.00  0.00     0.112 C 
HETATM   17  C16 UNL     1      22.127 -17.614  24.049  1.00  0.00     0.055 C 
HETATM   18  C17 UNL     1      23.100 -18.372  24.970  1.00  0.00     0.123 C 
HETATM   19  C18 UNL     1      22.311 -18.579  26.278  1.00  0.00     0.046 C 
HETATM   20  C19 UNL     1      24.285 -17.545  25.334  1.00  0.00     0.046 C 
HETATM   21  N4  UNL     1      23.362 -19.605  24.299  1.00  0.00    -0.061 N 
HETATM   22  C20 UNL     1      22.685 -20.676  25.042  1.00  0.00     0.273 C 
HETATM   23  C21 UNL     1      24.739 -20.033  24.279  1.00  0.00     0.273 C 
HETATM   24  C22 UNL     1      22.759 -19.579  22.986  1.00  0.00     0.213 C 
BRANCH  24  25
HETATM   25  C23 UNL     1      23.702 -19.296  21.883  1.00  0.00     0.120 C 
HETATM   26  S2  UNL     1      23.570 -20.318  20.420  1.00  0.00    -0.096 SA
ENDBRANCH  24  25
ENDBRANCH  14  16
BRANCH   8  27
HETATM   27  C6  UNL     1      16.356 -14.855  20.768  1.00  0.00     0.259 C 
HETATM   28  O3  UNL     1      15.996 -15.772  19.986  1.00  0.00    -0.271 OA
HETATM   29  N2  UNL     1      15.536 -13.700  20.783  1.00  0.00    -0.353 N 
ATOM     30  H2  UNL     1      15.792 -12.932  21.404  1.00  0.00     0.163 HD
BRANCH  29  31
HETATM   31  C7  UNL     1      14.346 -13.553  19.956  1.00  0.00     0.106 C 
BRANCH  31  32
HETATM   32  C8  UNL     1      13.139 -13.210  20.780  1.00  0.00     0.139 C 
BRANCH  32  33
HETATM   33  C9  UNL     1      13.398 -12.448  22.012  1.00  0.00     0.174 C 
HETATM   34  O4  UNL     1      12.995 -12.860  23.167  1.00  0.00    -0.648 OA
HETATM   35  O5  UNL     1      14.085 -11.237  22.104  1.00  0.00    -0.648 OA
ENDBRANCH  32  33
ENDBRANCH  31  32
BRANCH  31  36
HETATM   36  C10 UNL     1      14.588 -12.596  18.826  1.00  0.00     0.134 C 
BRANCH  36  37
HETATM   37  S1  UNL     1      15.761 -12.963  17.638  1.00  0.00     0.012 S 
HETATM   38  C11 UNL     1      15.641 -14.301  16.587  1.00  0.00     0.127 C 
HETATM   39  O6  UNL     1      16.408 -11.613  16.925  1.00  0.00    -0.258 OA
ENDBRANCH  36  37
ENDBRANCH  31  36
ENDBRANCH  29  31
ENDBRANCH   8  27
TORSDOF 8
ENDMDL
MODEL 5
REMARK VINA RESULT: -7.004631029      3.759      9.557
REMARK  8 active torsions:
REMARK  status: ('A' for Active; 'I' for Inactive)
REMARK    1  A    between atoms: C5_8  and  C6_9 
REMARK       I    between atoms: C6_9  and  N2_11 
REMARK    2  A    between atoms: N2_11  and  C7_13 
REMARK    3  A    between atoms: C7_13  and  C8_14 
REMARK    4  A    between atoms: C7_13  and  C10_18 
REMARK    5  A    between atoms: C8_14  and  C9_15 
REMARK    6  A    between atoms: C10_18  and  S1_19 
REMARK       I    between atoms: N3_25  and  C14_27 
REMARK    7  A    between atoms: C14_27  and  C15_29 
REMARK    8  A    between atoms: C22_37  and  C23_38 
ROOT
HETATM    1  C1  UNL     1      20.289 -16.440  26.458  1.00  0.00     0.315 C 
HETATM    2  N1  UNL     1      19.877 -16.561  25.094  1.00  0.00     0.140 N 
HETATM    3  C2  UNL     1      18.765 -15.679  24.880  1.00  0.00     0.409 C 
HETATM    4  O1  UNL     1      19.153 -14.353  25.146  1.00  0.00    -0.338 OA
HETATM    5  C3  UNL     1      19.882 -14.010  24.002  1.00  0.00     0.221 C 
HETATM    6  C4  UNL     1      21.120 -14.878  24.003  1.00  0.00     0.200 C 
HETATM    7  O2  UNL     1      22.198 -14.364  23.931  1.00  0.00    -0.292 OA
HETATM    8  C5  UNL     1      20.865 -16.341  24.098  1.00  0.00     0.388 C 
HETATM    9  C12 UNL     1      18.920 -14.417  22.891  1.00  0.00     0.169 C 
HETATM   10 CL1  UNL     1      19.760 -14.694  21.376  1.00  0.00    -0.115 Cl
HETATM   11  C13 UNL     1      18.279 -15.606  23.483  1.00  0.00     0.070 C 
HETATM   12  N3  UNL     1      17.463 -16.447  22.978  1.00  0.00    -0.328 N 
ATOM     13  H3  UNL     1      17.152 -17.198  23.593  1.00  0.00     0.168 HD
HETATM   14  C14 UNL     1      16.943 -16.457  21.666  1.00  0.00     0.228 C 
HETATM   15  O7  UNL     1      17.300 -17.405  20.931  1.00  0.00    -0.273 OA
ENDROOT
BRANCH  14  16
HETATM   16  C15 UNL     1      16.052 -15.428  21.201  1.00  0.00     0.112 C 
HETATM   17  C16 UNL     1      15.854 -14.252  22.133  1.00  0.00     0.055 C 
HETATM   18  C17 UNL     1      14.711 -13.486  21.443  1.00  0.00     0.123 C 
HETATM   19  C18 UNL     1      15.417 -12.355  20.669  1.00  0.00     0.046 C 
HETATM   20  C19 UNL     1      13.815 -12.812  22.424  1.00  0.00     0.046 C 
HETATM   21  N4  UNL     1      14.103 -14.437  20.569  1.00  0.00    -0.061 N 
HETATM   22  C20 UNL     1      14.450 -14.070  19.189  1.00  0.00     0.273 C 
HETATM   23  C21 UNL     1      12.661 -14.452  20.556  1.00  0.00     0.273 C 
HETATM   24  C22 UNL     1      14.679 -15.743  20.797  1.00  0.00     0.213 C 
BRANCH  24  25
HETATM   25  C23 UNL     1      13.848 -16.643  21.625  1.00  0.00     0.120 C 
HETATM   26  S2  UNL     1      13.568 -18.295  20.996  1.00  0.00    -0.096 SA
ENDBRANCH  24  25
ENDBRANCH  14  16
BRANCH   8  27
HETATM   27  C6  UNL     1      22.073 -17.155  24.187  1.00  0.00     0.259 C 
HETATM   28  O3  UNL     1      22.098 -18.278  23.622  1.00  0.00    -0.271 OA
HETATM   29  N2  UNL     1      23.255 -16.783  24.875  1.00  0.00    -0.353 N 
ATOM     30  H2  UNL     1      23.277 -15.878  25.347  1.00  0.00     0.163 HD
BRANCH  29  31
HETATM   31  C7  UNL     1      24.439 -17.627  24.942  1.00  0.00     0.106 C 
BRANCH  31  32
HETATM   32  C8  UNL     1      25.665 -16.899  24.472  1.00  0.00     0.139 C 
BRANCH  32  33
HETATM   33  C9  UNL     1      26.206 -17.325  23.171  1.00  0.00     0.174 C 
HETATM   34  O4  UNL     1      25.441 -17.728  22.213  1.00  0.00    -0.648 OA
HETATM   35  O5  UNL     1      27.552 -17.351  22.806  1.00  0.00    -0.648 OA
ENDBRANCH  32  33
ENDBRANCH  31  32
BRANCH  31  36
HETATM   36  C10 UNL     1      24.594 -18.234  26.306  1.00  0.00     0.134 C 
BRANCH  36  37
HETATM   37  S1  UNL     1      26.141 -18.314  27.030  1.00  0.00     0.012 S 
HETATM   38  C11 UNL     1      26.402 -18.103  28.702  1.00  0.00     0.127 C 
HETATM   39  O6  UNL     1      27.121 -19.459  26.342  1.00  0.00    -0.258 OA
ENDBRANCH  36  37
ENDBRANCH  31  36
ENDBRANCH  29  31
ENDBRANCH   8  27
TORSDOF 8
ENDMDL
