MODEL 1
REMARK VINA RESULT: -9.213838014      0.000      0.000
REMARK  8 active torsions:
REMARK  status: ('A' for Active; 'I' for Inactive)
REMARK    1  A    between atoms: C3_3  and  O1_4 
REMARK    2  A    between atoms: C5_7  and  O2_8 
REMARK    3  A    between atoms: C7_11  and  O3_12 
REMARK    4  A    between atoms: C9_15  and  O4_16 
REMARK    5  A    between atoms: C10_18  and  C11_19 
REMARK    6  A    between atoms: C12_20  and  C13_21 
REMARK    7  A    between atoms: C15_26  and  N2_27 
REMARK    8  A    between atoms: C17_33  and  O5_34 
ROOT
HETATM    1  C1  UNL     1      23.188  14.587 162.775  1.00  0.00     0.052 C 
HETATM    2  C2  UNL     1      21.766  14.344 162.456  1.00  0.00    -0.015 A 
HETATM    3  C3  UNL     1      20.897  13.759 163.374  1.00  0.00     0.075 A 
HETATM    4  C4  UNL     1      19.553  13.548 163.026  1.00  0.00     0.074 A 
HETATM    5  C5  UNL     1      19.068  13.901 161.805  1.00  0.00     0.082 A 
HETATM    6  C6  UNL     1      19.900  14.482 160.870  1.00  0.00     0.045 A 
HETATM    7  C7  UNL     1      19.388  14.840 159.621  1.00  0.00     0.093 A 
HETATM    8  C8  UNL     1      20.254  15.429 158.689  1.00  0.00     0.047 A 
HETATM    9  C9  UNL     1      19.718  15.782 157.434  1.00  0.00     0.090 A 
HETATM   10  C10 UNL     1      20.602  16.372 156.513  1.00  0.00     0.000 A 
HETATM   11  C14 UNL     1      21.940  16.581 156.864  1.00  0.00     0.046 A 
HETATM   12  C15 UNL     1      22.431  16.232 158.076  1.00  0.00     0.062 A 
HETATM   13  C16 UNL     1      21.576  15.652 158.992  1.00  0.00     0.042 A 
HETATM   14  C17 UNL     1      22.043  15.278 160.257  1.00  0.00     0.091 A 
HETATM   15  C18 UNL     1      21.207  14.685 161.217  1.00  0.00     0.022 A 
ENDROOT
BRANCH  10  16
HETATM   16  C11 UNL     1      20.145  16.766 155.206  1.00  0.00     0.015 C 
HETATM   17  C12 UNL     1      20.703  16.778 154.042  1.00  0.00     0.017 C 
BRANCH  17  18
HETATM   18  C13 UNL     1      19.959  17.253 152.844  1.00  0.00     0.080 C 
HETATM   19  N1  UNL     1      20.313  18.283 152.187  1.00  0.00    -0.408 N 
ATOM     20  H12 UNL     1      21.139  18.791 152.506  1.00  0.00     0.155 HD
ATOM     21  H11 UNL     1      19.803  18.609 151.365  1.00  0.00     0.155 HD
ENDBRANCH  17  18
ENDBRANCH  10  16
BRANCH   9  22
HETATM   22  O4  UNL     1      18.456  15.604 157.055  1.00  0.00    -0.359 OA
ATOM     23  H4  UNL     1      18.080  15.897 156.234  1.00  0.00     0.217 HD
ENDBRANCH   9  22
BRANCH  12  24
HETATM   24  N2  UNL     1      23.795  16.466 158.380  1.00  0.00    -0.306 N 
HETATM   25  N3  UNL     1      24.394  17.555 158.228  1.00  0.00    -0.345 N 
ATOM     26  H32 UNL     1      23.840  18.326 157.855  1.00  0.00     0.176 HD
ATOM     27  H31 UNL     1      25.375  17.723 158.447  1.00  0.00     0.176 HD
ATOM     28  H2  UNL     1      24.333  15.684 158.752  1.00  0.00     0.186 HD
ENDBRANCH  12  24
BRANCH   7  29
HETATM   29  O3  UNL     1      18.127  14.637 159.308  1.00  0.00    -0.359 OA
ATOM     30  H3  UNL     1      17.568  15.343 159.008  1.00  0.00     0.217 HD
ENDBRANCH   7  29
BRANCH  14  31
HETATM   31  O5  UNL     1      23.294  15.471 160.587  1.00  0.00    -0.359 OA
ATOM     32  H5  UNL     1      23.517  15.861 161.424  1.00  0.00     0.217 HD
ENDBRANCH  14  31
BRANCH   5  33
HETATM   33  O2  UNL     1      17.730  13.652 161.557  1.00  0.00    -0.360 OA
ATOM     34  H2  UNL     1      17.506  13.266 160.719  1.00  0.00     0.217 HD
ENDBRANCH   5  33
BRANCH   3  35
HETATM   35  O1  UNL     1      21.318  13.385 164.607  1.00  0.00    -0.360 OA
ATOM     36  H1  UNL     1      20.751  13.453 165.366  1.00  0.00     0.217 HD
ENDBRANCH   3  35
TORSDOF 8
ENDMDL
MODEL 2
REMARK VINA RESULT: -8.975116330      2.250      3.737
REMARK  8 active torsions:
REMARK  status: ('A' for Active; 'I' for Inactive)
REMARK    1  A    between atoms: C3_3  and  O1_4 
REMARK    2  A    between atoms: C5_7  and  O2_8 
REMARK    3  A    between atoms: C7_11  and  O3_12 
REMARK    4  A    between atoms: C9_15  and  O4_16 
REMARK    5  A    between atoms: C10_18  and  C11_19 
REMARK    6  A    between atoms: C12_20  and  C13_21 
REMARK    7  A    between atoms: C15_26  and  N2_27 
REMARK    8  A    between atoms: C17_33  and  O5_34 
ROOT
HETATM    1  C1  UNL     1      20.226  13.247 163.831  1.00  0.00     0.052 C 
HETATM    2  C2  UNL     1      21.420  13.936 163.303  1.00  0.00    -0.015 A 
HETATM    3  C3  UNL     1      22.576  14.089 164.065  1.00  0.00     0.075 A 
HETATM    4  C4  UNL     1      23.688  14.753 163.520  1.00  0.00     0.074 A 
HETATM    5  C5  UNL     1      23.671  15.255 162.256  1.00  0.00     0.082 A 
HETATM    6  C6  UNL     1      22.543  15.121 161.472  1.00  0.00     0.045 A 
HETATM    7  C7  UNL     1      22.540  15.642 160.176  1.00  0.00     0.093 A 
HETATM    8  C8  UNL     1      21.383  15.493 159.400  1.00  0.00     0.047 A 
HETATM    9  C9  UNL     1      21.399  16.025 158.095  1.00  0.00     0.090 A 
HETATM   10  C10 UNL     1      20.229  15.865 157.333  1.00  0.00     0.000 A 
HETATM   11  C14 UNL     1      19.123  15.205 157.879  1.00  0.00     0.046 A 
HETATM   12  C15 UNL     1      19.132  14.702 159.136  1.00  0.00     0.062 A 
HETATM   13  C16 UNL     1      20.273  14.851 159.897  1.00  0.00     0.042 A 
HETATM   14  C17 UNL     1      20.324  14.345 161.201  1.00  0.00     0.091 A 
HETATM   15  C18 UNL     1      21.465  14.475 162.009  1.00  0.00     0.022 A 
ENDROOT
BRANCH  10  16
HETATM   16  C11 UNL     1      20.152  16.377 155.988  1.00  0.00     0.015 C 
HETATM   17  C12 UNL     1      19.305  17.135 155.379  1.00  0.00     0.017 C 
BRANCH  17  18
HETATM   18  C13 UNL     1      19.498  17.502 153.951  1.00  0.00     0.080 C 
HETATM   19  N1  UNL     1      20.415  16.988 153.234  1.00  0.00    -0.408 N 
ATOM     20  H12 UNL     1      21.033  16.303 153.670  1.00  0.00     0.155 HD
ATOM     21  H11 UNL     1      20.548  17.240 152.254  1.00  0.00     0.155 HD
ENDBRANCH  17  18
ENDBRANCH  10  16
BRANCH   9  22
HETATM   22  O4  UNL     1      22.423  16.660 157.533  1.00  0.00    -0.359 OA
ATOM     23  H4  UNL     1      23.280  16.779 157.923  1.00  0.00     0.217 HD
ENDBRANCH   9  22
BRANCH  12  24
HETATM   24  N2  UNL     1      17.984  14.042 159.640  1.00  0.00    -0.306 N 
HETATM   25  N3  UNL     1      17.721  12.828 159.485  1.00  0.00    -0.345 N 
ATOM     26  H32 UNL     1      18.398  12.284 158.949  1.00  0.00     0.176 HD
ATOM     27  H31 UNL     1      16.896  12.352 159.848  1.00  0.00     0.176 HD
ATOM     28  H2  UNL     1      17.318  14.600 160.173  1.00  0.00     0.186 HD
ENDBRANCH  12  24
BRANCH   7  29
HETATM   29  O3  UNL     1      23.589  16.260 159.678  1.00  0.00    -0.359 OA
ATOM     30  H3  UNL     1      24.413  15.809 159.537  1.00  0.00     0.217 HD
ENDBRANCH   7  29
BRANCH  14  31
HETATM   31  O5  UNL     1      19.292  13.728 161.715  1.00  0.00    -0.359 OA
ATOM     32  H5  UNL     1      19.260  12.779 161.738  1.00  0.00     0.217 HD
ENDBRANCH  14  31
BRANCH   5  33
HETATM   33  O2  UNL     1      24.816  15.891 161.810  1.00  0.00    -0.360 OA
ATOM     34  H2  UNL     1      25.279  16.441 162.430  1.00  0.00     0.217 HD
ENDBRANCH   5  33
BRANCH   3  35
HETATM   35  O1  UNL     1      22.657  13.612 165.331  1.00  0.00    -0.360 OA
ATOM     36  H1  UNL     1      22.087  12.916 165.635  1.00  0.00     0.217 HD
ENDBRANCH   3  35
TORSDOF 8
ENDMDL
MODEL 3
REMARK VINA RESULT: -8.973325220      2.904      6.525
REMARK  8 active torsions:
REMARK  status: ('A' for Active; 'I' for Inactive)
REMARK    1  A    between atoms: C3_3  and  O1_4 
REMARK    2  A    between atoms: C5_7  and  O2_8 
REMARK    3  A    between atoms: C7_11  and  O3_12 
REMARK    4  A    between atoms: C9_15  and  O4_16 
REMARK    5  A    between atoms: C10_18  and  C11_19 
REMARK    6  A    between atoms: C12_20  and  C13_21 
REMARK    7  A    between atoms: C15_26  and  N2_27 
REMARK    8  A    between atoms: C17_33  and  O5_34 
ROOT
HETATM    1  C1  UNL     1      25.028  16.761 157.255  1.00  0.00     0.052 C 
HETATM    2  C2  UNL     1      23.691  16.566 156.659  1.00  0.00    -0.015 A 
HETATM    3  C3  UNL     1      23.444  16.812 155.310  1.00  0.00     0.075 A 
HETATM    4  C4  UNL     1      22.155  16.612 154.789  1.00  0.00     0.074 A 
HETATM    5  C5  UNL     1      21.129  16.180 155.569  1.00  0.00     0.082 A 
HETATM    6  C6  UNL     1      21.336  15.926 156.909  1.00  0.00     0.045 A 
HETATM    7  C7  UNL     1      20.272  15.482 157.698  1.00  0.00     0.093 A 
HETATM    8  C8  UNL     1      20.508  15.230 159.056  1.00  0.00     0.047 A 
HETATM    9  C9  UNL     1      19.422  14.784 159.836  1.00  0.00     0.090 A 
HETATM   10  C10 UNL     1      19.679  14.537 161.196  1.00  0.00     0.000 A 
HETATM   11  C14 UNL     1      20.964  14.738 161.712  1.00  0.00     0.046 A 
HETATM   12  C15 UNL     1      21.991  15.168 160.943  1.00  0.00     0.062 A 
HETATM   13  C16 UNL     1      21.755  15.415 159.605  1.00  0.00     0.042 A 
HETATM   14  C17 UNL     1      22.790  15.860 158.775  1.00  0.00     0.091 A 
HETATM   15  C18 UNL     1      22.592  16.122 157.410  1.00  0.00     0.022 A 
ENDROOT
BRANCH  10  16
HETATM   16  C11 UNL     1      18.630  14.078 162.070  1.00  0.00     0.015 C 
HETATM   17  C12 UNL     1      17.821  14.684 162.871  1.00  0.00     0.017 C 
BRANCH  17  18
HETATM   18  C13 UNL     1      16.819  13.922 163.663  1.00  0.00     0.080 C 
HETATM   19  N1  UNL     1      15.773  14.466 164.142  1.00  0.00    -0.408 N 
ATOM     20  H12 UNL     1      15.632  15.462 163.968  1.00  0.00     0.155 HD
ATOM     21  H11 UNL     1      15.086  13.944 164.686  1.00  0.00     0.155 HD
ENDBRANCH  17  18
ENDBRANCH  10  16
BRANCH   9  22
HETATM   22  O4  UNL     1      18.186  14.579 159.392  1.00  0.00    -0.359 OA
ATOM     23  H4  UNL     1      17.751  15.085 158.716  1.00  0.00     0.217 HD
ENDBRANCH   9  22
BRANCH  12  24
HETATM   24  N2  UNL     1      23.273  15.355 161.516  1.00  0.00    -0.306 N 
HETATM   25  N3  UNL     1      23.497  15.599 162.723  1.00  0.00    -0.345 N 
ATOM     26  H32 UNL     1      22.679  15.666 163.329  1.00  0.00     0.176 HD
ATOM     27  H31 UNL     1      24.419  15.734 163.136  1.00  0.00     0.176 HD
ATOM     28  H2  UNL     1      24.079  15.284 160.896  1.00  0.00     0.186 HD
ENDBRANCH  12  24
BRANCH   7  29
HETATM   29  O3  UNL     1      19.070  15.298 157.196  1.00  0.00    -0.359 OA
ATOM     30  H3  UNL     1      18.844  15.598 156.324  1.00  0.00     0.217 HD
ENDBRANCH   7  29
BRANCH  14  31
HETATM   31  O5  UNL     1      23.992  16.049 159.255  1.00  0.00    -0.359 OA
ATOM     32  H5  UNL     1      24.756  15.918 158.706  1.00  0.00     0.217 HD
ENDBRANCH  14  31
BRANCH   5  33
HETATM   33  O2  UNL     1      19.897  16.013 154.962  1.00  0.00    -0.360 OA
ATOM     34  H2  UNL     1      19.356  16.786 154.852  1.00  0.00     0.217 HD
ENDBRANCH   5  33
BRANCH   3  35
HETATM   35  O1  UNL     1      24.424  17.245 154.480  1.00  0.00    -0.360 OA
ATOM     36  H1  UNL     1      24.712  16.724 153.739  1.00  0.00     0.217 HD
ENDBRANCH   3  35
TORSDOF 8
ENDMDL
MODEL 4
REMARK VINA RESULT: -8.607204687      2.962      7.725
REMARK  8 active torsions:
REMARK  status: ('A' for Active; 'I' for Inactive)
REMARK    1  A    between atoms: C3_3  and  O1_4 
REMARK    2  A    between atoms: C5_7  and  O2_8 
REMARK    3  A    between atoms: C7_11  and  O3_12 
REMARK    4  A    between atoms: C9_15  and  O4_16 
REMARK    5  A    between atoms: C10_18  and  C11_19 
REMARK    6  A    between atoms: C12_20  and  C13_21 
REMARK    7  A    between atoms: C15_26  and  N2_27 
REMARK    8  A    between atoms: C17_33  and  O5_34 
ROOT
HETATM    1  C1  UNL     1      20.111  16.383 154.469  1.00  0.00     0.052 C 
HETATM    2  C2  UNL     1      21.494  16.609 154.936  1.00  0.00    -0.015 A 
HETATM    3  C3  UNL     1      22.488  17.085 154.085  1.00  0.00     0.075 A 
HETATM    4  C4  UNL     1      23.790  17.283 154.575  1.00  0.00     0.074 A 
HETATM    5  C5  UNL     1      24.112  17.023 155.870  1.00  0.00     0.082 A 
HETATM    6  C6  UNL     1      23.152  16.551 156.742  1.00  0.00     0.045 A 
HETATM    7  C7  UNL     1      23.498  16.288 158.070  1.00  0.00     0.093 A 
HETATM    8  C8  UNL     1      22.506  15.809 158.935  1.00  0.00     0.047 A 
HETATM    9  C9  UNL     1      22.875  15.549 160.271  1.00  0.00     0.090 A 
HETATM   10  C10 UNL     1      21.865  15.070 161.124  1.00  0.00     0.000 A 
HETATM   11  C14 UNL     1      20.570  14.872 160.632  1.00  0.00     0.046 A 
HETATM   12  C15 UNL     1      20.240  15.129 159.344  1.00  0.00     0.062 A 
HETATM   13  C16 UNL     1      21.220  15.600 158.494  1.00  0.00     0.042 A 
HETATM   14  C17 UNL     1      20.921  15.879 157.156  1.00  0.00     0.091 A 
HETATM   15  C18 UNL     1      21.889  16.360 156.258  1.00  0.00     0.022 A 
ENDROOT
BRANCH  10  16
HETATM   16  C11 UNL     1      22.148  14.776 162.505  1.00  0.00     0.015 C 
HETATM   17  C12 UNL     1      21.483  14.176 163.434  1.00  0.00     0.017 C 
BRANCH  17  18
HETATM   18  C13 UNL     1      22.052  14.022 164.800  1.00  0.00     0.080 C 
HETATM   19  N1  UNL     1      21.789  14.835 165.743  1.00  0.00    -0.408 N 
ATOM     20  H12 UNL     1      21.164  15.615 165.538  1.00  0.00     0.155 HD
ATOM     21  H11 UNL     1      22.178  14.729 166.680  1.00  0.00     0.155 HD
ENDBRANCH  17  18
ENDBRANCH  10  16
BRANCH   9  22
HETATM   22  O4  UNL     1      24.089  15.720 160.784  1.00  0.00    -0.359 OA
ATOM     23  H4  UNL     1      24.288  15.838 161.705  1.00  0.00     0.217 HD
ENDBRANCH   9  22
BRANCH  12  24
HETATM   24  N2  UNL     1      18.913  14.912 158.898  1.00  0.00    -0.306 N 
HETATM   25  N3  UNL     1      18.384  13.791 158.720  1.00  0.00    -0.345 N 
ATOM     26  H32 UNL     1      18.970  12.979 158.918  1.00  0.00     0.176 HD
ATOM     27  H31 UNL     1      17.429  13.634 158.399  1.00  0.00     0.176 HD
ATOM     28  H2  UNL     1      18.343  15.734 158.706  1.00  0.00     0.186 HD
ENDBRANCH  12  24
BRANCH   7  29
HETATM   29  O3  UNL     1      24.721  16.479 158.515  1.00  0.00    -0.359 OA
ATOM     30  H3  UNL     1      25.176  15.817 159.022  1.00  0.00     0.217 HD
ENDBRANCH   7  29
BRANCH  14  31
HETATM   31  O5  UNL     1      19.712  15.695 156.693  1.00  0.00    -0.359 OA
ATOM     32  H5  UNL     1      19.426  16.135 155.902  1.00  0.00     0.217 HD
ENDBRANCH  14  31
BRANCH   5  33
HETATM   33  O2  UNL     1      25.420  17.252 156.257  1.00  0.00    -0.360 OA
ATOM     34  H2  UNL     1      25.782  16.685 156.928  1.00  0.00     0.217 HD
ENDBRANCH   5  33
BRANCH   3  35
HETATM   35  O1  UNL     1      22.231  17.363 152.784  1.00  0.00    -0.360 OA
ATOM     36  H1  UNL     1      21.603  16.856 152.283  1.00  0.00     0.217 HD
ENDBRANCH   3  35
TORSDOF 8
ENDMDL
MODEL 5
REMARK VINA RESULT: -8.469917469      3.376      7.897
REMARK  8 active torsions:
REMARK  status: ('A' for Active; 'I' for Inactive)
REMARK    1  A    between atoms: C3_3  and  O1_4 
REMARK    2  A    between atoms: C5_7  and  O2_8 
REMARK    3  A    between atoms: C7_11  and  O3_12 
REMARK    4  A    between atoms: C9_15  and  O4_16 
REMARK    5  A    between atoms: C10_18  and  C11_19 
REMARK    6  A    between atoms: C12_20  and  C13_21 
REMARK    7  A    between atoms: C15_26  and  N2_27 
REMARK    8  A    between atoms: C17_33  and  O5_34 
ROOT
HETATM    1  C1  UNL     1      19.205  15.253 157.382  1.00  0.00     0.052 C 
HETATM    2  C2  UNL     1      20.579  15.681 157.714  1.00  0.00    -0.015 A 
HETATM    3  C3  UNL     1      21.405  16.293 156.775  1.00  0.00     0.075 A 
HETATM    4  C4  UNL     1      22.705  16.683 157.137  1.00  0.00     0.074 A 
HETATM    5  C5  UNL     1      23.188  16.479 158.393  1.00  0.00     0.082 A 
HETATM    6  C6  UNL     1      22.397  15.875 159.349  1.00  0.00     0.045 A 
HETATM    7  C7  UNL     1      22.906  15.672 160.634  1.00  0.00     0.093 A 
HETATM    8  C8  UNL     1      22.084  15.058 161.588  1.00  0.00     0.047 A 
HETATM    9  C9  UNL     1      22.616  14.861 162.879  1.00  0.00     0.090 A 
HETATM   10  C10 UNL     1      21.775  14.243 163.821  1.00  0.00     0.000 A 
HETATM   11  C14 UNL     1      20.481  13.856 163.456  1.00  0.00     0.046 A 
HETATM   12  C15 UNL     1      19.993  14.055 162.209  1.00  0.00     0.062 A 
HETATM   13  C16 UNL     1      20.806  14.661 161.272  1.00  0.00     0.042 A 
HETATM   14  C17 UNL     1      20.339  14.886 159.972  1.00  0.00     0.091 A 
HETATM   15  C18 UNL     1      21.134  15.499 158.989  1.00  0.00     0.022 A 
ENDROOT
BRANCH  10  16
HETATM   16  C11 UNL     1      22.232  14.001 165.165  1.00  0.00     0.015 C 
HETATM   17  C12 UNL     1      21.644  14.019 166.314  1.00  0.00     0.017 C 
BRANCH  17  18
HETATM   18  C13 UNL     1      22.397  13.719 167.561  1.00  0.00     0.080 C 
HETATM   19  N1  UNL     1      23.669  13.740 167.610  1.00  0.00    -0.408 N 
ATOM     20  H12 UNL     1      24.175  13.972 166.755  1.00  0.00     0.155 HD
ATOM     21  H11 UNL     1      24.186  13.534 168.466  1.00  0.00     0.155 HD
ENDBRANCH  17  18
ENDBRANCH  10  16
BRANCH   9  22
HETATM   22  O4  UNL     1      23.836  15.211 163.272  1.00  0.00    -0.359 OA
ATOM     23  H4  UNL     1      24.052  15.983 163.781  1.00  0.00     0.217 HD
ENDBRANCH   9  22
BRANCH  12  24
HETATM   24  N2  UNL     1      18.675  13.644 161.893  1.00  0.00    -0.306 N 
HETATM   25  N3  UNL     1      17.629  14.240 162.234  1.00  0.00    -0.345 N 
ATOM     26  H32 UNL     1      17.753  15.090 162.785  1.00  0.00     0.176 HD
ATOM     27  H31 UNL     1      16.680  13.944 162.006  1.00  0.00     0.176 HD
ATOM     28  H2  UNL     1      18.569  12.792 161.341  1.00  0.00     0.186 HD
ENDBRANCH  12  24
BRANCH   7  29
HETATM   29  O3  UNL     1      24.126  16.043 160.960  1.00  0.00    -0.359 OA
ATOM     30  H3  UNL     1      24.434  16.005 161.857  1.00  0.00     0.217 HD
ENDBRANCH   7  29
BRANCH  14  31
HETATM   31  O5  UNL     1      19.131  14.525 159.628  1.00  0.00    -0.359 OA
ATOM     32  H5  UNL     1      18.518  14.208 160.280  1.00  0.00     0.217 HD
ENDBRANCH  14  31
BRANCH   5  33
HETATM   33  O2  UNL     1      24.480  16.898 158.652  1.00  0.00    -0.360 OA
ATOM     34  H2  UNL     1      24.639  17.835 158.670  1.00  0.00     0.217 HD
ENDBRANCH   5  33
BRANCH   3  35
HETATM   35  O1  UNL     1      20.984  16.525 155.507  1.00  0.00    -0.360 OA
ATOM     36  H1  UNL     1      20.695  17.386 155.231  1.00  0.00     0.217 HD
ENDBRANCH   3  35
TORSDOF 8
ENDMDL
