MODEL 1
REMARK VINA RESULT: -8.565836720      0.000      0.000
REMARK  6 active torsions:
REMARK  status: ('A' for Active; 'I' for Inactive)
REMARK    1  A    between atoms: C3_3  and  N1_4 
REMARK    2  A    between atoms: C4_6  and  C5_7 
REMARK    3  A    between atoms: C7_10  and  O1_11 
REMARK    4  A    between atoms: C10_16  and  O2_17 
REMARK    5  A    between atoms: C12_20  and  O3_21 
REMARK    6  A    between atoms: C16_27  and  O4_28 
ROOT
HETATM    1  C5  UNL     1      20.348  15.964 157.160  1.00  0.00     0.055 A 
HETATM    2  S1  UNL     1      19.291  15.171 158.202  1.00  0.00    -0.082 SA
HETATM    3  C6  UNL     1      20.315  15.010 159.572  1.00  0.00     0.054 A 
HETATM    4  C7  UNL     1      20.131  14.446 160.843  1.00  0.00     0.097 A 
HETATM    5  C8  UNL     1      21.161  14.467 161.754  1.00  0.00     0.040 A 
HETATM    6  C9  UNL     1      20.993  13.917 163.006  1.00  0.00     0.093 A 
HETATM    7  N2  UNL     1      19.763  13.318 163.389  1.00  0.00    -0.098 NA
HETATM    8  C10 UNL     1      22.017  13.926 163.943  1.00  0.00     0.093 A 
HETATM    9  C11 UNL     1      23.191  14.517 163.530  1.00  0.00     0.076 A 
HETATM   10  C12 UNL     1      23.373  15.068 162.289  1.00  0.00     0.081 A 
HETATM   11  C13 UNL     1      22.338  15.054 161.356  1.00  0.00     0.037 A 
HETATM   12  C14 UNL     1      22.513  15.604 160.109  1.00  0.00     0.074 A 
HETATM   13  N3  UNL     1      23.801  16.170 159.868  1.00  0.00    -0.100 NA
HETATM   14  C15 UNL     1      21.480  15.599 159.155  1.00  0.00     0.043 A 
HETATM   15  C16 UNL     1      21.505  16.098 157.899  1.00  0.00     0.097 A 
ENDROOT
BRANCH   1  16
HETATM   16  C4  UNL     1      20.061  16.397 155.784  1.00  0.00     0.109 C 
HETATM   17  N1  UNL     1      20.933  16.301 154.867  1.00  0.00    -0.374 N 
ATOM     18  H1  UNL     1      21.853  15.917 155.084  1.00  0.00     0.164 HD
BRANCH  17  19
HETATM   19  C3  UNL     1      20.641  16.722 153.541  1.00  0.00     0.083 C 
HETATM   20  C2  UNL     1      21.517  17.386 152.816  1.00  0.00    -0.014 C 
HETATM   21  C1  UNL     1      21.178  17.809 151.438  1.00  0.00     0.037 C 
ENDBRANCH  17  19
ENDBRANCH   1  16
BRANCH  15  22
HETATM   22  O4  UNL     1      22.576  16.746 157.246  1.00  0.00    -0.358 OA
ATOM     23  H4  UNL     1      22.435  17.660 157.029  1.00  0.00     0.217 HD
ENDBRANCH  15  22
BRANCH   4  24
HETATM   24  O1  UNL     1      18.914  13.890 161.127  1.00  0.00    -0.358 OA
ATOM     25  H1  UNL     1      18.782  12.975 160.907  1.00  0.00     0.217 HD
ENDBRANCH   4  24
BRANCH  10  26
HETATM   26  O3  UNL     1      24.585  15.645 161.946  1.00  0.00    -0.360 OA
ATOM     27  H3  UNL     1      24.967  16.323 162.490  1.00  0.00     0.217 HD
ENDBRANCH  10  26
BRANCH   8  28
HETATM   28  O2  UNL     1      21.904  13.389 165.214  1.00  0.00    -0.359 OA
ATOM     29  H2  UNL     1      22.033  13.888 166.013  1.00  0.00     0.217 HD
ENDBRANCH   8  28
TORSDOF 6
ENDMDL
MODEL 2
REMARK VINA RESULT: -8.249897955      1.660      2.880
REMARK  6 active torsions:
REMARK  status: ('A' for Active; 'I' for Inactive)
REMARK    1  A    between atoms: C3_3  and  N1_4 
REMARK    2  A    between atoms: C4_6  and  C5_7 
REMARK    3  A    between atoms: C7_10  and  O1_11 
REMARK    4  A    between atoms: C10_16  and  O2_17 
REMARK    5  A    between atoms: C12_20  and  O3_21 
REMARK    6  A    between atoms: C16_27  and  O4_28 
ROOT
HETATM    1  C5  UNL     1      21.361  16.095 156.801  1.00  0.00     0.055 A 
HETATM    2  S1  UNL     1      22.775  16.275 157.697  1.00  0.00    -0.082 SA
HETATM    3  C6  UNL     1      22.216  15.704 159.218  1.00  0.00     0.054 A 
HETATM    4  C7  UNL     1      22.834  15.554 160.468  1.00  0.00     0.097 A 
HETATM    5  C8  UNL     1      22.113  15.057 161.530  1.00  0.00     0.040 A 
HETATM    6  C9  UNL     1      22.708  14.905 162.763  1.00  0.00     0.093 A 
HETATM    7  N2  UNL     1      24.069  15.252 162.973  1.00  0.00    -0.098 NA
HETATM    8  C10 UNL     1      22.002  14.406 163.849  1.00  0.00     0.093 A 
HETATM    9  C11 UNL     1      20.686  14.082 163.601  1.00  0.00     0.076 A 
HETATM   10  C12 UNL     1      20.081  14.228 162.380  1.00  0.00     0.081 A 
HETATM   11  C13 UNL     1      20.799  14.730 161.296  1.00  0.00     0.037 A 
HETATM   12  C14 UNL     1      20.199  14.879 160.069  1.00  0.00     0.074 A 
HETATM   13  N3  UNL     1      18.828  14.489 160.010  1.00  0.00    -0.100 NA
HETATM   14  C15 UNL     1      20.908  15.383 158.964  1.00  0.00     0.043 A 
HETATM   15  C16 UNL     1      20.455  15.585 157.706  1.00  0.00     0.097 A 
ENDROOT
BRANCH   1  16
HETATM   16  C4  UNL     1      21.179  16.420 155.378  1.00  0.00     0.109 C 
HETATM   17  N1  UNL     1      20.093  16.914 154.947  1.00  0.00    -0.374 N 
ATOM     18  H1  UNL     1      19.327  17.090 155.597  1.00  0.00     0.164 HD
BRANCH  17  19
HETATM   19  C3  UNL     1      19.931  17.224 153.570  1.00  0.00     0.083 C 
HETATM   20  C2  UNL     1      20.957  17.274 152.746  1.00  0.00    -0.014 C 
HETATM   21  C1  UNL     1      20.750  17.600 151.316  1.00  0.00     0.037 C 
ENDBRANCH  17  19
ENDBRANCH   1  16
BRANCH  15  22
HETATM   22  O4  UNL     1      19.160  15.335 157.202  1.00  0.00    -0.358 OA
ATOM     23  H4  UNL     1      19.077  14.577 156.636  1.00  0.00     0.217 HD
ENDBRANCH  15  22
BRANCH   4  24
HETATM   24  O1  UNL     1      24.148  15.913 160.581  1.00  0.00    -0.358 OA
ATOM     25  H1  UNL     1      24.433  16.309 161.397  1.00  0.00     0.217 HD
ENDBRANCH   4  24
BRANCH  10  26
HETATM   26  O3  UNL     1      18.751  13.880 162.208  1.00  0.00    -0.360 OA
ATOM     27  H3  UNL     1      18.513  12.993 161.965  1.00  0.00     0.217 HD
ENDBRANCH  10  26
BRANCH   8  28
HETATM   28  O2  UNL     1      22.548  14.231 165.110  1.00  0.00    -0.359 OA
ATOM     29  H2  UNL     1      22.832  14.947 165.666  1.00  0.00     0.217 HD
ENDBRANCH   8  28
TORSDOF 6
ENDMDL
MODEL 3
REMARK VINA RESULT: -8.190011775      2.380      7.603
REMARK  6 active torsions:
REMARK  status: ('A' for Active; 'I' for Inactive)
REMARK    1  A    between atoms: C3_3  and  N1_4 
REMARK    2  A    between atoms: C4_6  and  C5_7 
REMARK    3  A    between atoms: C7_10  and  O1_11 
REMARK    4  A    between atoms: C10_16  and  O2_17 
REMARK    5  A    between atoms: C12_20  and  O3_21 
REMARK    6  A    between atoms: C16_27  and  O4_28 
ROOT
HETATM    1  C5  UNL     1      22.534  14.500 162.767  1.00  0.00     0.055 A 
HETATM    2  S1  UNL     1      20.953  14.241 162.254  1.00  0.00    -0.082 SA
HETATM    3  C6  UNL     1      21.065  14.887 160.666  1.00  0.00     0.054 A 
HETATM    4  C7  UNL     1      20.138  15.023 159.621  1.00  0.00     0.097 A 
HETATM    5  C8  UNL     1      20.530  15.594 158.433  1.00  0.00     0.040 A 
HETATM    6  C9  UNL     1      19.630  15.734 157.399  1.00  0.00     0.093 A 
HETATM    7  N2  UNL     1      18.285  15.296 157.528  1.00  0.00    -0.098 NA
HETATM    8  C10 UNL     1      20.001  16.307 156.191  1.00  0.00     0.093 A 
HETATM    9  C11 UNL     1      21.314  16.717 156.109  1.00  0.00     0.076 A 
HETATM   10  C12 UNL     1      22.220  16.585 157.128  1.00  0.00     0.081 A 
HETATM   11  C13 UNL     1      21.837  16.008 158.337  1.00  0.00     0.037 A 
HETATM   12  C14 UNL     1      22.740  15.872 159.364  1.00  0.00     0.074 A 
HETATM   13  N3  UNL     1      24.053  16.358 159.088  1.00  0.00    -0.100 NA
HETATM   14  C15 UNL     1      22.372  15.292 160.591  1.00  0.00     0.043 A 
HETATM   15  C16 UNL     1      23.143  15.094 161.683  1.00  0.00     0.097 A 
ENDROOT
BRANCH   1  16
HETATM   16  C4  UNL     1      23.096  14.154 164.083  1.00  0.00     0.109 C 
HETATM   17  N1  UNL     1      24.214  13.563 164.188  1.00  0.00    -0.374 N 
ATOM     18  H1  UNL     1      24.737  13.321 163.347  1.00  0.00     0.164 HD
BRANCH  17  19
HETATM   19  C3  UNL     1      24.744  13.236 165.465  1.00  0.00     0.083 C 
HETATM   20  C2  UNL     1      25.856  12.543 165.597  1.00  0.00    -0.014 C 
HETATM   21  C1  UNL     1      26.378  12.221 166.945  1.00  0.00     0.037 C 
ENDBRANCH  17  19
ENDBRANCH   1  16
BRANCH  15  22
HETATM   22  O4  UNL     1      24.507  15.423 161.850  1.00  0.00    -0.358 OA
ATOM     23  H4  UNL     1      25.096  15.089 161.184  1.00  0.00     0.217 HD
ENDBRANCH  15  22
BRANCH   4  24
HETATM   24  O1  UNL     1      18.864  14.574 159.833  1.00  0.00    -0.358 OA
ATOM     25  H1  UNL     1      18.600  14.391 160.727  1.00  0.00     0.217 HD
ENDBRANCH   4  24
BRANCH  10  26
HETATM   26  O3  UNL     1      23.525  17.022 156.970  1.00  0.00    -0.360 OA
ATOM     27  H3  UNL     1      23.752  17.617 156.265  1.00  0.00     0.217 HD
ENDBRANCH  10  26
BRANCH   8  28
HETATM   28  O2  UNL     1      19.139  16.472 155.118  1.00  0.00    -0.359 OA
ATOM     29  H2  UNL     1      19.341  16.198 154.231  1.00  0.00     0.217 HD
ENDBRANCH   8  28
TORSDOF 6
ENDMDL
MODEL 4
REMARK VINA RESULT: -8.136570040      2.902      6.868
REMARK  6 active torsions:
REMARK  status: ('A' for Active; 'I' for Inactive)
REMARK    1  A    between atoms: C3_3  and  N1_4 
REMARK    2  A    between atoms: C4_6  and  C5_7 
REMARK    3  A    between atoms: C7_10  and  O1_11 
REMARK    4  A    between atoms: C10_16  and  O2_17 
REMARK    5  A    between atoms: C12_20  and  O3_21 
REMARK    6  A    between atoms: C16_27  and  O4_28 
ROOT
HETATM    1  C5  UNL     1      18.486  14.111 159.471  1.00  0.00     0.055 A 
HETATM    2  S1  UNL     1      18.585  14.364 157.810  1.00  0.00    -0.082 SA
HETATM    3  C6  UNL     1      20.138  15.095 157.731  1.00  0.00     0.054 A 
HETATM    4  C7  UNL     1      20.910  15.588 156.668  1.00  0.00     0.097 A 
HETATM    5  C8  UNL     1      22.148  16.131 156.919  1.00  0.00     0.040 A 
HETATM    6  C9  UNL     1      22.916  16.618 155.885  1.00  0.00     0.093 A 
HETATM    7  N2  UNL     1      22.458  16.573 154.541  1.00  0.00    -0.098 NA
HETATM    8  C10 UNL     1      24.169  17.171 156.113  1.00  0.00     0.093 A 
HETATM    9  C11 UNL     1      24.574  17.195 157.429  1.00  0.00     0.076 A 
HETATM   10  C12 UNL     1      23.821  16.715 158.468  1.00  0.00     0.081 A 
HETATM   11  C13 UNL     1      22.565  16.161 158.229  1.00  0.00     0.037 A 
HETATM   12  C14 UNL     1      21.805  15.678 159.265  1.00  0.00     0.074 A 
HETATM   13  N3  UNL     1      22.396  15.791 160.559  1.00  0.00    -0.100 NA
HETATM   14  C15 UNL     1      20.535  15.116 159.042  1.00  0.00     0.043 A 
HETATM   15  C16 UNL     1      19.679  14.604 159.955  1.00  0.00     0.097 A 
ENDROOT
BRANCH   1  16
HETATM   16  C4  UNL     1      17.363  13.498 160.198  1.00  0.00     0.109 C 
HETATM   17  N1  UNL     1      16.922  14.001 161.275  1.00  0.00    -0.374 N 
ATOM     18  H1  UNL     1      17.350  14.848 161.649  1.00  0.00     0.164 HD
BRANCH  17  19
HETATM   19  C3  UNL     1      15.836  13.399 161.966  1.00  0.00     0.083 C 
HETATM   20  C2  UNL     1      14.610  13.420 161.485  1.00  0.00    -0.014 C 
HETATM   21  C1  UNL     1      13.504  12.781 162.234  1.00  0.00     0.037 C 
ENDBRANCH  17  19
ENDBRANCH   1  16
BRANCH  15  22
HETATM   22  O4  UNL     1      19.858  14.512 161.353  1.00  0.00    -0.358 OA
ATOM     23  H4  UNL     1      20.026  13.640 161.690  1.00  0.00     0.217 HD
ENDBRANCH  15  22
BRANCH   4  24
HETATM   24  O1  UNL     1      20.390  15.504 155.406  1.00  0.00    -0.358 OA
ATOM     25  H1  UNL     1      20.975  15.656 154.673  1.00  0.00     0.217 HD
ENDBRANCH   4  24
BRANCH  10  26
HETATM   26  O3  UNL     1      24.298  16.773 159.768  1.00  0.00    -0.360 OA
ATOM     27  H3  UNL     1      24.291  16.000 160.319  1.00  0.00     0.217 HD
ENDBRANCH  10  26
BRANCH   8  28
HETATM   28  O2  UNL     1      24.984  17.674 155.112  1.00  0.00    -0.359 OA
ATOM     29  H2  UNL     1      25.806  18.122 155.275  1.00  0.00     0.217 HD
ENDBRANCH   8  28
TORSDOF 6
ENDMDL
MODEL 5
REMARK VINA RESULT: -7.890155719      2.868      7.529
REMARK  6 active torsions:
REMARK  status: ('A' for Active; 'I' for Inactive)
REMARK    1  A    between atoms: C3_3  and  N1_4 
REMARK    2  A    between atoms: C4_6  and  C5_7 
REMARK    3  A    between atoms: C7_10  and  O1_11 
REMARK    4  A    between atoms: C10_16  and  O2_17 
REMARK    5  A    between atoms: C12_20  and  O3_21 
REMARK    6  A    between atoms: C16_27  and  O4_28 
ROOT
HETATM    1  C5  UNL     1      19.489  14.600 161.025  1.00  0.00     0.055 A 
HETATM    2  S1  UNL     1      21.128  14.948 161.182  1.00  0.00    -0.082 SA
HETATM    3  C6  UNL     1      21.488  15.345 159.550  1.00  0.00     0.054 A 
HETATM    4  C7  UNL     1      22.666  15.742 158.900  1.00  0.00     0.097 A 
HETATM    5  C8  UNL     1      22.646  15.998 157.548  1.00  0.00     0.040 A 
HETATM    6  C9  UNL     1      23.796  16.388 156.898  1.00  0.00     0.093 A 
HETATM    7  N2  UNL     1      25.024  16.537 157.596  1.00  0.00    -0.098 NA
HETATM    8  C10 UNL     1      23.802  16.652 155.535  1.00  0.00     0.093 A 
HETATM    9  C11 UNL     1      22.590  16.496 154.898  1.00  0.00     0.076 A 
HETATM   10  C12 UNL     1      21.439  16.108 155.531  1.00  0.00     0.081 A 
HETATM   11  C13 UNL     1      21.444  15.846 156.900  1.00  0.00     0.037 A 
HETATM   12  C14 UNL     1      20.294  15.457 157.542  1.00  0.00     0.074 A 
HETATM   13  N3  UNL     1      19.139  15.351 156.711  1.00  0.00    -0.100 NA
HETATM   14  C15 UNL     1      20.281  15.188 158.922  1.00  0.00     0.043 A 
HETATM   15  C16 UNL     1      19.234  14.799 159.684  1.00  0.00     0.097 A 
ENDROOT
BRANCH   1  16
HETATM   16  C4  UNL     1      18.575  14.183 162.099  1.00  0.00     0.109 C 
HETATM   17  N1  UNL     1      17.507  14.823 162.342  1.00  0.00    -0.374 N 
ATOM     18  H1  UNL     1      17.273  15.644 161.785  1.00  0.00     0.164 HD
BRANCH  17  19
HETATM   19  C3  UNL     1      16.633  14.407 163.383  1.00  0.00     0.083 C 
HETATM   20  C2  UNL     1      15.519  15.055 163.653  1.00  0.00    -0.014 C 
HETATM   21  C1  UNL     1      14.633  14.592 164.746  1.00  0.00     0.037 C 
ENDBRANCH  17  19
ENDBRANCH   1  16
BRANCH  15  22
HETATM   22  O4  UNL     1      17.902  14.571 159.274  1.00  0.00    -0.358 OA
ATOM     23  H4  UNL     1      17.783  14.368 158.354  1.00  0.00     0.217 HD
ENDBRANCH  15  22
BRANCH   4  24
HETATM   24  O1  UNL     1      23.803  15.859 159.650  1.00  0.00    -0.358 OA
ATOM     25  H1  UNL     1      24.629  15.970 159.192  1.00  0.00     0.217 HD
ENDBRANCH   4  24
BRANCH  10  26
HETATM   26  O3  UNL     1      20.257  15.973 154.821  1.00  0.00    -0.360 OA
ATOM     27  H3  UNL     1      19.794  15.144 154.810  1.00  0.00     0.217 HD
ENDBRANCH  10  26
BRANCH   8  28
HETATM   28  O2  UNL     1      24.927  17.048 154.831  1.00  0.00    -0.359 OA
ATOM     29  H2  UNL     1      25.657  17.514 155.220  1.00  0.00     0.217 HD
ENDBRANCH   8  28
TORSDOF 6
ENDMDL
