MODEL 1
REMARK VINA RESULT: -9.657149919      0.000      0.000
REMARK  10 active torsions:
REMARK  status: ('A' for Active; 'I' for Inactive)
REMARK    1  A    between atoms: C2_2  and  C4_4 
REMARK    2  A    between atoms: C5_5  and  C6_6 
REMARK    3  A    between atoms: C7_7  and  O1_8 
REMARK    4  A    between atoms: C8_10  and  O2_11 
REMARK    5  A    between atoms: C11_15  and  O3_16 
REMARK    6  A    between atoms: C12_18  and  N1_19 
REMARK    7  A    between atoms: N1_19  and  O4_21 
REMARK    8  A    between atoms: C13_25  and  O5_26 
REMARK    9  A    between atoms: C15_29  and  O6_30 
REMARK   10  A    between atoms: C17_33  and  O7_34 
ROOT
HETATM    1  C6  UNL     1      21.338  16.355 157.064  1.00  0.00     0.034 A 
HETATM    2  C7  UNL     1      22.580  16.637 157.574  1.00  0.00     0.112 A 
HETATM    3  C8  UNL     1      22.965  16.295 158.879  1.00  0.00     0.112 A 
HETATM    4  C9  UNL     1      22.043  15.649 159.661  1.00  0.00     0.030 A 
HETATM    5  C10 UNL     1      22.133  15.197 160.962  1.00  0.00     0.032 A 
HETATM    6  C11 UNL     1      23.129  15.219 161.915  1.00  0.00     0.124 A 
HETATM    7  C12 UNL     1      22.828  14.642 163.148  1.00  0.00     0.161 A 
HETATM    8  N2  UNL     1      21.649  14.085 163.436  1.00  0.00    -0.319 N 
ATOM      9  H2  UNL     1      21.510  13.685 164.364  1.00  0.00     0.169 HD
HETATM   10  C13 UNL     1      20.640  14.032 162.551  1.00  0.00     0.155 A 
HETATM   11  C14 UNL     1      20.852  14.581 161.301  1.00  0.00     0.063 A 
HETATM   12  C15 UNL     1      20.025  14.693 160.161  1.00  0.00     0.095 A 
HETATM   13  C16 UNL     1      20.771  15.340 159.194  1.00  0.00     0.046 A 
HETATM   14  C17 UNL     1      20.427  15.689 157.913  1.00  0.00     0.092 A 
ENDROOT
BRANCH   1  15
HETATM   15  C5  UNL     1      20.900  16.687 155.730  1.00  0.00     0.013 C 
HETATM   16  C4  UNL     1      21.241  16.202 154.580  1.00  0.00    -0.022 C 
BRANCH  16  17
HETATM   17  C2  UNL     1      20.609  16.750 153.314  1.00  0.00    -0.000 C 
HETATM   18  C1  UNL     1      21.609  17.597 152.555  1.00  0.00     0.013 C 
HETATM   19  C3  UNL     1      19.446  17.648 153.666  1.00  0.00     0.013 C 
ENDBRANCH  16  17
ENDBRANCH   1  15
BRANCH   2  20
HETATM   20  O1  UNL     1      23.463  17.285 156.742  1.00  0.00    -0.357 OA
ATOM     21  H1  UNL     1      23.421  18.234 156.725  1.00  0.00     0.217 HD
ENDBRANCH   2  20
BRANCH  14  22
HETATM   22  O7  UNL     1      19.205  15.412 157.411  1.00  0.00    -0.359 OA
ATOM     23  H7  UNL     1      18.959  14.496 157.349  1.00  0.00     0.217 HD
ENDBRANCH  14  22
BRANCH   3  24
HETATM   24  O2  UNL     1      24.231  16.637 159.252  1.00  0.00    -0.357 OA
ATOM     25  H2  UNL     1      24.549  17.480 158.952  1.00  0.00     0.217 HD
ENDBRANCH   3  24
BRANCH  12  26
HETATM   26  O6  UNL     1      18.766  14.197 160.204  1.00  0.00    -0.359 OA
ATOM     27  H6  UNL     1      18.032  14.776 160.035  1.00  0.00     0.217 HD
ENDBRANCH  12  26
BRANCH   6  28
HETATM   28  O3  UNL     1      24.371  15.774 161.699  1.00  0.00    -0.356 OA
ATOM     29  H3  UNL     1      24.961  15.483 161.013  1.00  0.00     0.218 HD
ENDBRANCH   6  28
BRANCH  10  30
HETATM   30  O5  UNL     1      19.418  13.450 162.861  1.00  0.00    -0.345 OA
ATOM     31  H5  UNL     1      18.611  13.712 162.434  1.00  0.00     0.219 HD
ENDBRANCH  10  30
BRANCH   7  32
HETATM   32  N1  UNL     1      23.846  14.647 164.172  1.00  0.00    -0.251 N 
ATOM     33  H1  UNL     1      24.752  15.073 163.978  1.00  0.00     0.196 HD
BRANCH  32  34
HETATM   34  O4  UNL     1      23.634  14.138 165.289  1.00  0.00    -0.288 OA
ATOM     35  H4  UNL     1      24.347  13.972 165.894  1.00  0.00     0.244 HD
ENDBRANCH  32  34
ENDBRANCH   7  32
TORSDOF 10
ENDMDL
MODEL 2
REMARK VINA RESULT: -9.564210856      1.133      3.249
REMARK  10 active torsions:
REMARK  status: ('A' for Active; 'I' for Inactive)
REMARK    1  A    between atoms: C2_2  and  C4_4 
REMARK    2  A    between atoms: C5_5  and  C6_6 
REMARK    3  A    between atoms: C7_7  and  O1_8 
REMARK    4  A    between atoms: C8_10  and  O2_11 
REMARK    5  A    between atoms: C11_15  and  O3_16 
REMARK    6  A    between atoms: C12_18  and  N1_19 
REMARK    7  A    between atoms: N1_19  and  O4_21 
REMARK    8  A    between atoms: C13_25  and  O5_26 
REMARK    9  A    between atoms: C15_29  and  O6_30 
REMARK   10  A    between atoms: C17_33  and  O7_34 
ROOT
HETATM    1  C6  UNL     1      20.295  16.183 156.826  1.00  0.00     0.034 A 
HETATM    2  C7  UNL     1      19.279  15.606 157.546  1.00  0.00     0.112 A 
HETATM    3  C8  UNL     1      19.443  15.138 158.858  1.00  0.00     0.112 A 
HETATM    4  C9  UNL     1      20.682  15.275 159.427  1.00  0.00     0.030 A 
HETATM    5  C10 UNL     1      21.136  14.915 160.680  1.00  0.00     0.032 A 
HETATM    6  C11 UNL     1      20.549  14.315 161.774  1.00  0.00     0.124 A 
HETATM    7  C12 UNL     1      21.361  14.114 162.889  1.00  0.00     0.161 A 
HETATM    8  N2  UNL     1      22.648  14.467 162.939  1.00  0.00    -0.319 N 
ATOM      9  H2  UNL     1      23.173  14.284 163.794  1.00  0.00     0.169 HD
HETATM   10  C13 UNL     1      23.278  15.054 161.908  1.00  0.00     0.155 A 
HETATM   11  C14 UNL     1      22.545  15.292 160.760  1.00  0.00     0.063 A 
HETATM   12  C15 UNL     1      22.887  15.878 159.521  1.00  0.00     0.095 A 
HETATM   13  C16 UNL     1      21.746  15.851 158.743  1.00  0.00     0.046 A 
HETATM   14  C17 UNL     1      21.551  16.298 157.461  1.00  0.00     0.092 A 
ENDROOT
BRANCH   1  15
HETATM   15  C5  UNL     1      20.172  16.677 155.476  1.00  0.00     0.013 C 
HETATM   16  C4  UNL     1      20.729  16.285 154.376  1.00  0.00    -0.022 C 
BRANCH  16  17
HETATM   17  C2  UNL     1      20.413  17.001 153.076  1.00  0.00    -0.000 C 
HETATM   18  C1  UNL     1      21.649  17.700 152.550  1.00  0.00     0.013 C 
HETATM   19  C3  UNL     1      19.370  18.068 153.315  1.00  0.00     0.013 C 
ENDBRANCH  16  17
ENDBRANCH   1  15
BRANCH   2  20
HETATM   20  O1  UNL     1      18.058  15.496 156.922  1.00  0.00    -0.357 OA
ATOM     21  H1  UNL     1      17.930  16.007 156.132  1.00  0.00     0.217 HD
ENDBRANCH   2  20
BRANCH  14  22
HETATM   22  O7  UNL     1      22.550  16.865 156.753  1.00  0.00    -0.359 OA
ATOM     23  H7  UNL     1      23.326  17.130 157.233  1.00  0.00     0.217 HD
ENDBRANCH  14  22
BRANCH   3  24
HETATM   24  O2  UNL     1      18.347  14.588 159.452  1.00  0.00    -0.357 OA
ATOM     25  H2  UNL     1      17.721  15.191 159.833  1.00  0.00     0.217 HD
ENDBRANCH   3  24
BRANCH  12  26
HETATM   26  O6  UNL     1      24.151  16.322 159.324  1.00  0.00    -0.359 OA
ATOM     27  H6  UNL     1      24.375  16.736 158.499  1.00  0.00     0.217 HD
ENDBRANCH  12  26
BRANCH   6  28
HETATM   28  O3  UNL     1      19.229  13.921 161.804  1.00  0.00    -0.356 OA
ATOM     29  H3  UNL     1      18.509  14.489 161.559  1.00  0.00     0.218 HD
ENDBRANCH   6  28
BRANCH  10  30
HETATM   30  O5  UNL     1      24.616  15.417 161.972  1.00  0.00    -0.345 OA
ATOM     31  H5  UNL     1      25.016  15.987 161.325  1.00  0.00     0.219 HD
ENDBRANCH  10  30
BRANCH   7  32
HETATM   32  N1  UNL     1      20.782  13.489 164.054  1.00  0.00    -0.251 N 
ATOM     33  H1  UNL     1      21.136  12.585 164.368  1.00  0.00     0.196 HD
BRANCH  32  34
HETATM   34  O4  UNL     1      19.856  14.036 164.683  1.00  0.00    -0.288 OA
ATOM     35  H4  UNL     1      19.537  13.671 165.499  1.00  0.00     0.244 HD
ENDBRANCH  32  34
ENDBRANCH   7  32
TORSDOF 10
ENDMDL
MODEL 3
REMARK VINA RESULT: -9.051935217      3.309      7.872
REMARK  10 active torsions:
REMARK  status: ('A' for Active; 'I' for Inactive)
REMARK    1  A    between atoms: C2_2  and  C4_4 
REMARK    2  A    between atoms: C5_5  and  C6_6 
REMARK    3  A    between atoms: C7_7  and  O1_8 
REMARK    4  A    between atoms: C8_10  and  O2_11 
REMARK    5  A    between atoms: C11_15  and  O3_16 
REMARK    6  A    between atoms: C12_18  and  N1_19 
REMARK    7  A    between atoms: N1_19  and  O4_21 
REMARK    8  A    between atoms: C13_25  and  O5_26 
REMARK    9  A    between atoms: C15_29  and  O6_30 
REMARK   10  A    between atoms: C17_33  and  O7_34 
ROOT
HETATM    1  C6  UNL     1      21.581  15.213 160.402  1.00  0.00     0.034 A 
HETATM    2  C7  UNL     1      20.403  15.142 159.702  1.00  0.00     0.112 A 
HETATM    3  C8  UNL     1      20.310  15.434 158.333  1.00  0.00     0.112 A 
HETATM    4  C9  UNL     1      21.461  15.805 157.686  1.00  0.00     0.030 A 
HETATM    5  C10 UNL     1      21.675  16.146 156.366  1.00  0.00     0.032 A 
HETATM    6  C11 UNL     1      20.859  16.238 155.258  1.00  0.00     0.124 A 
HETATM    7  C12 UNL     1      21.467  16.626 154.065  1.00  0.00     0.161 A 
HETATM    8  N2  UNL     1      22.767  16.906 153.954  1.00  0.00    -0.319 N 
ATOM      9  H2  UNL     1      23.133  17.184 153.043  1.00  0.00     0.169 HD
HETATM   10  C13 UNL     1      23.614  16.835 154.995  1.00  0.00     0.155 A 
HETATM   11  C14 UNL     1      23.094  16.456 156.219  1.00  0.00     0.063 A 
HETATM   12  C15 UNL     1      23.689  16.285 157.489  1.00  0.00     0.095 A 
HETATM   13  C16 UNL     1      22.680  15.894 158.348  1.00  0.00     0.046 A 
HETATM   14  C17 UNL     1      22.735  15.601 159.687  1.00  0.00     0.092 A 
ENDROOT
BRANCH   1  15
HETATM   15  C5  UNL     1      21.723  14.923 161.808  1.00  0.00     0.013 C 
HETATM   16  C4  UNL     1      21.840  13.795 162.432  1.00  0.00    -0.022 C 
BRANCH  16  17
HETATM   17  C2  UNL     1      21.976  13.783 163.944  1.00  0.00    -0.000 C 
HETATM   18  C1  UNL     1      21.101  14.856 164.557  1.00  0.00     0.013 C 
HETATM   19  C3  UNL     1      23.401  14.097 164.336  1.00  0.00     0.013 C 
ENDBRANCH  16  17
ENDBRANCH   1  15
BRANCH   2  20
HETATM   20  O1  UNL     1      19.282  14.764 160.404  1.00  0.00    -0.357 OA
ATOM     21  H1  UNL     1      18.522  15.329 160.338  1.00  0.00     0.217 HD
ENDBRANCH   2  20
BRANCH  14  22
HETATM   22  O7  UNL     1      23.894  15.672 160.375  1.00  0.00    -0.359 OA
ATOM     23  H7  UNL     1      24.147  14.908 160.879  1.00  0.00     0.217 HD
ENDBRANCH  14  22
BRANCH   3  24
HETATM   24  O2  UNL     1      19.075  15.321 157.766  1.00  0.00    -0.357 OA
ATOM     25  H2  UNL     1      18.553  14.573 158.030  1.00  0.00     0.217 HD
ENDBRANCH   3  24
BRANCH  12  26
HETATM   26  O6  UNL     1      25.016  16.511 157.636  1.00  0.00    -0.359 OA
ATOM     27  H6  UNL     1      25.568  16.557 156.864  1.00  0.00     0.217 HD
ENDBRANCH  12  26
BRANCH   6  28
HETATM   28  O3  UNL     1      19.509  15.967 155.287  1.00  0.00    -0.356 OA
ATOM     29  H3  UNL     1      18.843  16.607 155.065  1.00  0.00     0.218 HD
ENDBRANCH   6  28
BRANCH  10  30
HETATM   30  O5  UNL     1      24.965  17.128 154.868  1.00  0.00    -0.345 OA
ATOM     31  H5  UNL     1      25.380  17.819 155.370  1.00  0.00     0.219 HD
ENDBRANCH  10  30
BRANCH   7  32
HETATM   32  N1  UNL     1      20.645  16.734 152.882  1.00  0.00    -0.251 N 
ATOM     33  H1  UNL     1      20.990  16.364 151.996  1.00  0.00     0.196 HD
BRANCH  32  34
HETATM   34  O4  UNL     1      19.522  17.272 152.927  1.00  0.00    -0.288 OA
ATOM     35  H4  UNL     1      18.898  17.044 153.605  1.00  0.00     0.244 HD
ENDBRANCH  32  34
ENDBRANCH   7  32
TORSDOF 10
ENDMDL
MODEL 4
REMARK VINA RESULT: -8.754277230      3.411      6.667
REMARK  10 active torsions:
REMARK  status: ('A' for Active; 'I' for Inactive)
REMARK    1  A    between atoms: C2_2  and  C4_4 
REMARK    2  A    between atoms: C5_5  and  C6_6 
REMARK    3  A    between atoms: C7_7  and  O1_8 
REMARK    4  A    between atoms: C8_10  and  O2_11 
REMARK    5  A    between atoms: C11_15  and  O3_16 
REMARK    6  A    between atoms: C12_18  and  N1_19 
REMARK    7  A    between atoms: N1_19  and  O4_21 
REMARK    8  A    between atoms: C13_25  and  O5_26 
REMARK    9  A    between atoms: C15_29  and  O6_30 
REMARK   10  A    between atoms: C17_33  and  O7_34 
ROOT
HETATM    1  C6  UNL     1      19.516  14.941 159.357  1.00  0.00     0.034 A 
HETATM    2  C7  UNL     1      20.752  15.104 159.929  1.00  0.00     0.112 A 
HETATM    3  C8  UNL     1      21.871  15.558 159.214  1.00  0.00     0.112 A 
HETATM    4  C9  UNL     1      21.697  15.846 157.886  1.00  0.00     0.030 A 
HETATM    5  C10 UNL     1      22.597  16.302 156.944  1.00  0.00     0.032 A 
HETATM    6  C11 UNL     1      23.937  16.624 156.980  1.00  0.00     0.124 A 
HETATM    7  C12 UNL     1      24.507  17.062 155.785  1.00  0.00     0.161 A 
HETATM    8  N2  UNL     1      23.829  17.179 154.641  1.00  0.00    -0.319 N 
ATOM      9  H2  UNL     1      24.323  17.507 153.811  1.00  0.00     0.169 HD
HETATM   10  C13 UNL     1      22.523  16.882 154.541  1.00  0.00     0.155 A 
HETATM   11  C14 UNL     1      21.877  16.439 155.680  1.00  0.00     0.063 A 
HETATM   12  C15 UNL     1      20.541  16.049 155.922  1.00  0.00     0.095 A 
HETATM   13  C16 UNL     1      20.466  15.698 157.256  1.00  0.00     0.046 A 
HETATM   14  C17 UNL     1      19.394  15.252 157.985  1.00  0.00     0.092 A 
ENDROOT
BRANCH   1  15
HETATM   15  C5  UNL     1      18.340  14.478 160.052  1.00  0.00     0.013 C 
HETATM   16  C4  UNL     1      17.825  13.295 160.152  1.00  0.00    -0.022 C 
BRANCH  16  17
HETATM   17  C2  UNL     1      16.557  13.091 160.962  1.00  0.00    -0.000 C 
HETATM   18  C1  UNL     1      16.629  13.882 162.252  1.00  0.00     0.013 C 
HETATM   19  C3  UNL     1      16.418  11.635 161.342  1.00  0.00     0.013 C 
ENDBRANCH  16  17
ENDBRANCH   1  15
BRANCH   2  20
HETATM   20  O1  UNL     1      20.865  14.800 161.266  1.00  0.00    -0.357 OA
ATOM     21  H1  UNL     1      20.570  13.939 161.538  1.00  0.00     0.217 HD
ENDBRANCH   2  20
BRANCH  14  22
HETATM   22  O7  UNL     1      18.178  15.092 157.421  1.00  0.00    -0.359 OA
ATOM     23  H7  UNL     1      18.152  14.866 156.499  1.00  0.00     0.217 HD
ENDBRANCH  14  22
BRANCH   3  24
HETATM   24  O2  UNL     1      23.036  15.672 159.912  1.00  0.00    -0.357 OA
ATOM     25  H2  UNL     1      23.725  16.187 159.508  1.00  0.00     0.217 HD
ENDBRANCH   3  24
BRANCH  12  26
HETATM   26  O6  UNL     1      19.647  16.081 154.906  1.00  0.00    -0.359 OA
ATOM     27  H6  UNL     1      19.870  16.539 154.104  1.00  0.00     0.217 HD
ENDBRANCH  12  26
BRANCH   6  28
HETATM   28  O3  UNL     1      24.708  16.532 158.117  1.00  0.00    -0.356 OA
ATOM     29  H3  UNL     1      25.211  15.759 158.346  1.00  0.00     0.218 HD
ENDBRANCH   6  28
BRANCH  10  30
HETATM   30  O5  UNL     1      21.827  17.007 153.346  1.00  0.00    -0.345 OA
ATOM     31  H5  UNL     1      20.878  16.993 153.311  1.00  0.00     0.219 HD
ENDBRANCH  10  30
BRANCH   7  32
HETATM   32  N1  UNL     1      25.909  17.409 155.783  1.00  0.00    -0.251 N 
ATOM     33  H1  UNL     1      26.191  18.363 156.009  1.00  0.00     0.196 HD
BRANCH  32  34
HETATM   34  O4  UNL     1      26.779  16.561 155.509  1.00  0.00    -0.288 OA
ATOM     35  H4  UNL     1      27.535  16.436 156.070  1.00  0.00     0.244 HD
ENDBRANCH  32  34
ENDBRANCH   7  32
TORSDOF 10
ENDMDL
MODEL 5
REMARK VINA RESULT: -8.572518119      1.115      3.400
REMARK  10 active torsions:
REMARK  status: ('A' for Active; 'I' for Inactive)
REMARK    1  A    between atoms: C2_2  and  C4_4 
REMARK    2  A    between atoms: C5_5  and  C6_6 
REMARK    3  A    between atoms: C7_7  and  O1_8 
REMARK    4  A    between atoms: C8_10  and  O2_11 
REMARK    5  A    between atoms: C11_15  and  O3_16 
REMARK    6  A    between atoms: C12_18  and  N1_19 
REMARK    7  A    between atoms: N1_19  and  O4_21 
REMARK    8  A    between atoms: C13_25  and  O5_26 
REMARK    9  A    between atoms: C15_29  and  O6_30 
REMARK   10  A    between atoms: C17_33  and  O7_34 
ROOT
HETATM    1  C6  UNL     1      20.354  16.152 157.393  1.00  0.00     0.034 A 
HETATM    2  C7  UNL     1      19.274  15.498 157.928  1.00  0.00     0.112 A 
HETATM    3  C8  UNL     1      19.299  14.890 159.192  1.00  0.00     0.112 A 
HETATM    4  C9  UNL     1      20.467  14.966 159.906  1.00  0.00     0.030 A 
HETATM    5  C10 UNL     1      20.785  14.471 161.155  1.00  0.00     0.032 A 
HETATM    6  C11 UNL     1      20.090  13.754 162.105  1.00  0.00     0.124 A 
HETATM    7  C12 UNL     1      20.778  13.433 163.274  1.00  0.00     0.161 A 
HETATM    8  N2  UNL     1      22.046  13.780 163.505  1.00  0.00    -0.319 N 
ATOM      9  H2  UNL     1      22.477  13.505 164.388  1.00  0.00     0.169 HD
HETATM   10  C13 UNL     1      22.777  14.478 162.620  1.00  0.00     0.155 A 
HETATM   11  C14 UNL     1      22.171  14.840 161.431  1.00  0.00     0.063 A 
HETATM   12  C15 UNL     1      22.639  15.558 160.308  1.00  0.00     0.095 A 
HETATM   13  C16 UNL     1      21.591  15.615 159.410  1.00  0.00     0.046 A 
HETATM   14  C17 UNL     1      21.531  16.199 158.171  1.00  0.00     0.092 A 
ENDROOT
BRANCH   1  15
HETATM   15  C5  UNL     1      20.373  16.791 156.099  1.00  0.00     0.013 C 
HETATM   16  C4  UNL     1      20.787  16.365 154.949  1.00  0.00    -0.022 C 
BRANCH  16  17
HETATM   17  C2  UNL     1      20.686  17.266 153.732  1.00  0.00    -0.000 C 
HETATM   18  C1  UNL     1      19.247  17.682 153.507  1.00  0.00     0.013 C 
HETATM   19  C3  UNL     1      21.127  16.515 152.497  1.00  0.00     0.013 C 
ENDBRANCH  16  17
ENDBRANCH   1  15
BRANCH   2  20
HETATM   20  O1  UNL     1      18.130  15.456 157.165  1.00  0.00    -0.357 OA
ATOM     21  H1  UNL     1      17.333  15.783 157.565  1.00  0.00     0.217 HD
ENDBRANCH   2  20
BRANCH  14  22
HETATM   22  O7  UNL     1      22.595  16.842 157.644  1.00  0.00    -0.359 OA
ATOM     23  H7  UNL     1      23.186  17.272 158.250  1.00  0.00     0.217 HD
ENDBRANCH  14  22
BRANCH   3  24
HETATM   24  O2  UNL     1      18.152  14.275 159.598  1.00  0.00    -0.357 OA
ATOM     25  H2  UNL     1      17.481  14.832 159.974  1.00  0.00     0.217 HD
ENDBRANCH   3  24
BRANCH  12  26
HETATM   26  O6  UNL     1      23.911  16.023 160.302  1.00  0.00    -0.359 OA
ATOM     27  H6  UNL     1      24.481  15.827 161.036  1.00  0.00     0.217 HD
ENDBRANCH  12  26
BRANCH   6  28
HETATM   28  O3  UNL     1      18.780  13.357 161.946  1.00  0.00    -0.356 OA
ATOM     29  H3  UNL     1      18.064  13.700 162.465  1.00  0.00     0.218 HD
ENDBRANCH   6  28
BRANCH  10  30
HETATM   30  O5  UNL     1      24.096  14.835 162.870  1.00  0.00    -0.345 OA
ATOM     31  H5  UNL     1      24.495  15.600 162.475  1.00  0.00     0.219 HD
ENDBRANCH  10  30
BRANCH   7  32
HETATM   32  N1  UNL     1      20.083  12.683 164.293  1.00  0.00    -0.251 N 
ATOM     33  H1  UNL     1      20.425  11.759 164.559  1.00  0.00     0.196 HD
BRANCH  32  34
HETATM   34  O4  UNL     1      19.071  13.146 164.854  1.00  0.00    -0.288 OA
ATOM     35  H4  UNL     1      18.539  13.811 164.433  1.00  0.00     0.244 HD
ENDBRANCH  32  34
ENDBRANCH   7  32
TORSDOF 10
ENDMDL
