MODEL 1
REMARK VINA RESULT: -6.416131959      0.000      0.000
REMARK  5 active torsions:
REMARK  status: ('A' for Active; 'I' for Inactive)
REMARK    1  A    between atoms: O1_1  and  C1_3 
REMARK    2  A    between atoms: C4_6  and  C5_7 
REMARK    3  A    between atoms: C5_7  and  C6_9 
REMARK    4  A    between atoms: C7_10  and  O2_11 
REMARK    5  A    between atoms: C11_22  and  S4_23 
ROOT
HETATM    1  C6  UNL     1      18.331  13.338 159.350  1.00  0.00     0.050 A 
HETATM    2  C7  UNL     1      18.614  12.312 158.478  1.00  0.00     0.153 A 
HETATM    3  N1  UNL     1      18.245  11.040 158.751  1.00  0.00    -0.313 N 
ATOM      4  H1  UNL     1      18.473  10.305 158.082  1.00  0.00     0.170 HD
HETATM    5  C8  UNL     1      17.587  10.717 159.875  1.00  0.00     0.178 A 
HETATM    6  S2  UNL     1      17.146   9.157 160.189  1.00  0.00    -0.040 SA
HETATM    7  N2  UNL     1      17.295  11.696 160.747  1.00  0.00    -0.323 N 
ATOM      8  H2  UNL     1      16.796  11.467 161.607  1.00  0.00     0.169 HD
HETATM    9  C9  UNL     1      17.648  12.970 160.509  1.00  0.00     0.115 A 
HETATM   10  S3  UNL     1      17.248  14.086 161.617  1.00  0.00    -0.060 SA
ENDROOT
BRANCH   1  11
HETATM   11  C5  UNL     1      18.716  14.743 159.094  1.00  0.00     0.132 C 
HETATM   12  S1  UNL     1      18.391  15.127 157.326  1.00  0.00    -0.082 SA
BRANCH  11  13
HETATM   13  C4  UNL     1      20.118  15.060 159.430  1.00  0.00    -0.037 A 
HETATM   14  C3  UNL     1      20.655  14.717 160.665  1.00  0.00     0.011 A 
HETATM   15  C2  UNL     1      21.941  15.005 160.999  1.00  0.00     0.038 A 
HETATM   16  C1  UNL     1      22.822  15.673 160.116  1.00  0.00     0.083 A 
HETATM   17  C11 UNL     1      22.310  16.019 158.892  1.00  0.00     0.046 A 
HETATM   18  C10 UNL     1      20.961  15.702 158.578  1.00  0.00     0.031 A 
BRANCH  16  19
HETATM   19  O1  UNL     1      24.097  15.908 160.564  1.00  0.00    -0.359 OA
ATOM     20  H1  UNL     1      24.721  16.250 159.934  1.00  0.00     0.217 HD
ENDBRANCH  16  19
BRANCH  17  21
HETATM   21  S4  UNL     1      23.193  16.853 157.616  1.00  0.00    -0.043 SA
HETATM   22  S5  UNL     1      23.001  16.086 155.701  1.00  0.00    -0.007 SA
ENDBRANCH  17  21
ENDBRANCH  11  13
ENDBRANCH   1  11
BRANCH   2  23
HETATM   23  O2  UNL     1      19.293  12.548 157.285  1.00  0.00    -0.346 OA
ATOM     24  H2  UNL     1      20.164  12.925 157.284  1.00  0.00     0.219 HD
ENDBRANCH   2  23
TORSDOF 5
ENDMDL
MODEL 2
REMARK VINA RESULT: -6.360066887      1.656      2.361
REMARK  5 active torsions:
REMARK  status: ('A' for Active; 'I' for Inactive)
REMARK    1  A    between atoms: O1_1  and  C1_3 
REMARK    2  A    between atoms: C4_6  and  C5_7 
REMARK    3  A    between atoms: C5_7  and  C6_9 
REMARK    4  A    between atoms: C7_10  and  O2_11 
REMARK    5  A    between atoms: C11_22  and  S4_23 
ROOT
HETATM    1  C6  UNL     1      18.577  13.792 158.978  1.00  0.00     0.050 A 
HETATM    2  C7  UNL     1      18.809  12.723 158.142  1.00  0.00     0.153 A 
HETATM    3  N1  UNL     1      18.483  11.464 158.509  1.00  0.00    -0.313 N 
ATOM      4  H1  UNL     1      18.671  10.696 157.864  1.00  0.00     0.170 HD
HETATM    5  C8  UNL     1      17.918  11.193 159.695  1.00  0.00     0.178 A 
HETATM    6  S2  UNL     1      17.527   9.648 160.124  1.00  0.00    -0.040 SA
HETATM    7  N2  UNL     1      17.677  12.214 160.534  1.00  0.00    -0.323 N 
ATOM      8  H2  UNL     1      17.248  12.026 161.441  1.00  0.00     0.169 HD
HETATM    9  C9  UNL     1      17.989  13.478 160.204  1.00  0.00     0.115 A 
HETATM   10  S3  UNL     1      17.657  14.647 161.278  1.00  0.00    -0.060 SA
ENDROOT
BRANCH   1  11
HETATM   11  C5  UNL     1      18.917  15.186 158.619  1.00  0.00     0.132 C 
HETATM   12  S1  UNL     1      18.302  15.521 156.920  1.00  0.00    -0.082 SA
BRANCH  11  13
HETATM   13  C4  UNL     1      20.357  15.500 158.707  1.00  0.00    -0.037 A 
HETATM   14  C3  UNL     1      21.039  16.053 157.630  1.00  0.00     0.011 A 
HETATM   15  C2  UNL     1      22.365  16.344 157.685  1.00  0.00     0.038 A 
HETATM   16  C1  UNL     1      23.145  16.105 158.841  1.00  0.00     0.083 A 
HETATM   17  C11 UNL     1      22.490  15.560 159.916  1.00  0.00     0.046 A 
HETATM   18  C10 UNL     1      21.103  15.269 159.820  1.00  0.00     0.031 A 
BRANCH  16  19
HETATM   19  O1  UNL     1      24.474  16.440 158.779  1.00  0.00    -0.359 OA
ATOM     20  H1  UNL     1      24.804  17.030 159.447  1.00  0.00     0.217 HD
ENDBRANCH  16  19
BRANCH  17  21
HETATM   21  S4  UNL     1      23.226  15.167 161.467  1.00  0.00    -0.043 SA
HETATM   22  S5  UNL     1      21.975  14.368 162.912  1.00  0.00    -0.007 SA
ENDBRANCH  17  21
ENDBRANCH  11  13
ENDBRANCH   1  11
BRANCH   2  23
HETATM   23  O2  UNL     1      19.391  12.904 156.890  1.00  0.00    -0.346 OA
ATOM     24  H2  UNL     1      18.858  12.962 156.106  1.00  0.00     0.219 HD
ENDBRANCH   2  23
TORSDOF 5
ENDMDL
MODEL 3
REMARK VINA RESULT: -6.313887400      1.178      1.444
REMARK  5 active torsions:
REMARK  status: ('A' for Active; 'I' for Inactive)
REMARK    1  A    between atoms: O1_1  and  C1_3 
REMARK    2  A    between atoms: C4_6  and  C5_7 
REMARK    3  A    between atoms: C5_7  and  C6_9 
REMARK    4  A    between atoms: C7_10  and  O2_11 
REMARK    5  A    between atoms: C11_22  and  S4_23 
ROOT
HETATM    1  C6  UNL     1      18.703  13.936 158.928  1.00  0.00     0.050 A 
HETATM    2  C7  UNL     1      18.850  12.821 158.135  1.00  0.00     0.153 A 
HETATM    3  N1  UNL     1      18.489  11.595 158.577  1.00  0.00    -0.313 N 
ATOM      4  H1  UNL     1      18.614  10.791 157.961  1.00  0.00     0.170 HD
HETATM    5  C8  UNL     1      17.970  11.405 159.799  1.00  0.00     0.178 A 
HETATM    6  S2  UNL     1      17.536   9.899 160.319  1.00  0.00    -0.040 SA
HETATM    7  N2  UNL     1      17.812  12.472 160.598  1.00  0.00    -0.323 N 
ATOM      8  H2  UNL     1      17.420  12.345 161.531  1.00  0.00     0.169 HD
HETATM    9  C9  UNL     1      18.161  13.704 160.193  1.00  0.00     0.115 A 
HETATM   10  S3  UNL     1      17.929  14.935 161.224  1.00  0.00    -0.060 SA
ENDROOT
BRANCH   1  11
HETATM   11  C5  UNL     1      19.084  15.295 158.488  1.00  0.00     0.132 C 
HETATM   12  S1  UNL     1      18.256  15.647 156.885  1.00  0.00    -0.082 SA
BRANCH  11  13
HETATM   13  C4  UNL     1      20.540  15.506 158.362  1.00  0.00    -0.037 A 
HETATM   14  C3  UNL     1      21.362  15.524 159.482  1.00  0.00     0.011 A 
HETATM   15  C2  UNL     1      22.704  15.724 159.391  1.00  0.00     0.038 A 
HETATM   16  C1  UNL     1      23.357  15.928 158.152  1.00  0.00     0.083 A 
HETATM   17  C11 UNL     1      22.562  15.913 157.035  1.00  0.00     0.046 A 
HETATM   18  C10 UNL     1      21.163  15.702 157.169  1.00  0.00     0.031 A 
BRANCH  16  19
HETATM   19  O1  UNL     1      24.715  16.118 158.185  1.00  0.00    -0.359 OA
ATOM     20  H1  UNL     1      25.240  15.596 157.591  1.00  0.00     0.217 HD
ENDBRANCH  16  19
BRANCH  17  21
HETATM   21  S4  UNL     1      23.122  16.140 155.381  1.00  0.00    -0.043 SA
HETATM   22  S5  UNL     1      21.662  16.359 153.928  1.00  0.00    -0.007 SA
ENDBRANCH  17  21
ENDBRANCH  11  13
ENDBRANCH   1  11
BRANCH   2  23
HETATM   23  O2  UNL     1      19.379  12.918 156.850  1.00  0.00    -0.346 OA
ATOM     24  H2  UNL     1      18.891  13.333 156.150  1.00  0.00     0.219 HD
ENDBRANCH   2  23
TORSDOF 5
ENDMDL
MODEL 4
REMARK VINA RESULT: -6.165563269      1.888      2.380
REMARK  5 active torsions:
REMARK  status: ('A' for Active; 'I' for Inactive)
REMARK    1  A    between atoms: O1_1  and  C1_3 
REMARK    2  A    between atoms: C4_6  and  C5_7 
REMARK    3  A    between atoms: C5_7  and  C6_9 
REMARK    4  A    between atoms: C7_10  and  O2_11 
REMARK    5  A    between atoms: C11_22  and  S4_23 
ROOT
HETATM    1  C6  UNL     1      18.311  13.290 159.350  1.00  0.00     0.050 A 
HETATM    2  C7  UNL     1      18.602  12.270 158.473  1.00  0.00     0.153 A 
HETATM    3  N1  UNL     1      18.251  10.993 158.743  1.00  0.00    -0.313 N 
ATOM      4  H1  UNL     1      18.484  10.263 158.070  1.00  0.00     0.170 HD
HETATM    5  C8  UNL     1      17.604  10.657 159.870  1.00  0.00     0.178 A 
HETATM    6  S2  UNL     1      17.185   9.090 160.181  1.00  0.00    -0.040 SA
HETATM    7  N2  UNL     1      17.305  11.628 160.747  1.00  0.00    -0.323 N 
ATOM      8  H2  UNL     1      16.814  11.390 161.609  1.00  0.00     0.169 HD
HETATM    9  C9  UNL     1      17.639  12.908 160.512  1.00  0.00     0.115 A 
HETATM   10  S3  UNL     1      17.232  14.014 161.626  1.00  0.00    -0.060 SA
ENDROOT
BRANCH   1  11
HETATM   11  C5  UNL     1      18.675  14.700 159.097  1.00  0.00     0.132 C 
HETATM   12  S1  UNL     1      18.343  15.084 157.331  1.00  0.00    -0.082 SA
BRANCH  11  13
HETATM   13  C4  UNL     1      20.073  15.036 159.433  1.00  0.00    -0.037 A 
HETATM   14  C3  UNL     1      20.896  15.685 158.521  1.00  0.00     0.011 A 
HETATM   15  C2  UNL     1      22.188  15.997 158.806  1.00  0.00     0.038 A 
HETATM   16  C1  UNL     1      22.786  15.684 160.049  1.00  0.00     0.083 A 
HETATM   17  C11 UNL     1      21.990  15.044 160.964  1.00  0.00     0.046 A 
HETATM   18  C10 UNL     1      20.644  14.733 160.630  1.00  0.00     0.031 A 
BRANCH  16  19
HETATM   19  O1  UNL     1      24.097  16.049 160.222  1.00  0.00    -0.359 OA
ATOM     20  H1  UNL     1      24.268  16.797 160.782  1.00  0.00     0.217 HD
ENDBRANCH  16  19
BRANCH  17  21
HETATM   21  S4  UNL     1      22.487  14.545 162.578  1.00  0.00    -0.043 SA
HETATM   22  S5  UNL     1      23.535  12.764 162.719  1.00  0.00    -0.007 SA
ENDBRANCH  17  21
ENDBRANCH  11  13
ENDBRANCH   1  11
BRANCH   2  23
HETATM   23  O2  UNL     1      19.270  12.520 157.277  1.00  0.00    -0.346 OA
ATOM     24  H2  UNL     1      19.956  11.941 156.968  1.00  0.00     0.219 HD
ENDBRANCH   2  23
TORSDOF 5
ENDMDL
MODEL 5
REMARK VINA RESULT: -6.149743838      4.232      6.165
REMARK  5 active torsions:
REMARK  status: ('A' for Active; 'I' for Inactive)
REMARK    1  A    between atoms: O1_1  and  C1_3 
REMARK    2  A    between atoms: C4_6  and  C5_7 
REMARK    3  A    between atoms: C5_7  and  C6_9 
REMARK    4  A    between atoms: C7_10  and  O2_11 
REMARK    5  A    between atoms: C11_22  and  S4_23 
ROOT
HETATM    1  C6  UNL     1      20.332  16.122 155.634  1.00  0.00     0.050 A 
HETATM    2  C7  UNL     1      19.444  17.174 155.627  1.00  0.00     0.153 A 
HETATM    3  N1  UNL     1      19.302  17.963 154.539  1.00  0.00    -0.313 N 
ATOM      4  H1  UNL     1      18.635  18.734 154.571  1.00  0.00     0.170 HD
HETATM    5  C8  UNL     1      20.011  17.761 153.417  1.00  0.00     0.178 A 
HETATM    6  S2  UNL     1      19.823  18.737 152.099  1.00  0.00    -0.040 SA
HETATM    7  N2  UNL     1      20.886  16.743 153.390  1.00  0.00    -0.323 N 
ATOM      8  H2  UNL     1      21.434  16.575 152.547  1.00  0.00     0.169 HD
HETATM    9  C9  UNL     1      21.054  15.939 154.454  1.00  0.00     0.115 A 
HETATM   10  S3  UNL     1      22.129  14.731 154.328  1.00  0.00    -0.060 SA
ENDROOT
BRANCH   1  11
HETATM   11  C5  UNL     1      20.521  15.233 156.800  1.00  0.00     0.132 C 
HETATM   12  S1  UNL     1      18.902  15.022 157.645  1.00  0.00    -0.082 SA
BRANCH  11  13
HETATM   13  C4  UNL     1      21.536  15.703 157.763  1.00  0.00    -0.037 A 
HETATM   14  C3  UNL     1      22.495  16.640 157.396  1.00  0.00     0.011 A 
HETATM   15  C2  UNL     1      23.444  17.082 158.263  1.00  0.00     0.038 A 
HETATM   16  C1  UNL     1      23.524  16.620 159.598  1.00  0.00     0.083 A 
HETATM   17  C11 UNL     1      22.586  15.695 159.980  1.00  0.00     0.046 A 
HETATM   18  C10 UNL     1      21.609  15.257 159.046  1.00  0.00     0.031 A 
BRANCH  16  19
HETATM   19  O1  UNL     1      24.524  17.139 160.381  1.00  0.00    -0.359 OA
ATOM     20  H1  UNL     1      24.281  17.452 161.244  1.00  0.00     0.217 HD
ENDBRANCH  16  19
BRANCH  17  21
HETATM   21  S4  UNL     1      22.464  14.964 161.578  1.00  0.00    -0.043 SA
HETATM   22  S5  UNL     1      20.611  14.212 162.117  1.00  0.00    -0.007 SA
ENDBRANCH  17  21
ENDBRANCH  11  13
ENDBRANCH   1  11
BRANCH   2  23
HETATM   23  O2  UNL     1      18.663  17.462 156.743  1.00  0.00    -0.346 OA
ATOM     24  H2  UNL     1      19.012  17.372 157.622  1.00  0.00     0.219 HD
ENDBRANCH   2  23
TORSDOF 5
ENDMDL
