MODEL 1
REMARK VINA RESULT: -6.298879710      0.000      0.000
REMARK  2 active torsions:
REMARK  status: ('A' for Active; 'I' for Inactive)
REMARK       I    between atoms: N1_2  and  C2_4 
REMARK    1  A    between atoms: C2_4  and  C3_6 
REMARK    2  A    between atoms: C7_11  and  C13_20 
ROOT
HETATM    1  C3  UNL     1      15.355 -13.099  19.319  1.00  0.00     0.050 A 
HETATM    2  C4  UNL     1      15.937 -12.399  20.489  1.00  0.00     0.026 C 
HETATM    3  C5  UNL     1      14.909 -12.582  21.582  1.00  0.00     0.006 C 
HETATM    4  C6  UNL     1      14.959 -14.070  21.913  1.00  0.00     0.069 C 
HETATM    5 BR1  UNL     1      16.775 -14.761  21.682  1.00  0.00    -0.090 Br
HETATM    6  C7  UNL     1      14.121 -14.720  20.855  1.00  0.00     0.037 C 
HETATM    7  C8  UNL     1      12.672 -14.441  21.193  1.00  0.00     0.197 C 
HETATM    8  N2  UNL     1      12.297 -14.546  22.563  1.00  0.00    -0.070 N 
ATOM      9  H21 UNL     1      12.888 -15.104  23.181  1.00  0.00     0.277 HD
ATOM     10  H22 UNL     1      11.470 -15.096  22.794  1.00  0.00     0.277 HD
HETATM   11  C9  UNL     1      12.246 -13.121  22.778  1.00  0.00     0.239 C 
HETATM   12  C10 UNL     1      12.428 -12.930  21.313  1.00  0.00     0.047 C 
HETATM   13  C11 UNL     1      13.642 -12.244  20.814  1.00  0.00     0.004 C 
HETATM   14  C12 UNL     1      13.902 -12.785  19.401  1.00  0.00     0.014 A 
HETATM   15  C13 UNL     1      14.415 -14.166  19.516  1.00  0.00     0.017 A 
ENDROOT
BRANCH   1  16
HETATM   16  C2  UNL     1      15.996 -12.909  18.018  1.00  0.00     0.226 C 
HETATM   17  N1  UNL     1      15.991 -13.936  17.048  1.00  0.00    -0.365 N 
HETATM   18  C1  UNL     1      16.616 -13.792  15.748  1.00  0.00     0.149 C 
ATOM     19  H1  UNL     1      15.528 -14.818  17.272  1.00  0.00     0.161 HD
HETATM   20  O1  UNL     1      16.560 -11.785  17.791  1.00  0.00    -0.273 OA
ENDBRANCH   1  16
TORSDOF 2
ENDMDL
MODEL 2
REMARK VINA RESULT: -6.283270081      2.639      4.889
REMARK  2 active torsions:
REMARK  status: ('A' for Active; 'I' for Inactive)
REMARK       I    between atoms: N1_2  and  C2_4 
REMARK    1  A    between atoms: C2_4  and  C3_6 
REMARK    2  A    between atoms: C7_11  and  C13_20 
ROOT
HETATM    1  C3  UNL     1      13.351 -12.296  21.504  1.00  0.00     0.050 A 
HETATM    2  C4  UNL     1      13.307 -12.376  20.024  1.00  0.00     0.026 C 
HETATM    3  C5  UNL     1      14.641 -12.976  19.643  1.00  0.00     0.006 C 
HETATM    4  C6  UNL     1      14.576 -14.414  20.147  1.00  0.00     0.069 C 
HETATM    5 BR1  UNL     1      12.744 -15.094  20.035  1.00  0.00    -0.090 Br
HETATM    6  C7  UNL     1      14.902 -14.319  21.606  1.00  0.00     0.037 C 
HETATM    7  C8  UNL     1      16.395 -14.086  21.719  1.00  0.00     0.197 C 
HETATM    8  N2  UNL     1      17.233 -14.841  20.849  1.00  0.00    -0.070 N 
ATOM      9  H21 UNL     1      16.859 -15.703  20.451  1.00  0.00     0.277 HD
ATOM     10  H22 UNL     1      18.031 -15.329  21.255  1.00  0.00     0.277 HD
HETATM   11  C9  UNL     1      17.493 -13.739  19.957  1.00  0.00     0.239 C 
HETATM   12  C10 UNL     1      16.807 -12.839  20.925  1.00  0.00     0.047 C 
HETATM   13  C11 UNL     1      15.566 -12.143  20.516  1.00  0.00     0.004 C 
HETATM   14  C12 UNL     1      14.756 -11.900  21.798  1.00  0.00     0.014 A 
HETATM   15  C13 UNL     1      14.193 -13.191  22.247  1.00  0.00     0.017 A 
ENDROOT
BRANCH   1  16
HETATM   16  C2  UNL     1      12.300 -11.537  22.180  1.00  0.00     0.226 C 
HETATM   17  N1  UNL     1      11.879 -11.880  23.484  1.00  0.00    -0.365 N 
HETATM   18  C1  UNL     1      10.840 -11.157  24.191  1.00  0.00     0.149 C 
ATOM     19  H1  UNL     1      12.327 -12.671  23.949  1.00  0.00     0.161 HD
HETATM   20  O1  UNL     1      11.776 -10.555  21.550  1.00  0.00    -0.273 OA
ENDBRANCH   1  16
TORSDOF 2
ENDMDL
MODEL 3
REMARK VINA RESULT: -6.096244391      3.235      5.134
REMARK  2 active torsions:
REMARK  status: ('A' for Active; 'I' for Inactive)
REMARK       I    between atoms: N1_2  and  C2_4 
REMARK    1  A    between atoms: C2_4  and  C3_6 
REMARK    2  A    between atoms: C7_11  and  C13_20 
ROOT
HETATM    1  C3  UNL     1      15.876 -13.295  21.088  1.00  0.00     0.050 A 
HETATM    2  C4  UNL     1      15.940 -13.903  19.737  1.00  0.00     0.026 C 
HETATM    3  C5  UNL     1      17.405 -14.221  19.541  1.00  0.00     0.006 C 
HETATM    4  C6  UNL     1      17.690 -15.350  20.527  1.00  0.00     0.069 C 
HETATM    5 BR1  UNL     1      16.111 -16.486  20.739  1.00  0.00    -0.090 Br
HETATM    6  C7  UNL     1      17.895 -14.661  21.841  1.00  0.00     0.037 C 
HETATM    7  C8  UNL     1      19.265 -14.016  21.802  1.00  0.00     0.197 C 
HETATM    8  N2  UNL     1      20.320 -14.778  21.224  1.00  0.00    -0.070 N 
ATOM      9  H21 UNL     1      20.210 -15.791  21.175  1.00  0.00     0.277 HD
ATOM     10  H22 UNL     1      21.194 -14.860  21.744  1.00  0.00     0.277 HD
HETATM   11  C9  UNL     1      20.334 -14.036  19.988  1.00  0.00     0.239 C 
HETATM   12  C10 UNL     1      19.381 -13.069  20.599  1.00  0.00     0.047 C 
HETATM   13  C11 UNL     1      18.026 -12.920  20.021  1.00  0.00     0.004 C 
HETATM   14  C12 UNL     1      17.109 -12.463  21.164  1.00  0.00     0.014 A 
HETATM   15  C13 UNL     1      16.879 -13.611  22.066  1.00  0.00     0.017 A 
ENDROOT
BRANCH   1  16
HETATM   16  C2  UNL     1      14.625 -12.654  21.492  1.00  0.00     0.226 C 
HETATM   17  N1  UNL     1      14.062 -11.610  20.724  1.00  0.00    -0.365 N 
HETATM   18  C1  UNL     1      12.825 -10.946  21.089  1.00  0.00     0.149 C 
ATOM     19  H1  UNL     1      14.545 -11.312  19.877  1.00  0.00     0.161 HD
HETATM   20  O1  UNL     1      14.062 -13.069  22.562  1.00  0.00    -0.273 OA
ENDBRANCH   1  16
TORSDOF 2
ENDMDL
MODEL 4
REMARK VINA RESULT: -6.093942991      3.000      4.408
REMARK  2 active torsions:
REMARK  status: ('A' for Active; 'I' for Inactive)
REMARK       I    between atoms: N1_2  and  C2_4 
REMARK    1  A    between atoms: C2_4  and  C3_6 
REMARK    2  A    between atoms: C7_11  and  C13_20 
ROOT
HETATM    1  C3  UNL     1      13.839 -15.026  21.533  1.00  0.00     0.050 A 
HETATM    2  C4  UNL     1      13.348 -14.858  20.143  1.00  0.00     0.026 C 
HETATM    3  C5  UNL     1      13.218 -13.362  19.972  1.00  0.00     0.006 C 
HETATM    4  C6  UNL     1      14.654 -12.847  19.979  1.00  0.00     0.069 C 
HETATM    5 BR1  UNL     1      15.856 -14.166  19.177  1.00  0.00    -0.090 Br
HETATM    6  C7  UNL     1      15.020 -12.766  21.429  1.00  0.00     0.037 C 
HETATM    7  C8  UNL     1      14.320 -11.553  22.003  1.00  0.00     0.197 C 
HETATM    8  N2  UNL     1      14.312 -10.374  21.204  1.00  0.00    -0.070 N 
ATOM      9  H21 UNL     1      15.024 -10.281  20.478  1.00  0.00     0.277 HD
ATOM     10  H22 UNL     1      14.590  -9.495  21.642  1.00  0.00     0.277 HD
HETATM   11  C9  UNL     1      12.939 -10.523  20.793  1.00  0.00     0.239 C 
HETATM   12  C10 UNL     1      12.806 -11.641  21.767  1.00  0.00     0.047 C 
HETATM   13  C11 UNL     1      12.514 -13.006  21.270  1.00  0.00     0.004 C 
HETATM   14  C12 UNL     1      13.103 -13.982  22.299  1.00  0.00     0.014 A 
HETATM   15  C13 UNL     1      14.575 -13.968  22.166  1.00  0.00     0.017 A 
ENDROOT
BRANCH   1  16
HETATM   16  C2  UNL     1      13.845 -16.374  22.099  1.00  0.00     0.226 C 
HETATM   17  N1  UNL     1      14.987 -16.880  22.759  1.00  0.00    -0.365 N 
HETATM   18  C1  UNL     1      15.038 -18.210  23.333  1.00  0.00     0.149 C 
ATOM     19  H1  UNL     1      15.811 -16.283  22.836  1.00  0.00     0.161 HD
HETATM   20  O1  UNL     1      12.785 -17.077  21.974  1.00  0.00    -0.273 OA
ENDBRANCH   1  16
TORSDOF 2
ENDMDL
MODEL 5
REMARK VINA RESULT: -6.003348773      2.022      4.359
REMARK  2 active torsions:
REMARK  status: ('A' for Active; 'I' for Inactive)
REMARK       I    between atoms: N1_2  and  C2_4 
REMARK    1  A    between atoms: C2_4  and  C3_6 
REMARK    2  A    between atoms: C7_11  and  C13_20 
ROOT
HETATM    1  C3  UNL     1      14.229 -12.512  21.157  1.00  0.00     0.050 A 
HETATM    2  C4  UNL     1      15.006 -13.463  21.989  1.00  0.00     0.026 C 
HETATM    3  C5  UNL     1      15.254 -14.641  21.074  1.00  0.00     0.006 C 
HETATM    4  C6  UNL     1      16.221 -14.113  20.019  1.00  0.00     0.069 C 
HETATM    5 BR1  UNL     1      17.416 -12.774  20.798  1.00  0.00    -0.090 Br
HETATM    6  C7  UNL     1      15.352 -13.386  19.040  1.00  0.00     0.037 C 
HETATM    7  C8  UNL     1      14.633 -14.432  18.213  1.00  0.00     0.197 C 
HETATM    8  N2  UNL     1      15.397 -15.557  17.790  1.00  0.00    -0.070 N 
ATOM      9  H21 UNL     1      16.413 -15.464  17.760  1.00  0.00     0.277 HD
ATOM     10  H22 UNL     1      15.353 -15.825  16.806  1.00  0.00     0.277 HD
HETATM   11  C9  UNL     1      14.827 -16.455  18.763  1.00  0.00     0.239 C 
HETATM   12  C10 UNL     1      13.849 -15.390  19.120  1.00  0.00     0.047 C 
HETATM   13  C11 UNL     1      13.864 -14.819  20.487  1.00  0.00     0.004 C 
HETATM   14  C12 UNL     1      13.318 -13.389  20.370  1.00  0.00     0.014 A 
HETATM   15  C13 UNL     1      14.348 -12.547  19.727  1.00  0.00     0.017 A 
ENDROOT
BRANCH   1  16
HETATM   16  C2  UNL     1      13.620 -11.361  21.822  1.00  0.00     0.226 C 
HETATM   17  N1  UNL     1      12.640 -11.534  22.824  1.00  0.00    -0.365 N 
HETATM   18  C1  UNL     1      12.010 -10.421  23.507  1.00  0.00     0.149 C 
ATOM     19  H1  UNL     1      12.364 -12.483  23.079  1.00  0.00     0.161 HD
HETATM   20  O1  UNL     1      14.005 -10.195  21.463  1.00  0.00    -0.273 OA
ENDBRANCH   1  16
TORSDOF 2
ENDMDL
