MODEL 1
REMARK VINA RESULT: -7.216211345      0.000      0.000
REMARK  1 active torsions:
REMARK  status: ('A' for Active; 'I' for Inactive)
REMARK    1  A    between atoms: C3_3  and  N1_4 
REMARK       I    between atoms: N1_4  and  C4_6 
REMARK       I    between atoms: C4_6  and  N2_8 
ROOT
HETATM    1  C1  UNL     1      20.714 -13.078  19.377  1.00  0.00     0.015 C 
HETATM    2  C2  UNL     1      20.144 -13.721  20.222  1.00  0.00    -0.083 C 
HETATM    3  C3  UNL     1      19.458 -14.525  21.238  1.00  0.00     0.128 C 
HETATM    4  C14 UNL     1      19.565 -16.010  20.866  1.00  0.00     0.050 C 
HETATM    5  C15 UNL     1      19.858 -16.275  22.330  1.00  0.00     0.044 C 
HETATM    6  C16 UNL     1      20.333 -14.840  22.431  1.00  0.00     0.210 C 
HETATM    7  F1  UNL     1      19.979 -14.193  23.595  1.00  0.00    -0.246 F 
ENDROOT
BRANCH   3   8
HETATM    8  N1  UNL     1      18.121 -14.133  21.539  1.00  0.00    -0.320 N 
HETATM    9  C4  UNL     1      17.186 -13.860  20.520  1.00  0.00     0.319 C 
HETATM   10  O1  UNL     1      17.554 -13.968  19.323  1.00  0.00    -0.247 OA
HETATM   11  N2  UNL     1      15.832 -13.464  20.818  1.00  0.00    -0.331 N 
HETATM   12  C5  UNL     1      14.885 -13.187  19.759  1.00  0.00     0.155 C 
HETATM   13  C13 UNL     1      15.368 -13.328  22.182  1.00  0.00     0.155 C 
HETATM   14  C6  UNL     1      13.515 -13.557  20.283  1.00  0.00     0.257 C 
HETATM   15  N3  UNL     1      13.115 -12.709  21.400  1.00  0.00    -0.064 N 
HETATM   16  C7  UNL     1      12.116 -13.441  22.142  1.00  0.00     0.237 C 
HETATM   17  C11 UNL     1      12.443 -11.559  20.822  1.00  0.00     0.237 C 
HETATM   18  C12 UNL     1      14.242 -12.322  22.185  1.00  0.00     0.257 C 
HETATM   19  C8  UNL     1      11.452 -12.680  23.214  1.00  0.00     0.028 C 
HETATM   20  C9  UNL     1      11.259 -11.234  23.011  1.00  0.00     0.003 C 
HETATM   21  C10 UNL     1      12.072 -10.603  21.926  1.00  0.00     0.028 C 
ATOM     22  H1  UNL     1      17.834 -14.049  22.514  1.00  0.00     0.166 HD
ENDBRANCH   3   8
TORSDOF 1
ENDMDL
MODEL 2
REMARK VINA RESULT: -6.972929157      4.032      5.412
REMARK  1 active torsions:
REMARK  status: ('A' for Active; 'I' for Inactive)
REMARK    1  A    between atoms: C3_3  and  N1_4 
REMARK       I    between atoms: N1_4  and  C4_6 
REMARK       I    between atoms: C4_6  and  N2_8 
ROOT
HETATM    1  C1  UNL     1      16.206 -16.036  14.898  1.00  0.00     0.015 C 
HETATM    2  C2  UNL     1      16.051 -14.858  15.099  1.00  0.00    -0.083 C 
HETATM    3  C3  UNL     1      15.887 -13.421  15.339  1.00  0.00     0.128 C 
HETATM    4  C14 UNL     1      17.246 -12.724  15.186  1.00  0.00     0.050 C 
HETATM    5  C15 UNL     1      16.514 -11.637  14.423  1.00  0.00     0.044 C 
HETATM    6  C16 UNL     1      15.447 -12.664  14.105  1.00  0.00     0.210 C 
HETATM    7  F1  UNL     1      14.154 -12.189  14.149  1.00  0.00    -0.246 F 
ENDROOT
BRANCH   3   8
HETATM    8  N1  UNL     1      15.225 -13.066  16.550  1.00  0.00    -0.320 N 
HETATM    9  C4  UNL     1      15.772 -13.387  17.809  1.00  0.00     0.319 C 
HETATM   10  O1  UNL     1      16.868 -14.001  17.849  1.00  0.00    -0.247 OA
HETATM   11  N2  UNL     1      15.108 -13.031  19.038  1.00  0.00    -0.331 N 
HETATM   12  C5  UNL     1      15.683 -13.368  20.323  1.00  0.00     0.155 C 
HETATM   13  C13 UNL     1      13.845 -12.324  19.037  1.00  0.00     0.155 C 
HETATM   14  C6  UNL     1      15.254 -12.293  21.296  1.00  0.00     0.257 C 
HETATM   15  N3  UNL     1      13.810 -12.291  21.500  1.00  0.00    -0.064 N 
HETATM   16  C7  UNL     1      13.457 -10.973  21.972  1.00  0.00     0.237 C 
HETATM   17  C11 UNL     1      13.550 -13.207  22.596  1.00  0.00     0.237 C 
HETATM   18  C12 UNL     1      13.120 -12.678  20.313  1.00  0.00     0.257 C 
HETATM   19  C8  UNL     1      12.059 -10.819  22.408  1.00  0.00     0.028 C 
HETATM   20  C9  UNL     1      11.398 -11.985  23.018  1.00  0.00     0.003 C 
HETATM   21  C10 UNL     1      12.061 -13.309  22.805  1.00  0.00     0.028 C 
ATOM     22  H1  UNL     1      14.337 -12.569  16.505  1.00  0.00     0.166 HD
ENDBRANCH   3   8
TORSDOF 1
ENDMDL
MODEL 3
REMARK VINA RESULT: -6.555322212      1.415      2.166
REMARK  1 active torsions:
REMARK  status: ('A' for Active; 'I' for Inactive)
REMARK    1  A    between atoms: C3_3  and  N1_4 
REMARK       I    between atoms: N1_4  and  C4_6 
REMARK       I    between atoms: C4_6  and  N2_8 
ROOT
HETATM    1  C1  UNL     1      18.546 -18.788  21.115  1.00  0.00     0.015 C 
HETATM    2  C2  UNL     1      18.695 -17.647  21.475  1.00  0.00    -0.083 C 
HETATM    3  C3  UNL     1      18.890 -16.268  21.932  1.00  0.00     0.128 C 
HETATM    4  C14 UNL     1      19.700 -16.277  23.236  1.00  0.00     0.050 C 
HETATM    5  C15 UNL     1      20.484 -15.111  22.665  1.00  0.00     0.044 C 
HETATM    6  C16 UNL     1      20.082 -15.596  21.287  1.00  0.00     0.210 C 
HETATM    7  F1  UNL     1      19.768 -14.597  20.391  1.00  0.00    -0.246 F 
ENDROOT
BRANCH   3   8
HETATM    8  N1  UNL     1      17.711 -15.474  22.029  1.00  0.00    -0.320 N 
HETATM    9  C4  UNL     1      16.879 -15.253  20.913  1.00  0.00     0.319 C 
HETATM   10  O1  UNL     1      17.198 -15.773  19.814  1.00  0.00    -0.247 OA
HETATM   11  N2  UNL     1      15.684 -14.451  21.003  1.00  0.00    -0.331 N 
HETATM   12  C5  UNL     1      14.841 -14.233  19.847  1.00  0.00     0.155 C 
HETATM   13  C13 UNL     1      15.281 -13.834  22.249  1.00  0.00     0.155 C 
HETATM   14  C6  UNL     1      13.425 -14.076  20.354  1.00  0.00     0.257 C 
HETATM   15  N3  UNL     1      13.275 -12.884  21.180  1.00  0.00    -0.064 N 
HETATM   16  C7  UNL     1      12.119 -13.099  22.018  1.00  0.00     0.237 C 
HETATM   17  C11 UNL     1      12.936 -11.799  20.277  1.00  0.00     0.237 C 
HETATM   18  C12 UNL     1      14.469 -12.607  21.911  1.00  0.00     0.257 C 
HETATM   19  C8  UNL     1      11.692 -11.930  22.806  1.00  0.00     0.028 C 
HETATM   20  C9  UNL     1      11.896 -10.596  22.218  1.00  0.00     0.003 C 
HETATM   21  C10 UNL     1      12.843 -10.517  21.063  1.00  0.00     0.028 C 
ATOM     22  H1  UNL     1      17.463 -15.057  22.926  1.00  0.00     0.166 HD
ENDBRANCH   3   8
TORSDOF 1
ENDMDL
MODEL 4
REMARK VINA RESULT: -6.408301244      2.408      7.190
REMARK  1 active torsions:
REMARK  status: ('A' for Active; 'I' for Inactive)
REMARK    1  A    between atoms: C3_3  and  N1_4 
REMARK       I    between atoms: N1_4  and  C4_6 
REMARK       I    between atoms: C4_6  and  N2_8 
ROOT
HETATM    1  C1  UNL     1      13.818 -10.451  21.866  1.00  0.00     0.015 C 
HETATM    2  C2  UNL     1      13.777 -11.653  21.785  1.00  0.00    -0.083 C 
HETATM    3  C3  UNL     1      13.705 -13.115  21.696  1.00  0.00     0.128 C 
HETATM    4  C14 UNL     1      12.363 -13.591  22.269  1.00  0.00     0.050 C 
HETATM    5  C15 UNL     1      12.286 -14.541  21.090  1.00  0.00     0.044 C 
HETATM    6  C16 UNL     1      13.214 -13.600  20.350  1.00  0.00     0.210 C 
HETATM    7  F1  UNL     1      14.170 -14.220  19.574  1.00  0.00    -0.246 F 
ENDROOT
BRANCH   3   8
HETATM    8  N1  UNL     1      14.814 -13.825  22.241  1.00  0.00    -0.320 N 
HETATM    9  C4  UNL     1      16.139 -13.517  21.872  1.00  0.00     0.319 C 
HETATM   10  O1  UNL     1      16.331 -12.594  21.042  1.00  0.00    -0.247 OA
HETATM   11  N2  UNL     1      17.265 -14.232  22.420  1.00  0.00    -0.331 N 
HETATM   12  C5  UNL     1      18.619 -13.903  22.030  1.00  0.00     0.155 C 
HETATM   13  C13 UNL     1      17.087 -15.301  23.379  1.00  0.00     0.155 C 
HETATM   14  C6  UNL     1      19.507 -14.202  23.217  1.00  0.00     0.257 C 
HETATM   15  N3  UNL     1      19.524 -15.624  23.536  1.00  0.00    -0.064 N 
HETATM   16  C7  UNL     1      19.920 -15.737  24.921  1.00  0.00     0.237 C 
HETATM   17  C11 UNL     1      20.596 -16.209  22.750  1.00  0.00     0.237 C 
HETATM   18  C12 UNL     1      18.266 -16.234  23.249  1.00  0.00     0.257 C 
HETATM   19  C8  UNL     1      20.169 -17.111  25.389  1.00  0.00     0.028 C 
HETATM   20  C9  UNL     1      20.714 -18.077  24.422  1.00  0.00     0.003 C 
HETATM   21  C10 UNL     1      20.615 -17.698  22.979  1.00  0.00     0.028 C 
ATOM     22  H1  UNL     1      14.644 -14.572  22.914  1.00  0.00     0.166 HD
ENDBRANCH   3   8
TORSDOF 1
ENDMDL
MODEL 5
REMARK VINA RESULT: -6.402385871      2.506      7.142
REMARK  1 active torsions:
REMARK  status: ('A' for Active; 'I' for Inactive)
REMARK    1  A    between atoms: C3_3  and  N1_4 
REMARK       I    between atoms: N1_4  and  C4_6 
REMARK       I    between atoms: C4_6  and  N2_8 
ROOT
HETATM    1  C1  UNL     1      12.086 -15.838  19.987  1.00  0.00     0.015 C 
HETATM    2  C2  UNL     1      12.679 -14.889  20.435  1.00  0.00    -0.083 C 
HETATM    3  C3  UNL     1      13.399 -13.724  20.957  1.00  0.00     0.128 C 
HETATM    4  C14 UNL     1      13.602 -12.706  19.826  1.00  0.00     0.050 C 
HETATM    5  C15 UNL     1      13.222 -11.634  20.829  1.00  0.00     0.044 C 
HETATM    6  C16 UNL     1      12.484 -12.707  21.603  1.00  0.00     0.210 C 
HETATM    7  F1  UNL     1      12.598 -12.614  22.973  1.00  0.00    -0.246 F 
ENDROOT
BRANCH   3   8
HETATM    8  N1  UNL     1      14.605 -14.005  21.661  1.00  0.00    -0.320 N 
HETATM    9  C4  UNL     1      15.677 -14.683  21.046  1.00  0.00     0.319 C 
HETATM   10  O1  UNL     1      15.551 -15.043  19.848  1.00  0.00    -0.247 OA
HETATM   11  N2  UNL     1      16.900 -14.970  21.753  1.00  0.00    -0.331 N 
HETATM   12  C5  UNL     1      17.990 -15.668  21.106  1.00  0.00     0.155 C 
HETATM   13  C13 UNL     1      17.086 -14.573  23.132  1.00  0.00     0.155 C 
HETATM   14  C6  UNL     1      19.272 -15.163  21.730  1.00  0.00     0.257 C 
HETATM   15  N3  UNL     1      19.362 -15.515  23.142  1.00  0.00    -0.064 N 
HETATM   16  C7  UNL     1      20.282 -14.581  23.747  1.00  0.00     0.237 C 
HETATM   17  C11 UNL     1      19.999 -16.819  23.199  1.00  0.00     0.237 C 
HETATM   18  C12 UNL     1      18.074 -15.530  23.755  1.00  0.00     0.257 C 
HETATM   19  C8  UNL     1      20.647 -14.879  25.143  1.00  0.00     0.028 C 
HETATM   20  C9  UNL     1      20.714 -16.293  25.547  1.00  0.00     0.003 C 
HETATM   21  C10 UNL     1      20.051 -17.275  24.635  1.00  0.00     0.028 C 
ATOM     22  H1  UNL     1      14.695 -13.708  22.633  1.00  0.00     0.166 HD
ENDBRANCH   3   8
TORSDOF 1
ENDMDL
