MODEL 1
REMARK VINA RESULT: -4.287812338      0.000      0.000
REMARK  1 active torsions:
REMARK  status: ('A' for Active; 'I' for Inactive)
REMARK    1  A    between atoms: C4_6  and  O1_7 
ROOT
HETATM    1  C1  UNL     1      13.736 -12.647  19.850  1.00  0.00     0.013 C 
HETATM    2  C2  UNL     1      14.441 -12.222  21.133  1.00  0.00     0.017 C 
HETATM    3  C3  UNL     1      14.402 -13.424  22.054  1.00  0.00     0.141 C 
HETATM    4  N1  UNL     1      13.201 -13.204  22.834  1.00  0.00    -0.137 NA
HETATM    5  N2  UNL     1      12.628 -11.972  22.519  1.00  0.00    -0.285 N 
HETATM    6  C4  UNL     1      11.427 -11.606  22.794  1.00  0.00     0.238 C 
HETATM    7  C5  UNL     1      13.620 -11.151  21.820  1.00  0.00     0.151 C 
ENDROOT
BRANCH   6   8
HETATM    8  O1  UNL     1      10.592 -12.485  23.463  1.00  0.00    -0.355 OA
ATOM      9  H1  UNL     1      10.296 -12.265  24.338  1.00  0.00     0.218 HD
ENDBRANCH   6   8
TORSDOF 1
ENDMDL
MODEL 2
REMARK VINA RESULT: -4.254042764      2.072      3.213
REMARK  1 active torsions:
REMARK  status: ('A' for Active; 'I' for Inactive)
REMARK    1  A    between atoms: C4_6  and  O1_7 
ROOT
HETATM    1  C1  UNL     1      12.360 -10.082  23.262  1.00  0.00     0.013 C 
HETATM    2  C2  UNL     1      11.717 -11.136  22.365  1.00  0.00     0.017 C 
HETATM    3  C3  UNL     1      11.494 -12.353  23.237  1.00  0.00     0.141 C 
HETATM    4  N1  UNL     1      12.694 -13.138  23.024  1.00  0.00    -0.137 NA
HETATM    5  N2  UNL     1      13.506 -12.542  22.059  1.00  0.00    -0.285 N 
HETATM    6  C4  UNL     1      14.748 -12.803  21.854  1.00  0.00     0.238 C 
HETATM    7  C5  UNL     1      12.715 -11.564  21.309  1.00  0.00     0.151 C 
ENDROOT
BRANCH   6   8
HETATM    8  O1  UNL     1      15.375 -13.755  22.640  1.00  0.00    -0.355 OA
ATOM      9  H1  UNL     1      15.559 -13.554  23.549  1.00  0.00     0.218 HD
ENDBRANCH   6   8
TORSDOF 1
ENDMDL
MODEL 3
REMARK VINA RESULT: -4.185731030      1.544      2.283
REMARK  1 active torsions:
REMARK  status: ('A' for Active; 'I' for Inactive)
REMARK    1  A    between atoms: C4_6  and  O1_7 
ROOT
HETATM    1  C1  UNL     1      14.202 -12.500  21.986  1.00  0.00     0.013 C 
HETATM    2  C2  UNL     1      12.891 -12.308  21.230  1.00  0.00     0.017 C 
HETATM    3  C3  UNL     1      12.602 -10.822  21.256  1.00  0.00     0.141 C 
HETATM    4  N1  UNL     1      11.762 -10.668  22.426  1.00  0.00    -0.137 NA
HETATM    5  N2  UNL     1      11.471 -11.910  22.990  1.00  0.00    -0.285 N 
HETATM    6  C4  UNL     1      11.017 -12.113  24.176  1.00  0.00     0.238 C 
HETATM    7  C5  UNL     1      11.768 -12.959  22.010  1.00  0.00     0.151 C 
ENDROOT
BRANCH   6   8
HETATM    8  O1  UNL     1      10.779 -11.027  25.000  1.00  0.00    -0.355 OA
ATOM      9  H1  UNL     1      11.286 -10.933  25.798  1.00  0.00     0.218 HD
ENDBRANCH   6   8
TORSDOF 1
ENDMDL
MODEL 4
REMARK VINA RESULT: -4.011211569      3.164      3.895
REMARK  1 active torsions:
REMARK  status: ('A' for Active; 'I' for Inactive)
REMARK    1  A    between atoms: C4_6  and  O1_7 
ROOT
HETATM    1  C1  UNL     1      12.455 -13.425  21.219  1.00  0.00     0.013 C 
HETATM    2  C2  UNL     1      13.404 -12.807  22.240  1.00  0.00     0.017 C 
HETATM    3  C3  UNL     1      13.440 -11.323  21.939  1.00  0.00     0.141 C 
HETATM    4  N1  UNL     1      14.575 -11.194  21.048  1.00  0.00    -0.137 NA
HETATM    5  N2  UNL     1      15.229 -12.418  20.903  1.00  0.00    -0.285 N 
HETATM    6  C4  UNL     1      16.067 -12.721  19.976  1.00  0.00     0.238 C 
HETATM    7  C5  UNL     1      14.808 -13.313  21.984  1.00  0.00     0.151 C 
ENDROOT
BRANCH   6   8
HETATM    8  O1  UNL     1      16.377 -11.774  19.014  1.00  0.00    -0.355 OA
ATOM      9  H1  UNL     1      16.255 -11.991  18.098  1.00  0.00     0.218 HD
ENDBRANCH   6   8
TORSDOF 1
ENDMDL
MODEL 5
REMARK VINA RESULT: -3.960192346      2.155      2.591
REMARK  1 active torsions:
REMARK  status: ('A' for Active; 'I' for Inactive)
REMARK    1  A    between atoms: C4_6  and  O1_7 
ROOT
HETATM    1  C1  UNL     1      15.360 -13.554  22.013  1.00  0.00     0.013 C 
HETATM    2  C2  UNL     1      13.923 -14.045  21.874  1.00  0.00     0.017 C 
HETATM    3  C3  UNL     1      13.633 -14.089  20.388  1.00  0.00     0.141 C 
HETATM    4  N1  UNL     1      13.043 -12.791  20.128  1.00  0.00    -0.137 NA
HETATM    5  N2  UNL     1      12.883 -12.076  21.314  1.00  0.00    -0.285 N 
HETATM    6  C4  UNL     1      12.677 -10.810  21.411  1.00  0.00     0.238 C 
HETATM    7  C5  UNL     1      12.985 -13.002  22.445  1.00  0.00     0.151 C 
ENDROOT
BRANCH   6   8
HETATM    8  O1  UNL     1      12.602 -10.051  20.255  1.00  0.00    -0.355 OA
ATOM      9  H1  UNL     1      12.448 -10.488  19.426  1.00  0.00     0.218 HD
ENDBRANCH   6   8
TORSDOF 1
ENDMDL
