MODEL 1
REMARK VINA RESULT: -5.190383330      0.000      0.000
REMARK  1 active torsions:
REMARK  status: ('A' for Active; 'I' for Inactive)
REMARK    1  A    between atoms: C3_3  and  C4_4 
ROOT
HETATM    1  C1  UNL     1      11.478  -8.613  25.062  1.00  0.00     0.012 C 
HETATM    2  C2  UNL     1      11.284  -9.698  24.567  1.00  0.00    -0.117 C 
HETATM    3  C3  UNL     1      11.057 -11.024  23.974  1.00  0.00     0.102 C 
ENDROOT
BRANCH   3   4
HETATM    4  C4  UNL     1      12.279 -11.294  23.086  1.00  0.00     0.035 C 
HETATM    5  C5  UNL     1      12.360 -12.801  22.933  1.00  0.00     0.012 C 
HETATM    6  C6  UNL     1      13.588 -13.012  22.037  1.00  0.00     0.020 C 
HETATM    7  C7  UNL     1      13.216 -12.459  20.705  1.00  0.00     0.118 C 
HETATM    8  N1  UNL     1      12.815 -11.107  20.678  1.00  0.00    -0.402 N 
HETATM    9  C8  UNL     1      12.147 -10.578  21.801  1.00  0.00     0.061 C 
ATOM     10  H1  UNL     1      13.004 -10.524  19.863  1.00  0.00     0.158 HD
ENDBRANCH   3   4
TORSDOF 1
ENDMDL
MODEL 2
REMARK VINA RESULT: -4.930469918      1.062      1.618
REMARK  1 active torsions:
REMARK  status: ('A' for Active; 'I' for Inactive)
REMARK    1  A    between atoms: C3_3  and  C4_4 
ROOT
HETATM    1  C1  UNL     1      11.419  -8.530  25.019  1.00  0.00     0.012 C 
HETATM    2  C2  UNL     1      11.286  -9.709  24.789  1.00  0.00    -0.117 C 
HETATM    3  C3  UNL     1      11.137 -11.144  24.509  1.00  0.00     0.102 C 
ENDROOT
BRANCH   3   4
HETATM    4  C4  UNL     1      11.391 -11.300  23.004  1.00  0.00     0.035 C 
HETATM    5  C5  UNL     1      12.693 -10.574  22.721  1.00  0.00     0.012 C 
HETATM    6  C6  UNL     1      12.899 -10.766  21.213  1.00  0.00     0.020 C 
HETATM    7  C7  UNL     1      13.162 -12.220  21.022  1.00  0.00     0.118 C 
HETATM    8  N1  UNL     1      12.170 -13.102  21.499  1.00  0.00    -0.402 N 
HETATM    9  C8  UNL     1      11.422 -12.729  22.633  1.00  0.00     0.061 C 
ATOM     10  H1  UNL     1      11.998 -13.992  21.032  1.00  0.00     0.158 HD
ENDBRANCH   3   4
TORSDOF 1
ENDMDL
MODEL 3
REMARK VINA RESULT: -4.891398765      1.354      1.633
REMARK  1 active torsions:
REMARK  status: ('A' for Active; 'I' for Inactive)
REMARK    1  A    between atoms: C3_3  and  C4_4 
ROOT
HETATM    1  C1  UNL     1      11.096 -10.021  24.668  1.00  0.00     0.012 C 
HETATM    2  C2  UNL     1      11.319 -10.685  23.683  1.00  0.00    -0.117 C 
HETATM    3  C3  UNL     1      11.591 -11.503  22.492  1.00  0.00     0.102 C 
ENDROOT
BRANCH   3   4
HETATM    4  C4  UNL     1      13.112 -11.697  22.465  1.00  0.00     0.035 C 
HETATM    5  C5  UNL     1      13.347 -13.089  21.907  1.00  0.00     0.012 C 
HETATM    6  C6  UNL     1      14.875 -13.226  21.896  1.00  0.00     0.020 C 
HETATM    7  C7  UNL     1      15.360 -12.260  20.872  1.00  0.00     0.118 C 
HETATM    8  N1  UNL     1      14.990 -10.912  21.057  1.00  0.00    -0.402 N 
HETATM    9  C8  UNL     1      13.752 -10.630  21.668  1.00  0.00     0.061 C 
ATOM     10  H1  UNL     1      15.605 -10.157  20.755  1.00  0.00     0.158 HD
ENDBRANCH   3   4
TORSDOF 1
ENDMDL
MODEL 4
REMARK VINA RESULT: -4.673364363      1.884      4.246
REMARK  1 active torsions:
REMARK  status: ('A' for Active; 'I' for Inactive)
REMARK    1  A    between atoms: C3_3  and  C4_4 
ROOT
HETATM    1  C1  UNL     1      13.823 -12.693  20.216  1.00  0.00     0.012 C 
HETATM    2  C2  UNL     1      12.926 -12.887  21.003  1.00  0.00    -0.117 C 
HETATM    3  C3  UNL     1      11.829 -13.113  21.955  1.00  0.00     0.102 C 
ENDROOT
BRANCH   3   4
HETATM    4  C4  UNL     1      12.052 -12.104  23.088  1.00  0.00     0.035 C 
HETATM    5  C5  UNL     1      11.748 -10.739  22.500  1.00  0.00     0.012 C 
HETATM    6  C6  UNL     1      11.980  -9.775  23.672  1.00  0.00     0.020 C 
HETATM    7  C7  UNL     1      10.904 -10.072  24.658  1.00  0.00     0.118 C 
HETATM    8  N1  UNL     1      10.831 -11.402  25.123  1.00  0.00    -0.402 N 
HETATM    9  C8  UNL     1      11.207 -12.444  24.252  1.00  0.00     0.061 C 
ATOM     10  H1  UNL     1      10.512 -11.605  26.070  1.00  0.00     0.158 HD
ENDBRANCH   3   4
TORSDOF 1
ENDMDL
MODEL 5
REMARK VINA RESULT: -4.583783225      1.729      2.477
REMARK  1 active torsions:
REMARK  status: ('A' for Active; 'I' for Inactive)
REMARK    1  A    between atoms: C3_3  and  C4_4 
ROOT
HETATM    1  C1  UNL     1      10.993 -10.316  24.366  1.00  0.00     0.012 C 
HETATM    2  C2  UNL     1      11.672 -10.558  23.395  1.00  0.00    -0.117 C 
HETATM    3  C3  UNL     1      12.486 -10.851  22.208  1.00  0.00     0.102 C 
ENDROOT
BRANCH   3   4
HETATM    4  C4  UNL     1      12.195 -12.316  21.859  1.00  0.00     0.035 C 
HETATM    5  C5  UNL     1      13.160 -12.682  20.746  1.00  0.00     0.012 C 
HETATM    6  C6  UNL     1      12.830 -14.150  20.444  1.00  0.00     0.020 C 
HETATM    7  C7  UNL     1      13.250 -14.915  21.651  1.00  0.00     0.118 C 
HETATM    8  N1  UNL     1      12.668 -14.523  22.874  1.00  0.00    -0.402 N 
HETATM    9  C8  UNL     1      12.334 -13.166  23.059  1.00  0.00     0.061 C 
ATOM     10  H1  UNL     1      12.492 -15.207  23.610  1.00  0.00     0.158 HD
ENDBRANCH   3   4
TORSDOF 1
ENDMDL
