MODEL 1
REMARK VINA RESULT: -4.248315047      0.000      0.000
REMARK  1 active torsions:
REMARK  status: ('A' for Active; 'I' for Inactive)
REMARK    1  A    between atoms: N1_7  and  C7_8 
ROOT
HETATM    1  C1  UNL     1      12.807 -15.022  20.566  1.00  0.00     0.011 C 
HETATM    2  C2  UNL     1      12.481 -13.656  21.065  1.00  0.00     0.001 C 
HETATM    3  C3  UNL     1      13.282 -12.568  20.322  1.00  0.00     0.026 C 
HETATM    4  C4  UNL     1      14.111 -12.090  21.497  1.00  0.00     0.067 C 
HETATM    5  C5  UNL     1      14.551 -13.371  22.128  1.00  0.00     0.040 C 
HETATM    6  C6  UNL     1      13.048 -13.444  22.438  1.00  0.00     0.071 C 
HETATM    7  N1  UNL     1      13.149 -12.011  22.609  1.00  0.00    -0.251 NA
ENDROOT
BRANCH   7   8
HETATM    8  C7  UNL     1      12.007 -11.254  22.368  1.00  0.00     0.324 C 
HETATM    9  O1  UNL     1      11.216 -11.053  23.258  1.00  0.00    -0.289 OA
ENDBRANCH   7   8
TORSDOF 1
ENDMDL
MODEL 2
REMARK VINA RESULT: -4.247659995      2.332      3.145
REMARK  1 active torsions:
REMARK  status: ('A' for Active; 'I' for Inactive)
REMARK    1  A    between atoms: N1_7  and  C7_8 
ROOT
HETATM    1  C1  UNL     1      11.870 -11.908  23.172  1.00  0.00     0.011 C 
HETATM    2  C2  UNL     1      13.136 -11.775  22.397  1.00  0.00     0.001 C 
HETATM    3  C3  UNL     1      12.880 -11.274  20.961  1.00  0.00     0.026 C 
HETATM    4  C4  UNL     1      13.329 -12.523  20.230  1.00  0.00     0.067 C 
HETATM    5  C5  UNL     1      12.679 -13.614  21.017  1.00  0.00     0.040 C 
HETATM    6  C6  UNL     1      13.696 -13.126  22.059  1.00  0.00     0.071 C 
HETATM    7  N1  UNL     1      14.565 -12.922  20.922  1.00  0.00    -0.251 NA
ENDROOT
BRANCH   7   8
HETATM    8  C7  UNL     1      15.544 -11.938  21.029  1.00  0.00     0.324 C 
HETATM    9  O1  UNL     1      16.196 -11.627  20.062  1.00  0.00    -0.289 OA
ENDBRANCH   7   8
TORSDOF 1
ENDMDL
MODEL 3
REMARK VINA RESULT: -4.208721897      2.515      3.125
REMARK  1 active torsions:
REMARK  status: ('A' for Active; 'I' for Inactive)
REMARK    1  A    between atoms: N1_7  and  C7_8 
ROOT
HETATM    1  C1  UNL     1      12.514 -14.718  20.558  1.00  0.00     0.011 C 
HETATM    2  C2  UNL     1      13.760 -13.901  20.612  1.00  0.00     0.001 C 
HETATM    3  C3  UNL     1      14.141 -13.531  22.060  1.00  0.00     0.026 C 
HETATM    4  C4  UNL     1      13.941 -12.033  21.942  1.00  0.00     0.067 C 
HETATM    5  C5  UNL     1      12.640 -11.932  21.216  1.00  0.00     0.040 C 
HETATM    6  C6  UNL     1      13.509 -12.516  20.092  1.00  0.00     0.071 C 
HETATM    7  N1  UNL     1      14.554 -11.687  20.650  1.00  0.00    -0.251 NA
ENDROOT
BRANCH   7   8
HETATM    8  C7  UNL     1      15.869 -12.105  20.472  1.00  0.00     0.324 C 
HETATM    9  O1  UNL     1      16.439 -11.886  19.430  1.00  0.00    -0.289 OA
ENDBRANCH   7   8
TORSDOF 1
ENDMDL
MODEL 4
REMARK VINA RESULT: -3.996988388      2.141      3.144
REMARK  1 active torsions:
REMARK  status: ('A' for Active; 'I' for Inactive)
REMARK    1  A    between atoms: N1_7  and  C7_8 
ROOT
HETATM    1  C1  UNL     1      11.647 -10.864  22.709  1.00  0.00     0.011 C 
HETATM    2  C2  UNL     1      12.911 -11.554  22.325  1.00  0.00     0.001 C 
HETATM    3  C3  UNL     1      13.014 -11.757  20.800  1.00  0.00     0.026 C 
HETATM    4  C4  UNL     1      12.952 -13.271  20.795  1.00  0.00     0.067 C 
HETATM    5  C5  UNL     1      11.836 -13.556  21.748  1.00  0.00     0.040 C 
HETATM    6  C6  UNL     1      12.872 -12.997  22.735  1.00  0.00     0.071 C 
HETATM    7  N1  UNL     1      13.839 -13.673  21.898  1.00  0.00    -0.251 NA
ENDROOT
BRANCH   7   8
HETATM    8  C7  UNL     1      15.129 -13.153  21.858  1.00  0.00     0.324 C 
HETATM    9  O1  UNL     1      16.000 -13.642  22.536  1.00  0.00    -0.289 OA
ENDBRANCH   7   8
TORSDOF 1
ENDMDL
MODEL 5
REMARK VINA RESULT: -3.990236308      1.522      1.531
REMARK  1 active torsions:
REMARK  status: ('A' for Active; 'I' for Inactive)
REMARK    1  A    between atoms: N1_7  and  C7_8 
ROOT
HETATM    1  C1  UNL     1      12.506 -15.055  20.591  1.00  0.00     0.011 C 
HETATM    2  C2  UNL     1      12.837 -13.622  20.835  1.00  0.00     0.001 C 
HETATM    3  C3  UNL     1      13.982 -13.134  19.925  1.00  0.00     0.026 C 
HETATM    4  C4  UNL     1      15.008 -12.881  21.011  1.00  0.00     0.067 C 
HETATM    5  C5  UNL     1      14.888 -14.101  21.865  1.00  0.00     0.040 C 
HETATM    6  C6  UNL     1      13.525 -13.456  22.159  1.00  0.00     0.071 C 
HETATM    7  N1  UNL     1      14.247 -12.206  22.076  1.00  0.00    -0.251 NA
ENDROOT
BRANCH   7   8
HETATM    8  C7  UNL     1      13.534 -11.076  21.687  1.00  0.00     0.324 C 
HETATM    9  O1  UNL     1      14.119 -10.055  21.414  1.00  0.00    -0.289 OA
ENDBRANCH   7   8
TORSDOF 1
ENDMDL
