MODEL 1
REMARK VINA RESULT: -4.047680107      0.000      0.000
REMARK  1 active torsions:
REMARK  status: ('A' for Active; 'I' for Inactive)
REMARK    1  A    between atoms: C3_3  and  S1_4 
ROOT
HETATM    1  C1  UNL     1      44.039  21.903  51.079  1.00  0.00     0.012 C 
HETATM    2  C2  UNL     1      44.655  21.626  52.080  1.00  0.00    -0.108 C 
HETATM    3  C3  UNL     1      45.429  21.279  53.294  1.00  0.00     0.159 C 
ENDROOT
BRANCH   3   4
HETATM    4  S1  UNL     1      46.075  19.650  53.055  1.00  0.00    -0.158 SA
HETATM    5  C4  UNL     1      44.894  18.448  52.542  1.00  0.00     0.299 C 
HETATM    6  N1  UNL     1      45.610  17.478  53.386  1.00  0.00    -0.060 N 
HETATM    7  C5  UNL     1      45.662  18.553  54.392  1.00  0.00     0.299 C 
ATOM      8  H12 UNL     1      45.219  16.560  53.600  1.00  0.00     0.278 HD
ATOM      9  H11 UNL     1      46.452  17.002  53.063  1.00  0.00     0.278 HD
ENDBRANCH   3   4
TORSDOF 1
ENDMDL
MODEL 2
REMARK VINA RESULT: -3.882297476      2.452      3.865
REMARK  1 active torsions:
REMARK  status: ('A' for Active; 'I' for Inactive)
REMARK    1  A    between atoms: C3_3  and  S1_4 
ROOT
HETATM    1  C1  UNL     1      45.420  17.960  54.029  1.00  0.00     0.012 C 
HETATM    2  C2  UNL     1      45.778  18.970  53.471  1.00  0.00    -0.108 C 
HETATM    3  C3  UNL     1      46.197  20.221  52.799  1.00  0.00     0.159 C 
ENDROOT
BRANCH   3   4
HETATM    4  S1  UNL     1      44.745  20.958  52.110  1.00  0.00    -0.158 SA
HETATM    5  C4  UNL     1      44.066  20.111  50.723  1.00  0.00     0.299 C 
HETATM    6  N1  UNL     1      43.735  21.430  50.160  1.00  0.00    -0.060 N 
HETATM    7  C5  UNL     1      45.080  21.837  50.601  1.00  0.00     0.299 C 
ATOM      8  H12 UNL     1      43.430  21.541  49.193  1.00  0.00     0.278 HD
ATOM      9  H11 UNL     1      42.899  21.941  50.444  1.00  0.00     0.278 HD
ENDBRANCH   3   4
TORSDOF 1
ENDMDL
MODEL 3
REMARK VINA RESULT: -3.795262004      2.259      3.633
REMARK  1 active torsions:
REMARK  status: ('A' for Active; 'I' for Inactive)
REMARK    1  A    between atoms: C3_3  and  S1_4 
ROOT
HETATM    1  C1  UNL     1      45.629  18.226  54.034  1.00  0.00     0.012 C 
HETATM    2  C2  UNL     1      45.654  19.399  53.745  1.00  0.00    -0.108 C 
HETATM    3  C3  UNL     1      45.664  20.833  53.377  1.00  0.00     0.159 C 
ENDROOT
BRANCH   3   4
HETATM    4  S1  UNL     1      45.376  20.930  51.636  1.00  0.00    -0.158 SA
HETATM    5  C4  UNL     1      43.918  21.803  51.169  1.00  0.00     0.299 C 
HETATM    6  N1  UNL     1      43.754  20.821  50.085  1.00  0.00    -0.060 N 
HETATM    7  C5  UNL     1      44.107  19.807  51.094  1.00  0.00     0.299 C 
ATOM      8  H12 UNL     1      42.894  20.759  49.541  1.00  0.00     0.278 HD
ATOM      9  H11 UNL     1      44.262  20.903  49.204  1.00  0.00     0.278 HD
ENDBRANCH   3   4
TORSDOF 1
ENDMDL
MODEL 4
REMARK VINA RESULT: -3.764977457      1.331      1.713
REMARK  1 active torsions:
REMARK  status: ('A' for Active; 'I' for Inactive)
REMARK    1  A    between atoms: C3_3  and  S1_4 
ROOT
HETATM    1  C1  UNL     1      44.803  23.078  50.252  1.00  0.00     0.012 C 
HETATM    2  C2  UNL     1      45.415  22.413  51.052  1.00  0.00    -0.108 C 
HETATM    3  C3  UNL     1      46.158  21.575  52.022  1.00  0.00     0.159 C 
ENDROOT
BRANCH   3   4
HETATM    4  S1  UNL     1      45.047  20.325  52.595  1.00  0.00    -0.158 SA
HETATM    5  C4  UNL     1      45.809  18.978  53.437  1.00  0.00     0.299 C 
HETATM    6  N1  UNL     1      44.812  18.101  52.801  1.00  0.00    -0.060 N 
HETATM    7  C5  UNL     1      45.075  18.870  51.573  1.00  0.00     0.299 C 
ATOM      8  H12 UNL     1      44.897  17.085  52.828  1.00  0.00     0.278 HD
ATOM      9  H11 UNL     1      43.871  17.995  53.179  1.00  0.00     0.278 HD
ENDBRANCH   3   4
TORSDOF 1
ENDMDL
MODEL 5
REMARK VINA RESULT: -3.732893236      2.519      4.006
REMARK  1 active torsions:
REMARK  status: ('A' for Active; 'I' for Inactive)
REMARK    1  A    between atoms: C3_3  and  S1_4 
ROOT
HETATM    1  C1  UNL     1      45.629  18.218  54.099  1.00  0.00     0.012 C 
HETATM    2  C2  UNL     1      45.281  18.605  53.008  1.00  0.00    -0.108 C 
HETATM    3  C3  UNL     1      44.872  19.097  51.673  1.00  0.00     0.159 C 
ENDROOT
BRANCH   3   4
HETATM    4  S1  UNL     1      44.629  20.843  51.810  1.00  0.00    -0.158 SA
HETATM    5  C4  UNL     1      45.117  21.777  50.398  1.00  0.00     0.299 C 
HETATM    6  N1  UNL     1      45.576  22.822  51.327  1.00  0.00    -0.060 N 
HETATM    7  C5  UNL     1      46.146  21.718  52.119  1.00  0.00     0.299 C 
ATOM      8  H12 UNL     1      46.145  23.608  51.014  1.00  0.00     0.278 HD
ATOM      9  H11 UNL     1      44.931  23.499  51.735  1.00  0.00     0.278 HD
ENDBRANCH   3   4
TORSDOF 1
ENDMDL
