MODEL 1
REMARK VINA RESULT: -3.973918098      0.000      0.000
REMARK  1 active torsions:
REMARK  status: ('A' for Active; 'I' for Inactive)
REMARK    1  A    between atoms: C2_2  and  N1_3 
ROOT
HETATM    1  N1  UNL     1      45.089  20.487  52.063  1.00  0.00    -0.031 N 
HETATM    2  C3  UNL     1      44.597  19.480  51.119  1.00  0.00     0.276 C 
HETATM    3  C4  UNL     1      45.598  21.688  51.453  1.00  0.00     0.276 A 
HETATM    4  C5  UNL     1      44.820  22.235  50.297  1.00  0.00     0.272 A 
HETATM    5  N2  UNL     1      43.606  22.143  51.056  1.00  0.00    -0.041 N 
ATOM      6  H21 UNL     1      42.828  21.577  50.718  1.00  0.00     0.279 HD
ATOM      7  H22 UNL     1      42.980  22.945  51.128  1.00  0.00     0.279 HD
HETATM    8  C6  UNL     1      44.376  21.718  52.191  1.00  0.00     0.419 A 
ENDROOT
BRANCH   1   9
HETATM    9  C2  UNL     1      45.785  19.918  53.184  1.00  0.00     0.236 C 
HETATM   10  C1  UNL     1      45.463  18.490  53.453  1.00  0.00     0.035 C 
ENDBRANCH   1   9
TORSDOF 1
ENDMDL
MODEL 2
REMARK VINA RESULT: -3.808519591      1.482      2.590
REMARK  1 active torsions:
REMARK  status: ('A' for Active; 'I' for Inactive)
REMARK    1  A    between atoms: C2_2  and  N1_3 
ROOT
HETATM    1  N1  UNL     1      45.291  20.687  52.434  1.00  0.00    -0.031 N 
HETATM    2  C3  UNL     1      45.641  19.745  53.500  1.00  0.00     0.276 C 
HETATM    3  C4  UNL     1      44.918  22.002  52.889  1.00  0.00     0.276 A 
HETATM    4  C5  UNL     1      45.733  22.583  54.001  1.00  0.00     0.272 A 
HETATM    5  N2  UNL     1      46.942  22.264  53.297  1.00  0.00    -0.041 N 
ATOM      6  H21 UNL     1      47.640  21.653  53.721  1.00  0.00     0.279 HD
ATOM      7  H22 UNL     1      47.661  22.974  53.156  1.00  0.00     0.279 HD
HETATM    8  C6  UNL     1      46.148  21.804  52.192  1.00  0.00     0.419 A 
ENDROOT
BRANCH   1   9
HETATM    9  C2  UNL     1      44.554  20.079  51.361  1.00  0.00     0.236 C 
HETATM   10  C1  UNL     1      44.177  18.658  51.596  1.00  0.00     0.035 C 
ENDBRANCH   1   9
TORSDOF 1
ENDMDL
MODEL 3
REMARK VINA RESULT: -3.744005818      1.096      1.712
REMARK  1 active torsions:
REMARK  status: ('A' for Active; 'I' for Inactive)
REMARK    1  A    between atoms: C2_2  and  N1_3 
ROOT
HETATM    1  N1  UNL     1      45.085  20.623  52.150  1.00  0.00    -0.031 N 
HETATM    2  C3  UNL     1      45.533  21.084  53.467  1.00  0.00     0.276 C 
HETATM    3  C4  UNL     1      44.053  21.427  51.549  1.00  0.00     0.276 A 
HETATM    4  C5  UNL     1      44.194  22.911  51.682  1.00  0.00     0.272 A 
HETATM    5  N2  UNL     1      45.552  22.833  51.227  1.00  0.00    -0.041 N 
ATOM      6  H21 UNL     1      46.313  23.170  51.816  1.00  0.00     0.279 HD
ATOM      7  H22 UNL     1      45.880  23.437  50.474  1.00  0.00     0.279 HD
HETATM    8  C6  UNL     1      45.373  21.426  51.004  1.00  0.00     0.419 A 
ENDROOT
BRANCH   1   9
HETATM    9  C2  UNL     1      45.012  19.192  52.047  1.00  0.00     0.236 C 
HETATM   10  C1  UNL     1      45.398  18.461  53.284  1.00  0.00     0.035 C 
ENDBRANCH   1   9
TORSDOF 1
ENDMDL
MODEL 4
REMARK VINA RESULT: -3.736415597      1.181      1.683
REMARK  1 active torsions:
REMARK  status: ('A' for Active; 'I' for Inactive)
REMARK    1  A    between atoms: C2_2  and  N1_3 
ROOT
HETATM    1  N1  UNL     1      45.210  20.147  51.817  1.00  0.00    -0.031 N 
HETATM    2  C3  UNL     1      46.194  21.064  52.396  1.00  0.00     0.276 C 
HETATM    3  C4  UNL     1      43.956  20.758  51.455  1.00  0.00     0.276 A 
HETATM    4  C5  UNL     1      44.029  22.101  50.799  1.00  0.00     0.272 A 
HETATM    5  N2  UNL     1      45.007  21.608  49.872  1.00  0.00    -0.041 N 
ATOM      6  H21 UNL     1      45.929  22.041  49.816  1.00  0.00     0.279 HD
ATOM      7  H22 UNL     1      44.887  21.751  48.870  1.00  0.00     0.279 HD
HETATM    8  C6  UNL     1      44.852  20.298  50.443  1.00  0.00     0.419 A 
ENDROOT
BRANCH   1   9
HETATM    9  C2  UNL     1      45.207  18.853  52.440  1.00  0.00     0.236 C 
HETATM   10  C1  UNL     1      45.852  18.809  53.781  1.00  0.00     0.035 C 
ENDBRANCH   1   9
TORSDOF 1
ENDMDL
MODEL 5
REMARK VINA RESULT: -3.645761435      1.499      2.627
REMARK  1 active torsions:
REMARK  status: ('A' for Active; 'I' for Inactive)
REMARK    1  A    between atoms: C2_2  and  N1_3 
ROOT
HETATM    1  N1  UNL     1      45.074  21.207  52.068  1.00  0.00    -0.031 N 
HETATM    2  C3  UNL     1      44.107  22.307  52.043  1.00  0.00     0.276 C 
HETATM    3  C4  UNL     1      46.418  21.593  52.414  1.00  0.00     0.276 A 
HETATM    4  C5  UNL     1      46.567  22.588  53.522  1.00  0.00     0.272 A 
HETATM    5  N2  UNL     1      45.690  21.813  54.351  1.00  0.00    -0.041 N 
ATOM      6  H21 UNL     1      44.831  22.222  54.718  1.00  0.00     0.279 HD
ATOM      7  H22 UNL     1      45.965  21.561  55.300  1.00  0.00     0.279 HD
HETATM    8  C6  UNL     1      45.637  20.813  53.321  1.00  0.00     0.419 A 
ENDROOT
BRANCH   1   9
HETATM    9  C2  UNL     1      44.866  20.246  51.021  1.00  0.00     0.236 C 
HETATM   10  C1  UNL     1      44.202  18.987  51.457  1.00  0.00     0.035 C 
ENDBRANCH   1   9
TORSDOF 1
ENDMDL
