MODEL 1
REMARK VINA RESULT: -3.722603413      0.000      0.000
REMARK  3 active torsions:
REMARK  status: ('A' for Active; 'I' for Inactive)
REMARK    1  A    between atoms: C2_2  and  C3_3 
REMARK    2  A    between atoms: C4_4  and  C5_5 
REMARK    3  A    between atoms: C5_5  and  N1_6 
ROOT
HETATM    1  C3  UNL     1      44.674  21.528  50.644  1.00  0.00    -0.078 C 
HETATM    2  C4  UNL     1      44.550  20.399  51.065  1.00  0.00    -0.072 C 
ENDROOT
BRANCH   2   3
HETATM    3  C5  UNL     1      44.383  19.039  51.588  1.00  0.00     0.366 C 
BRANCH   3   4
HETATM    4  N1  UNL     1      45.583  18.745  52.349  1.00  0.00     0.102 N 
HETATM    5  C6  UNL     1      45.299  18.098  53.635  1.00  0.00     0.303 A 
HETATM    6  C7  UNL     1      45.815  19.472  53.577  1.00  0.00     0.303 A 
ENDBRANCH   3   4
ENDBRANCH   2   3
BRANCH   1   7
HETATM    7  C2  UNL     1      44.799  22.872  50.149  1.00  0.00     0.054 C 
HETATM    8  C1  UNL     1      43.765  23.625  49.843  1.00  0.00     0.020 C 
ENDBRANCH   1   7
TORSDOF 3
ENDMDL
MODEL 2
REMARK VINA RESULT: -3.454776048      1.181      1.538
REMARK  3 active torsions:
REMARK  status: ('A' for Active; 'I' for Inactive)
REMARK    1  A    between atoms: C2_2  and  C3_3 
REMARK    2  A    between atoms: C4_4  and  C5_5 
REMARK    3  A    between atoms: C5_5  and  N1_6 
ROOT
HETATM    1  C3  UNL     1      45.267  22.379  50.949  1.00  0.00    -0.078 C 
HETATM    2  C4  UNL     1      45.774  21.674  51.793  1.00  0.00    -0.072 C 
ENDROOT
BRANCH   2   3
HETATM    3  C5  UNL     1      46.369  20.820  52.826  1.00  0.00     0.366 C 
BRANCH   3   4
HETATM    4  N1  UNL     1      45.321  19.912  53.256  1.00  0.00     0.102 N 
HETATM    5  C6  UNL     1      45.844  18.657  53.808  1.00  0.00     0.303 A 
HETATM    6  C7  UNL     1      45.132  18.681  52.524  1.00  0.00     0.303 A 
ENDBRANCH   3   4
ENDBRANCH   2   3
BRANCH   1   7
HETATM    7  C2  UNL     1      44.644  23.206  49.950  1.00  0.00     0.054 C 
HETATM    8  C1  UNL     1      43.394  23.607  50.026  1.00  0.00     0.020 C 
ENDBRANCH   1   7
TORSDOF 3
ENDMDL
MODEL 3
REMARK VINA RESULT: -3.410778896      1.475      4.535
REMARK  3 active torsions:
REMARK  status: ('A' for Active; 'I' for Inactive)
REMARK    1  A    between atoms: C2_2  and  C3_3 
REMARK    2  A    between atoms: C4_4  and  C5_5 
REMARK    3  A    between atoms: C5_5  and  N1_6 
ROOT
HETATM    1  C3  UNL     1      45.061  18.691  52.491  1.00  0.00    -0.078 C 
HETATM    2  C4  UNL     1      44.874  19.388  51.519  1.00  0.00    -0.072 C 
ENDROOT
BRANCH   2   3
HETATM    3  C5  UNL     1      44.649  20.251  50.355  1.00  0.00     0.366 C 
BRANCH   3   4
HETATM    4  N1  UNL     1      45.159  21.562  50.714  1.00  0.00     0.102 N 
HETATM    5  C6  UNL     1      44.353  22.224  51.746  1.00  0.00     0.303 A 
HETATM    6  C7  UNL     1      44.375  22.725  50.365  1.00  0.00     0.303 A 
ENDBRANCH   3   4
ENDBRANCH   2   3
BRANCH   1   7
HETATM    7  C2  UNL     1      45.295  17.880  53.656  1.00  0.00     0.054 C 
HETATM    8  C1  UNL     1      45.646  18.379  54.821  1.00  0.00     0.020 C 
ENDBRANCH   1   7
TORSDOF 3
ENDMDL
MODEL 4
REMARK VINA RESULT: -3.406246647      1.738      4.760
REMARK  3 active torsions:
REMARK  status: ('A' for Active; 'I' for Inactive)
REMARK    1  A    between atoms: C2_2  and  C3_3 
REMARK    2  A    between atoms: C4_4  and  C5_5 
REMARK    3  A    between atoms: C5_5  and  N1_6 
ROOT
HETATM    1  C3  UNL     1      45.183  19.464  52.158  1.00  0.00    -0.078 C 
HETATM    2  C4  UNL     1      45.123  20.452  51.460  1.00  0.00    -0.072 C 
ENDROOT
BRANCH   2   3
HETATM    3  C5  UNL     1      45.031  21.639  50.605  1.00  0.00     0.366 C 
BRANCH   3   4
HETATM    4  N1  UNL     1      43.651  22.084  50.672  1.00  0.00     0.102 N 
HETATM    5  C6  UNL     1      43.465  23.446  50.159  1.00  0.00     0.303 A 
HETATM    6  C7  UNL     1      43.315  23.150  51.589  1.00  0.00     0.303 A 
ENDBRANCH   3   4
ENDBRANCH   2   3
BRANCH   1   7
HETATM    7  C2  UNL     1      45.232  18.289  52.986  1.00  0.00     0.054 C 
HETATM    8  C1  UNL     1      45.653  18.303  54.231  1.00  0.00     0.020 C 
ENDBRANCH   1   7
TORSDOF 3
ENDMDL
MODEL 5
REMARK VINA RESULT: -3.400168211      1.118      1.528
REMARK  3 active torsions:
REMARK  status: ('A' for Active; 'I' for Inactive)
REMARK    1  A    between atoms: C2_2  and  C3_3 
REMARK    2  A    between atoms: C4_4  and  C5_5 
REMARK    3  A    between atoms: C5_5  and  N1_6 
ROOT
HETATM    1  C3  UNL     1      45.027  22.297  51.129  1.00  0.00    -0.078 C 
HETATM    2  C4  UNL     1      45.261  21.671  52.139  1.00  0.00    -0.072 C 
ENDROOT
BRANCH   2   3
HETATM    3  C5  UNL     1      45.523  20.908  53.363  1.00  0.00     0.366 C 
BRANCH   3   4
HETATM    4  N1  UNL     1      46.023  19.613  52.938  1.00  0.00     0.102 N 
HETATM    5  C6  UNL     1      44.986  18.773  52.329  1.00  0.00     0.303 A 
HETATM    6  C7  UNL     1      45.562  18.434  53.636  1.00  0.00     0.303 A 
ENDBRANCH   3   4
ENDBRANCH   2   3
BRANCH   1   7
HETATM    7  C2  UNL     1      44.730  23.028  49.926  1.00  0.00     0.054 C 
HETATM    8  C1  UNL     1      44.872  24.331  49.822  1.00  0.00     0.020 C 
ENDBRANCH   1   7
TORSDOF 3
ENDMDL
