MODEL 1
REMARK VINA RESULT: -4.812251974      0.000      0.000
REMARK  1 active torsions:
REMARK  status: ('A' for Active; 'I' for Inactive)
REMARK    1  A    between atoms: N1_3  and  C3_5 
ROOT
HETATM    1  C1  UNL     1      45.084  18.923  51.686  1.00  0.00     0.037 C 
HETATM    2  C2  UNL     1      44.609  20.017  51.477  1.00  0.00    -0.005 C 
HETATM    3  N1  UNL     1      44.056  21.286  51.259  1.00  0.00    -0.345 N 
ATOM      4  H1  UNL     1      43.226  21.396  50.676  1.00  0.00     0.170 HD
ENDROOT
BRANCH   3   5
HETATM    5  C3  UNL     1      44.674  22.428  51.869  1.00  0.00     0.104 C 
HETATM    6  C4  UNL     1      43.715  23.367  52.521  1.00  0.00     0.048 C 
HETATM    7  C5  UNL     1      42.521  23.700  51.668  1.00  0.00     0.062 C 
HETATM    8  C9  UNL     1      44.531  24.639  52.636  1.00  0.00     0.017 C 
HETATM    9  N2  UNL     1      42.666  23.501  50.305  1.00  0.00    -0.396 N 
HETATM   10  C6  UNL     1      43.669  24.094  49.564  1.00  0.00     0.090 A 
ATOM     11  H2  UNL     1      42.002  22.891  49.829  1.00  0.00     0.159 HD
HETATM   12  C7  UNL     1      44.644  24.963  50.142  1.00  0.00     0.019 A 
HETATM   13  C11 UNL     1      45.025  23.528  49.633  1.00  0.00     0.021 A 
HETATM   14  C8  UNL     1      45.328  24.630  51.386  1.00  0.00    -0.001 C 
HETATM   15  C10 UNL     1      45.556  23.208  50.965  1.00  0.00     0.021 C 
ENDBRANCH   3   5
TORSDOF 1
ENDMDL
MODEL 2
REMARK VINA RESULT: -4.775722219      0.853      1.256
REMARK  1 active torsions:
REMARK  status: ('A' for Active; 'I' for Inactive)
REMARK    1  A    between atoms: N1_3  and  C3_5 
ROOT
HETATM    1  C1  UNL     1      44.499  19.180  51.347  1.00  0.00     0.037 C 
HETATM    2  C2  UNL     1      44.310  20.252  50.815  1.00  0.00    -0.005 C 
HETATM    3  N1  UNL     1      44.091  21.503  50.222  1.00  0.00    -0.345 N 
ATOM      4  H1  UNL     1      43.288  21.652  49.610  1.00  0.00     0.170 HD
ENDROOT
BRANCH   3   5
HETATM    5  C3  UNL     1      45.011  22.570  50.488  1.00  0.00     0.104 C 
HETATM    6  C4  UNL     1      44.957  23.090  51.886  1.00  0.00     0.048 C 
HETATM    7  C5  UNL     1      43.560  23.349  52.380  1.00  0.00     0.062 C 
HETATM    8  C9  UNL     1      45.627  24.443  51.757  1.00  0.00     0.017 C 
HETATM    9  N2  UNL     1      42.588  23.523  51.410  1.00  0.00    -0.396 N 
HETATM   10  C6  UNL     1      42.679  24.482  50.421  1.00  0.00     0.090 A 
ATOM     11  H2  UNL     1      41.768  22.916  51.427  1.00  0.00     0.159 HD
HETATM   12  C7  UNL     1      43.787  25.377  50.315  1.00  0.00     0.019 A 
HETATM   13  C11 UNL     1      43.560  24.228  49.271  1.00  0.00     0.021 A 
HETATM   14  C8  UNL     1      45.164  24.912  50.428  1.00  0.00    -0.001 C 
HETATM   15  C10 UNL     1      44.909  23.719  49.554  1.00  0.00     0.021 C 
ENDBRANCH   3   5
TORSDOF 1
ENDMDL
MODEL 3
REMARK VINA RESULT: -4.670735816      1.404      3.588
REMARK  1 active torsions:
REMARK  status: ('A' for Active; 'I' for Inactive)
REMARK    1  A    between atoms: N1_3  and  C3_5 
ROOT
HETATM    1  C1  UNL     1      40.744  25.389  50.222  1.00  0.00     0.037 C 
HETATM    2  C2  UNL     1      41.509  24.519  50.577  1.00  0.00    -0.005 C 
HETATM    3  N1  UNL     1      42.412  23.525  50.976  1.00  0.00    -0.345 N 
ATOM      4  H1  UNL     1      42.276  22.556  50.688  1.00  0.00     0.170 HD
ENDROOT
BRANCH   3   5
HETATM    5  C3  UNL     1      43.531  23.890  51.796  1.00  0.00     0.104 C 
HETATM    6  C4  UNL     1      44.635  24.568  51.058  1.00  0.00     0.048 C 
HETATM    7  C5  UNL     1      45.016  23.880  49.775  1.00  0.00     0.062 C 
HETATM    8  C9  UNL     1      45.810  24.402  52.001  1.00  0.00     0.017 C 
HETATM    9  N2  UNL     1      44.666  22.545  49.667  1.00  0.00    -0.396 N 
HETATM   10  C6  UNL     1      45.060  21.590  50.583  1.00  0.00     0.090 A 
ATOM     11  H2  UNL     1      44.091  22.255  48.876  1.00  0.00     0.159 HD
HETATM   12  C7  UNL     1      45.864  21.901  51.722  1.00  0.00     0.019 A 
HETATM   13  C11 UNL     1      44.352  21.512  51.870  1.00  0.00     0.021 A 
HETATM   14  C8  UNL     1      45.583  23.052  52.571  1.00  0.00    -0.001 C 
HETATM   15  C10 UNL     1      44.108  22.772  52.585  1.00  0.00     0.021 C 
ENDBRANCH   3   5
TORSDOF 1
ENDMDL
MODEL 4
REMARK VINA RESULT: -4.660558519      1.147      2.160
REMARK  1 active torsions:
REMARK  status: ('A' for Active; 'I' for Inactive)
REMARK    1  A    between atoms: N1_3  and  C3_5 
ROOT
HETATM    1  C1  UNL     1      45.359  19.004  51.600  1.00  0.00     0.037 C 
HETATM    2  C2  UNL     1      44.699  20.009  51.455  1.00  0.00    -0.005 C 
HETATM    3  N1  UNL     1      43.952  21.184  51.303  1.00  0.00    -0.345 N 
ATOM      4  H1  UNL     1      42.970  21.213  51.578  1.00  0.00     0.170 HD
ENDROOT
BRANCH   3   5
HETATM    5  C3  UNL     1      44.588  22.347  50.755  1.00  0.00     0.104 C 
HETATM    6  C4  UNL     1      45.680  22.905  51.604  1.00  0.00     0.048 C 
HETATM    7  C5  UNL     1      45.308  23.038  53.056  1.00  0.00     0.062 C 
HETATM    8  C9  UNL     1      45.827  24.314  51.065  1.00  0.00     0.017 C 
HETATM    9  N2  UNL     1      43.954  23.081  53.341  1.00  0.00    -0.396 N 
HETATM   10  C6  UNL     1      43.099  24.012  52.783  1.00  0.00     0.090 A 
ATOM     11  H2  UNL     1      43.571  22.396  53.991  1.00  0.00     0.159 HD
HETATM   12  C7  UNL     1      43.543  25.010  51.862  1.00  0.00     0.019 A 
HETATM   13  C11 UNL     1      42.644  23.810  51.399  1.00  0.00     0.021 A 
HETATM   14  C8  UNL     1      44.428  24.690  50.749  1.00  0.00    -0.001 C 
HETATM   15  C10 UNL     1      43.659  23.449  50.400  1.00  0.00     0.021 C 
ENDBRANCH   3   5
TORSDOF 1
ENDMDL
MODEL 5
REMARK VINA RESULT: -4.639927181      1.972      2.633
REMARK  1 active torsions:
REMARK  status: ('A' for Active; 'I' for Inactive)
REMARK    1  A    between atoms: N1_3  and  C3_5 
ROOT
HETATM    1  C1  UNL     1      45.872  18.778  53.328  1.00  0.00     0.037 C 
HETATM    2  C2  UNL     1      45.914  19.959  53.593  1.00  0.00    -0.005 C 
HETATM    3  N1  UNL     1      45.986  21.326  53.894  1.00  0.00    -0.345 N 
ATOM      4  H1  UNL     1      45.692  21.671  54.808  1.00  0.00     0.170 HD
ENDROOT
BRANCH   3   5
HETATM    5  C3  UNL     1      46.481  22.233  52.898  1.00  0.00     0.104 C 
HETATM    6  C4  UNL     1      46.605  23.644  53.364  1.00  0.00     0.048 C 
HETATM    7  C5  UNL     1      45.392  24.146  54.100  1.00  0.00     0.062 C 
HETATM    8  C9  UNL     1      46.667  24.414  52.060  1.00  0.00     0.017 C 
HETATM    9  N2  UNL     1      44.208  23.468  53.867  1.00  0.00    -0.396 N 
HETATM   10  C6  UNL     1      43.676  23.302  52.603  1.00  0.00     0.090 A 
ATOM     11  H2  UNL     1      43.707  23.074  54.662  1.00  0.00     0.159 HD
HETATM   12  C7  UNL     1      44.305  23.817  51.429  1.00  0.00     0.019 A 
HETATM   13  C11 UNL     1      44.256  22.277  51.723  1.00  0.00     0.021 A 
HETATM   14  C8  UNL     1      45.734  23.659  51.189  1.00  0.00    -0.001 C 
HETATM   15  C10 UNL     1      45.721  22.222  51.623  1.00  0.00     0.021 C 
ENDBRANCH   3   5
TORSDOF 1
ENDMDL
