MODEL 1
REMARK VINA RESULT: -4.682118345      0.000      0.000
REMARK  2 active torsions:
REMARK  status: ('A' for Active; 'I' for Inactive)
REMARK    1  A    between atoms: C6_9  and  N3_10 
REMARK    2  A    between atoms: N3_10  and  N4_12 
ROOT
HETATM    1  C1  UNL     1      46.513  23.482  54.836  1.00  0.00     0.272 C 
HETATM    2  N1  UNL     1      46.548  23.746  53.442  1.00  0.00    -0.071 N 
HETATM    3  C2  UNL     1      47.338  24.989  53.296  1.00  0.00     0.272 C 
HETATM    4  C3  UNL     1      45.284  24.033  52.836  1.00  0.00     0.256 C 
HETATM    5  C4  UNL     1      44.273  22.946  52.891  1.00  0.00     0.146 C 
HETATM    6  N2  UNL     1      44.327  21.995  51.849  1.00  0.00    -0.398 N 
ATOM      7  H2  UNL     1      43.513  21.846  51.253  1.00  0.00     0.158 HD
HETATM    8  C5  UNL     1      45.488  21.265  51.635  1.00  0.00     0.084 C 
HETATM    9  C6  UNL     1      46.627  21.431  52.568  1.00  0.00     0.164 C 
HETATM   10  C7  UNL     1      47.224  22.773  52.645  1.00  0.00     0.268 C 
ENDROOT
BRANCH   9  11
HETATM   11  N3  UNL     1      46.322  20.886  53.896  1.00  0.00    -0.311 N 
ATOM     12  H3  UNL     1      46.074  21.510  54.663  1.00  0.00     0.182 HD
BRANCH  11  13
HETATM   13  N4  UNL     1      46.369  19.673  54.076  1.00  0.00    -0.253 N 
HETATM   14  N5  UNL     1      46.912  18.601  54.418  1.00  0.00    -0.331 N 
ATOM     15  H52 UNL     1      47.827  18.948  54.705  1.00  0.00     0.178 HD
ATOM     16  H51 UNL     1      46.951  17.592  54.568  1.00  0.00     0.178 HD
ATOM     17  H4  UNL     1      45.441  19.368  53.779  1.00  0.00     0.207 HD
ENDBRANCH  11  13
ENDBRANCH   9  11
TORSDOF 2
ENDMDL
MODEL 2
REMARK VINA RESULT: -4.431687625      1.122      2.871
REMARK  2 active torsions:
REMARK  status: ('A' for Active; 'I' for Inactive)
REMARK    1  A    between atoms: C6_9  and  N3_10 
REMARK    2  A    between atoms: N3_10  and  N4_12 
ROOT
HETATM    1  C1  UNL     1      45.309  21.454  50.705  1.00  0.00     0.272 C 
HETATM    2  N1  UNL     1      44.953  22.495  51.602  1.00  0.00    -0.071 N 
HETATM    3  C2  UNL     1      43.677  23.041  51.086  1.00  0.00     0.272 C 
HETATM    4  C3  UNL     1      45.849  23.610  51.640  1.00  0.00     0.256 C 
HETATM    5  C4  UNL     1      47.235  23.317  52.084  1.00  0.00     0.146 C 
HETATM    6  N2  UNL     1      47.460  23.349  53.477  1.00  0.00    -0.398 N 
ATOM      7  H2  UNL     1      48.157  23.985  53.866  1.00  0.00     0.158 HD
HETATM    8  C5  UNL     1      46.733  22.517  54.317  1.00  0.00     0.084 C 
HETATM    9  C6  UNL     1      45.792  21.538  53.725  1.00  0.00     0.164 C 
HETATM   10  C7  UNL     1      44.675  22.088  52.942  1.00  0.00     0.268 C 
ENDROOT
BRANCH   9  11
HETATM   11  N3  UNL     1      46.502  20.475  53.002  1.00  0.00    -0.311 N 
ATOM     12  H3  UNL     1      46.836  20.636  52.052  1.00  0.00     0.182 HD
BRANCH  11  13
HETATM   13  N4  UNL     1      46.689  19.394  53.549  1.00  0.00    -0.253 N 
HETATM   14  N5  UNL     1      46.967  18.648  54.513  1.00  0.00    -0.331 N 
ATOM     15  H52 UNL     1      47.121  19.345  55.240  1.00  0.00     0.178 HD
ATOM     16  H51 UNL     1      47.123  17.748  54.969  1.00  0.00     0.178 HD
ATOM     17  H4  UNL     1      46.527  18.730  52.792  1.00  0.00     0.207 HD
ENDBRANCH  11  13
ENDBRANCH   9  11
TORSDOF 2
ENDMDL
MODEL 3
REMARK VINA RESULT: -4.403167414      3.240      4.055
REMARK  2 active torsions:
REMARK  status: ('A' for Active; 'I' for Inactive)
REMARK    1  A    between atoms: C6_9  and  N3_10 
REMARK    2  A    between atoms: N3_10  and  N4_12 
ROOT
HETATM    1  C1  UNL     1      41.968  24.475  51.841  1.00  0.00     0.272 C 
HETATM    2  N1  UNL     1      43.079  24.541  52.723  1.00  0.00    -0.071 N 
HETATM    3  C2  UNL     1      42.522  24.959  54.029  1.00  0.00     0.272 C 
HETATM    4  C3  UNL     1      44.063  25.529  52.403  1.00  0.00     0.256 C 
HETATM    5  C4  UNL     1      44.749  25.366  51.096  1.00  0.00     0.146 C 
HETATM    6  N2  UNL     1      45.885  24.528  51.092  1.00  0.00    -0.398 N 
ATOM      7  H2  UNL     1      46.789  24.895  50.792  1.00  0.00     0.158 HD
HETATM    8  C5  UNL     1      45.773  23.205  51.499  1.00  0.00     0.084 C 
HETATM    9  C6  UNL     1      44.436  22.667  51.843  1.00  0.00     0.164 C 
HETATM   10  C7  UNL     1      43.743  23.302  52.974  1.00  0.00     0.268 C 
ENDROOT
BRANCH   9  11
HETATM   11  N3  UNL     1      43.575  22.558  50.659  1.00  0.00    -0.311 N 
ATOM     12  H3  UNL     1      42.920  23.305  50.430  1.00  0.00     0.182 HD
BRANCH  11  13
HETATM   13  N4  UNL     1      43.651  21.561  49.948  1.00  0.00    -0.253 N 
HETATM   14  N5  UNL     1      43.734  20.334  49.727  1.00  0.00    -0.331 N 
ATOM     15  H52 UNL     1      43.743  19.980  50.683  1.00  0.00     0.178 HD
ATOM     16  H51 UNL     1      43.796  19.504  49.136  1.00  0.00     0.178 HD
ATOM     17  H4  UNL     1      43.638  21.957  49.008  1.00  0.00     0.207 HD
ENDBRANCH  11  13
ENDBRANCH   9  11
TORSDOF 2
ENDMDL
MODEL 4
REMARK VINA RESULT: -4.376294305      2.625      3.538
REMARK  2 active torsions:
REMARK  status: ('A' for Active; 'I' for Inactive)
REMARK    1  A    between atoms: C6_9  and  N3_10 
REMARK    2  A    between atoms: N3_10  and  N4_12 
ROOT
HETATM    1  C1  UNL     1      45.041  22.072  52.702  1.00  0.00     0.272 C 
HETATM    2  N1  UNL     1      45.162  23.407  52.233  1.00  0.00    -0.071 N 
HETATM    3  C2  UNL     1      46.456  23.895  52.763  1.00  0.00     0.272 C 
HETATM    4  C3  UNL     1      44.184  24.326  52.731  1.00  0.00     0.256 C 
HETATM    5  C4  UNL     1      42.773  24.029  52.377  1.00  0.00     0.146 C 
HETATM    6  N2  UNL     1      42.324  24.538  51.139  1.00  0.00    -0.398 N 
ATOM      7  H2  UNL     1      41.524  25.171  51.108  1.00  0.00     0.158 HD
HETATM    8  C5  UNL     1      42.971  24.178  49.965  1.00  0.00     0.084 C 
HETATM    9  C6  UNL     1      44.072  23.187  50.023  1.00  0.00     0.164 C 
HETATM   10  C7  UNL     1      45.252  23.560  50.817  1.00  0.00     0.268 C 
ENDROOT
BRANCH   9  11
HETATM   11  N3  UNL     1      43.577  21.848  50.365  1.00  0.00    -0.311 N 
ATOM     12  H3  UNL     1      42.856  21.734  51.077  1.00  0.00     0.182 HD
BRANCH  11  13
HETATM   13  N4  UNL     1      44.037  20.869  49.786  1.00  0.00    -0.253 N 
HETATM   14  N5  UNL     1      44.954  20.146  49.343  1.00  0.00    -0.331 N 
ATOM     15  H52 UNL     1      45.766  20.690  49.633  1.00  0.00     0.178 HD
ATOM     16  H51 UNL     1      45.337  19.331  48.862  1.00  0.00     0.178 HD
ATOM     17  H4  UNL     1      43.197  20.356  49.515  1.00  0.00     0.207 HD
ENDBRANCH  11  13
ENDBRANCH   9  11
TORSDOF 2
ENDMDL
MODEL 5
REMARK VINA RESULT: -4.373096707      1.094      1.140
REMARK  2 active torsions:
REMARK  status: ('A' for Active; 'I' for Inactive)
REMARK    1  A    between atoms: C6_9  and  N3_10 
REMARK    2  A    between atoms: N3_10  and  N4_12 
ROOT
HETATM    1  C1  UNL     1      45.324  23.967  53.973  1.00  0.00     0.272 C 
HETATM    2  N1  UNL     1      45.545  24.084  52.575  1.00  0.00    -0.071 N 
HETATM    3  C2  UNL     1      46.137  25.428  52.381  1.00  0.00     0.272 C 
HETATM    4  C3  UNL     1      44.368  24.074  51.762  1.00  0.00     0.256 C 
HETATM    5  C4  UNL     1      43.551  22.835  51.815  1.00  0.00     0.146 C 
HETATM    6  N2  UNL     1      43.928  21.805  50.927  1.00  0.00    -0.398 N 
ATOM      7  H2  UNL     1      43.257  21.449  50.245  1.00  0.00     0.158 HD
HETATM    8  C5  UNL     1      45.210  21.277  50.980  1.00  0.00     0.084 C 
HETATM    9  C6  UNL     1      46.139  21.743  52.037  1.00  0.00     0.164 C 
HETATM   10  C7  UNL     1      46.491  23.171  52.020  1.00  0.00     0.268 C 
ENDROOT
BRANCH   9  11
HETATM   11  N3  UNL     1      45.712  21.295  53.368  1.00  0.00    -0.311 N 
ATOM     12  H3  UNL     1      44.976  21.795  53.866  1.00  0.00     0.182 HD
BRANCH  11  13
HETATM   13  N4  UNL     1      46.248  20.315  53.876  1.00  0.00    -0.253 N 
HETATM   14  N5  UNL     1      46.683  19.144  53.887  1.00  0.00    -0.331 N 
ATOM     15  H52 UNL     1      46.459  18.861  52.933  1.00  0.00     0.178 HD
ATOM     16  H51 UNL     1      47.129  18.329  54.309  1.00  0.00     0.178 HD
ATOM     17  H4  UNL     1      46.454  20.639  54.821  1.00  0.00     0.207 HD
ENDBRANCH  11  13
ENDBRANCH   9  11
TORSDOF 2
ENDMDL
