MODEL 1
REMARK VINA RESULT: -4.210729511      0.000      0.000
REMARK  1 active torsions:
REMARK  status: ('A' for Active; 'I' for Inactive)
REMARK    1  A    between atoms: C2_2  and  N1_3 
ROOT
HETATM    1  N1  UNL     1      43.948  23.831  51.405  1.00  0.00    -0.009 N 
HETATM    2  C3  UNL     1      43.870  23.166  52.666  1.00  0.00     0.250 C 
HETATM    3  C4  UNL     1      45.082  22.511  53.168  1.00  0.00     0.055 C 
HETATM    4  C5  UNL     1      46.061  22.336  52.031  1.00  0.00     0.098 C 
HETATM    5  C6  UNL     1      45.416  21.322  51.081  1.00  0.00     0.145 C 
HETATM    6  N2  UNL     1      44.849  22.046  50.036  1.00  0.00    -0.378 N 
ATOM      7  H2  UNL     1      45.206  21.945  49.086  1.00  0.00     0.160 HD
HETATM    8  C7  UNL     1      43.776  22.917  50.304  1.00  0.00     0.292 C 
HETATM    9  N3  UNL     1      46.318  23.551  51.338  1.00  0.00    -0.385 N 
ATOM     10  H3  UNL     1      47.224  23.752  50.914  1.00  0.00     0.156 HD
HETATM   11  C8  UNL     1      45.230  24.473  51.274  1.00  0.00     0.197 C 
HETATM   12  C9  UNL     1      45.498  25.532  52.300  1.00  0.00     0.071 C 
HETATM   13  C10 UNL     1      45.362  25.167  49.917  1.00  0.00     0.071 C 
ENDROOT
BRANCH   1  14
HETATM   14  C2  UNL     1      42.853  24.770  51.375  1.00  0.00     0.243 C 
HETATM   15  C1  UNL     1      41.653  24.330  50.605  1.00  0.00     0.035 C 
ENDBRANCH   1  14
TORSDOF 1
ENDMDL
MODEL 2
REMARK VINA RESULT: -4.155524291      1.417      2.831
REMARK  1 active torsions:
REMARK  status: ('A' for Active; 'I' for Inactive)
REMARK    1  A    between atoms: C2_2  and  N1_3 
ROOT
HETATM    1  N1  UNL     1      45.498  23.600  51.556  1.00  0.00    -0.009 N 
HETATM    2  C3  UNL     1      45.223  22.546  50.634  1.00  0.00     0.250 C 
HETATM    3  C4  UNL     1      44.786  21.258  51.181  1.00  0.00     0.055 C 
HETATM    4  C5  UNL     1      45.118  21.204  52.653  1.00  0.00     0.098 C 
HETATM    5  C6  UNL     1      46.647  21.182  52.734  1.00  0.00     0.145 C 
HETATM    6  N2  UNL     1      47.059  22.478  53.032  1.00  0.00    -0.378 N 
ATOM      7  H2  UNL     1      47.521  22.681  53.919  1.00  0.00     0.160 HD
HETATM    8  C7  UNL     1      46.831  23.505  52.097  1.00  0.00     0.292 C 
HETATM    9  N3  UNL     1      44.612  22.325  53.370  1.00  0.00    -0.385 N 
ATOM     10  H3  UNL     1      44.309  22.256  54.341  1.00  0.00     0.156 HD
HETATM   11  C8  UNL     1      44.556  23.552  52.643  1.00  0.00     0.197 C 
HETATM   12  C9  UNL     1      43.128  23.747  52.232  1.00  0.00     0.071 C 
HETATM   13  C10 UNL     1      44.845  24.648  53.671  1.00  0.00     0.071 C 
ENDROOT
BRANCH   1  14
HETATM   14  C2  UNL     1      45.413  24.828  50.803  1.00  0.00     0.243 C 
HETATM   15  C1  UNL     1      45.155  24.667  49.342  1.00  0.00     0.035 C 
ENDBRANCH   1  14
TORSDOF 1
ENDMDL
MODEL 3
REMARK VINA RESULT: -4.056221222      1.214      3.089
REMARK  1 active torsions:
REMARK  status: ('A' for Active; 'I' for Inactive)
REMARK    1  A    between atoms: C2_2  and  N1_3 
ROOT
HETATM    1  N1  UNL     1      44.952  22.964  51.425  1.00  0.00    -0.009 N 
HETATM    2  C3  UNL     1      44.253  22.716  52.644  1.00  0.00     0.250 C 
HETATM    3  C4  UNL     1      43.675  23.867  53.345  1.00  0.00     0.055 C 
HETATM    4  C5  UNL     1      44.304  25.137  52.822  1.00  0.00     0.098 C 
HETATM    5  C6  UNL     1      45.770  25.086  53.265  1.00  0.00     0.145 C 
HETATM    6  N2  UNL     1      46.514  24.663  52.166  1.00  0.00    -0.378 N 
ATOM      7  H2  UNL     1      47.194  25.288  51.733  1.00  0.00     0.160 HD
HETATM    8  C7  UNL     1      46.317  23.365  51.660  1.00  0.00     0.292 C 
HETATM    9  N3  UNL     1      44.231  25.241  51.405  1.00  0.00    -0.385 N 
ATOM     10  H3  UNL     1      44.143  26.139  50.931  1.00  0.00     0.156 HD
HETATM   11  C8  UNL     1      44.288  24.008  50.688  1.00  0.00     0.197 C 
HETATM   12  C9  UNL     1      42.884  23.678  50.280  1.00  0.00     0.071 C 
HETATM   13  C10 UNL     1      45.033  24.324  49.390  1.00  0.00     0.071 C 
ENDROOT
BRANCH   1  14
HETATM   14  C2  UNL     1      44.976  21.711  50.711  1.00  0.00     0.243 C 
HETATM   15  C1  UNL     1      44.921  20.487  51.563  1.00  0.00     0.035 C 
ENDBRANCH   1  14
TORSDOF 1
ENDMDL
MODEL 4
REMARK VINA RESULT: -4.042566782      1.664      3.494
REMARK  1 active torsions:
REMARK  status: ('A' for Active; 'I' for Inactive)
REMARK    1  A    between atoms: C2_2  and  N1_3 
ROOT
HETATM    1  N1  UNL     1      45.269  23.250  52.067  1.00  0.00    -0.009 N 
HETATM    2  C3  UNL     1      45.482  24.597  51.646  1.00  0.00     0.250 C 
HETATM    3  C4  UNL     1      45.786  25.595  52.677  1.00  0.00     0.055 C 
HETATM    4  C5  UNL     1      45.402  25.045  54.030  1.00  0.00     0.098 C 
HETATM    5  C6  UNL     1      43.874  24.930  54.014  1.00  0.00     0.145 C 
HETATM    6  N2  UNL     1      43.568  23.596  53.759  1.00  0.00    -0.378 N 
ATOM      7  H2  UNL     1      43.096  23.031  54.465  1.00  0.00     0.160 HD
HETATM    8  C7  UNL     1      43.916  23.035  52.515  1.00  0.00     0.292 C 
HETATM    9  N3  UNL     1      45.979  23.770  54.287  1.00  0.00    -0.385 N 
ATOM     10  H3  UNL     1      46.242  23.474  55.227  1.00  0.00     0.156 HD
HETATM   11  C8  UNL     1      46.167  22.932  53.147  1.00  0.00     0.197 C 
HETATM   12  C9  UNL     1      47.619  23.011  52.786  1.00  0.00     0.071 C 
HETATM   13  C10 UNL     1      45.941  21.504  53.648  1.00  0.00     0.071 C 
ENDROOT
BRANCH   1  14
HETATM   14  C2  UNL     1      45.486  22.424  50.905  1.00  0.00     0.243 C 
HETATM   15  C1  UNL     1      44.320  21.595  50.481  1.00  0.00     0.035 C 
ENDBRANCH   1  14
TORSDOF 1
ENDMDL
MODEL 5
REMARK VINA RESULT: -3.985464946      1.338      2.310
REMARK  1 active torsions:
REMARK  status: ('A' for Active; 'I' for Inactive)
REMARK    1  A    between atoms: C2_2  and  N1_3 
ROOT
HETATM    1  N1  UNL     1      44.503  23.961  51.802  1.00  0.00    -0.009 N 
HETATM    2  C3  UNL     1      44.248  22.585  51.523  1.00  0.00     0.250 C 
HETATM    3  C4  UNL     1      44.760  21.590  52.472  1.00  0.00     0.055 C 
HETATM    4  C5  UNL     1      45.814  22.231  53.344  1.00  0.00     0.098 C 
HETATM    5  C6  UNL     1      46.989  22.545  52.413  1.00  0.00     0.145 C 
HETATM    6  N2  UNL     1      46.908  23.899  52.097  1.00  0.00    -0.378 N 
ATOM      7  H2  UNL     1      47.636  24.544  52.403  1.00  0.00     0.160 HD
HETATM    8  C7  UNL     1      45.810  24.367  51.351  1.00  0.00     0.292 C 
HETATM    9  N3  UNL     1      45.357  23.426  53.967  1.00  0.00    -0.385 N 
ATOM     10  H3  UNL     1      45.684  23.716  54.888  1.00  0.00     0.156 HD
HETATM   11  C8  UNL     1      44.413  24.193  53.220  1.00  0.00     0.197 C 
HETATM   12  C9  UNL     1      43.064  23.912  53.808  1.00  0.00     0.071 C 
HETATM   13  C10 UNL     1      44.717  25.655  53.558  1.00  0.00     0.071 C 
ENDROOT
BRANCH   1  14
HETATM   14  C2  UNL     1      43.524  24.712  51.055  1.00  0.00     0.243 C 
HETATM   15  C1  UNL     1      42.591  23.898  50.222  1.00  0.00     0.035 C 
ENDBRANCH   1  14
TORSDOF 1
ENDMDL
