MODEL 1
REMARK VINA RESULT: -4.906776286      0.000      0.000
REMARK  2 active torsions:
REMARK  status: ('A' for Active; 'I' for Inactive)
REMARK    1  A    between atoms: C10_10  and  O1_11 
REMARK    2  A    between atoms: C11_13  and  O2_14 
ROOT
HETATM    1  C1  UNL     1      41.255  24.446  50.621  1.00  0.00     0.017 C 
HETATM    2  C2  UNL     1      42.692  24.227  50.950  1.00  0.00    -0.019 A 
HETATM    3  C3  UNL     1      43.564  25.324  51.345  1.00  0.00     0.008 A 
HETATM    4  C4  UNL     1      45.009  24.934  51.018  1.00  0.00     0.012 C 
HETATM    5  C5  UNL     1      44.936  23.528  50.570  1.00  0.00     0.003 C 
HETATM    6  C6  UNL     1      45.293  22.430  51.500  1.00  0.00     0.023 C 
HETATM    7  C7  UNL     1      43.887  21.851  51.239  1.00  0.00     0.019 C 
HETATM    8  C8  UNL     1      43.492  23.133  50.821  1.00  0.00    -0.016 A 
HETATM    9  C9  UNL     1      43.238  23.990  52.126  1.00  0.00     0.010 A 
HETATM   10  C10 UNL     1      44.107  23.736  53.192  1.00  0.00     0.157 C 
HETATM   11  C11 UNL     1      45.280  22.791  52.952  1.00  0.00     0.152 C 
ENDROOT
BRANCH  10  12
HETATM   12  O1  UNL     1      43.385  23.289  54.333  1.00  0.00    -0.392 OA
ATOM     13  H1  UNL     1      43.095  22.392  54.216  1.00  0.00     0.210 HD
ENDBRANCH  10  12
BRANCH  11  14
HETATM   14  O2  UNL     1      44.998  21.597  53.657  1.00  0.00    -0.393 OA
ATOM     15  H2  UNL     1      45.096  21.802  54.579  1.00  0.00     0.210 HD
ENDBRANCH  11  14
TORSDOF 2
ENDMDL
MODEL 2
REMARK VINA RESULT: -4.830475498      1.923      3.045
REMARK  2 active torsions:
REMARK  status: ('A' for Active; 'I' for Inactive)
REMARK    1  A    between atoms: C10_10  and  O1_11 
REMARK    2  A    between atoms: C11_13  and  O2_14 
ROOT
HETATM    1  C1  UNL     1      45.363  24.707  49.453  1.00  0.00     0.017 C 
HETATM    2  C2  UNL     1      44.764  23.785  50.459  1.00  0.00    -0.019 A 
HETATM    3  C3  UNL     1      43.354  23.423  50.425  1.00  0.00     0.008 A 
HETATM    4  C4  UNL     1      42.926  23.016  51.838  1.00  0.00     0.012 C 
HETATM    5  C5  UNL     1      44.171  23.014  52.633  1.00  0.00     0.003 C 
HETATM    6  C6  UNL     1      44.865  21.738  52.928  1.00  0.00     0.023 C 
HETATM    7  C7  UNL     1      46.118  22.351  52.267  1.00  0.00     0.019 C 
HETATM    8  C8  UNL     1      45.266  23.252  51.608  1.00  0.00    -0.016 A 
HETATM    9  C9  UNL     1      44.619  22.477  50.390  1.00  0.00     0.010 A 
HETATM   10  C10 UNL     1      44.321  21.131  50.624  1.00  0.00     0.157 C 
HETATM   11  C11 UNL     1      44.502  20.591  52.039  1.00  0.00     0.152 C 
ENDROOT
BRANCH  10  12
HETATM   12  O1  UNL     1      45.033  20.295  49.720  1.00  0.00    -0.392 OA
ATOM     13  H1  UNL     1      45.937  20.577  49.643  1.00  0.00     0.210 HD
ENDBRANCH  10  12
BRANCH  11  14
HETATM   14  O2  UNL     1      45.629  19.736  52.012  1.00  0.00    -0.393 OA
ATOM     15  H2  UNL     1      46.049  19.873  51.172  1.00  0.00     0.210 HD
ENDBRANCH  11  14
TORSDOF 2
ENDMDL
MODEL 3
REMARK VINA RESULT: -4.650017208      6.273      7.778
REMARK  2 active torsions:
REMARK  status: ('A' for Active; 'I' for Inactive)
REMARK    1  A    between atoms: C10_10  and  O1_11 
REMARK    2  A    between atoms: C11_13  and  O2_14 
ROOT
HETATM    1  C1  UNL     1      40.373  25.071  58.728  1.00  0.00     0.017 C 
HETATM    2  C2  UNL     1      39.586  25.172  57.466  1.00  0.00    -0.019 A 
HETATM    3  C3  UNL     1      38.162  24.870  57.424  1.00  0.00     0.008 A 
HETATM    4  C4  UNL     1      37.797  24.469  55.992  1.00  0.00     0.012 C 
HETATM    5  C5  UNL     1      39.024  24.701  55.201  1.00  0.00     0.003 C 
HETATM    6  C6  UNL     1      39.158  25.926  54.376  1.00  0.00     0.023 C 
HETATM    7  C7  UNL     1      40.451  26.225  55.164  1.00  0.00     0.019 C 
HETATM    8  C8  UNL     1      39.970  25.378  56.176  1.00  0.00    -0.016 A 
HETATM    9  C9  UNL     1      38.903  26.201  57.005  1.00  0.00     0.010 A 
HETATM   10  C10 UNL     1      38.108  27.077  56.260  1.00  0.00     0.157 C 
HETATM   11  C11 UNL     1      38.236  27.047  54.740  1.00  0.00     0.152 C 
ENDROOT
BRANCH  10  12
HETATM   12  O1  UNL     1      38.281  28.416  56.707  1.00  0.00    -0.392 OA
ATOM     13  H1  UNL     1      38.203  29.024  55.982  1.00  0.00     0.210 HD
ENDBRANCH  10  12
BRANCH  11  14
HETATM   14  O2  UNL     1      38.892  28.241  54.358  1.00  0.00    -0.393 OA
ATOM     15  H2  UNL     1      38.243  28.932  54.416  1.00  0.00     0.210 HD
ENDBRANCH  11  14
TORSDOF 2
ENDMDL
MODEL 4
REMARK VINA RESULT: -4.490799231      1.957      3.545
REMARK  2 active torsions:
REMARK  status: ('A' for Active; 'I' for Inactive)
REMARK    1  A    between atoms: C10_10  and  O1_11 
REMARK    2  A    between atoms: C11_13  and  O2_14 
ROOT
HETATM    1  C1  UNL     1      45.281  21.719  53.579  1.00  0.00     0.017 C 
HETATM    2  C2  UNL     1      44.803  22.902  52.807  1.00  0.00    -0.019 A 
HETATM    3  C3  UNL     1      45.628  23.540  51.792  1.00  0.00     0.008 A 
HETATM    4  C4  UNL     1      45.169  24.994  51.641  1.00  0.00     0.012 C 
HETATM    5  C5  UNL     1      43.966  25.108  52.491  1.00  0.00     0.003 C 
HETATM    6  C6  UNL     1      42.615  25.059  51.880  1.00  0.00     0.023 C 
HETATM    7  C7  UNL     1      42.312  23.877  52.826  1.00  0.00     0.019 C 
HETATM    8  C8  UNL     1      43.698  23.685  52.948  1.00  0.00    -0.016 A 
HETATM    9  C9  UNL     1      44.180  22.926  51.646  1.00  0.00     0.010 A 
HETATM   10  C10 UNL     1      43.531  23.291  50.463  1.00  0.00     0.157 C 
HETATM   11  C11 UNL     1      42.553  24.460  50.510  1.00  0.00     0.152 C 
ENDROOT
BRANCH  10  12
HETATM   12  O1  UNL     1      42.875  22.170  49.883  1.00  0.00    -0.392 OA
ATOM     13  H1  UNL     1      43.507  21.516  49.610  1.00  0.00     0.210 HD
ENDBRANCH  10  12
BRANCH  11  14
HETATM   14  O2  UNL     1      41.254  23.918  50.372  1.00  0.00    -0.393 OA
ATOM     15  H2  UNL     1      40.827  24.030  51.212  1.00  0.00     0.210 HD
ENDBRANCH  11  14
TORSDOF 2
ENDMDL
MODEL 5
REMARK VINA RESULT: -4.481318873      1.834      3.185
REMARK  2 active torsions:
REMARK  status: ('A' for Active; 'I' for Inactive)
REMARK    1  A    between atoms: C10_10  and  O1_11 
REMARK    2  A    between atoms: C11_13  and  O2_14 
ROOT
HETATM    1  C1  UNL     1      44.996  21.071  50.644  1.00  0.00     0.017 C 
HETATM    2  C2  UNL     1      44.730  22.510  50.927  1.00  0.00    -0.019 A 
HETATM    3  C3  UNL     1      44.895  23.536  49.907  1.00  0.00     0.008 A 
HETATM    4  C4  UNL     1      45.154  24.874  50.606  1.00  0.00     0.012 C 
HETATM    5  C5  UNL     1      44.978  24.596  52.047  1.00  0.00     0.003 C 
HETATM    6  C6  UNL     1      43.713  24.964  52.728  1.00  0.00     0.023 C 
HETATM    7  C7  UNL     1      43.594  23.483  53.145  1.00  0.00     0.019 C 
HETATM    8  C8  UNL     1      44.466  23.169  52.089  1.00  0.00    -0.016 A 
HETATM    9  C9  UNL     1      43.611  23.186  50.758  1.00  0.00     0.010 A 
HETATM   10  C10 UNL     1      42.612  24.163  50.698  1.00  0.00     0.157 C 
HETATM   11  C11 UNL     1      42.542  25.189  51.824  1.00  0.00     0.152 C 
ENDROOT
BRANCH  10  12
HETATM   12  O1  UNL     1      41.332  23.564  50.543  1.00  0.00    -0.392 OA
ATOM     13  H1  UNL     1      41.405  22.617  50.522  1.00  0.00     0.210 HD
ENDBRANCH  10  12
BRANCH  11  14
HETATM   14  O2  UNL     1      41.388  24.886  52.586  1.00  0.00    -0.393 OA
ATOM     15  H2  UNL     1      41.428  23.955  52.771  1.00  0.00     0.210 HD
ENDBRANCH  11  14
TORSDOF 2
ENDMDL
