MODEL 1
REMARK VINA RESULT: -5.390759988      0.000      0.000
REMARK  3 active torsions:
REMARK  status: ('A' for Active; 'I' for Inactive)
REMARK    1  A    between atoms: C3_3  and  O1_4 
REMARK    2  A    between atoms: C4_6  and  C5_7 
REMARK    3  A    between atoms: C8_10  and  O2_11 
ROOT
HETATM    1  C1  UNL     1      45.292  24.540  49.012  1.00  0.00     0.017 C 
HETATM    2  C2  UNL     1      44.745  23.791  49.781  1.00  0.00    -0.046 C 
HETATM    3  C3  UNL     1      44.067  22.874  50.694  1.00  0.00     0.335 C 
HETATM    4  C4  UNL     1      44.997  22.092  51.596  1.00  0.00     0.135 C 
HETATM    5  C8  UNL     1      44.534  23.058  52.632  1.00  0.00     0.275 C 
HETATM    6  C9  UNL     1      45.212  24.376  52.644  1.00  0.00     0.103 C 
HETATM    7  C10 UNL     1      43.935  24.893  52.057  1.00  0.00     0.286 C 
HETATM    8  N1  UNL     1      43.451  23.550  51.809  1.00  0.00     0.172 N 
ENDROOT
BRANCH   3   9
HETATM    9  O1  UNL     1      43.113  22.121  50.012  1.00  0.00    -0.353 OA
ATOM     10  H1  UNL     1      43.503  21.690  49.261  1.00  0.00     0.213 HD
ENDBRANCH   3   9
BRANCH   4  11
HETATM   11  C5  UNL     1      44.603  20.679  51.716  1.00  0.00    -0.008 C 
HETATM   12  C6  UNL     1      45.237  19.865  52.783  1.00  0.00     0.010 C 
HETATM   13  C7  UNL     1      44.786  19.900  50.404  1.00  0.00     0.010 C 
ENDBRANCH   4  11
BRANCH   5  14
HETATM   14  O2  UNL     1      44.221  22.599  53.868  1.00  0.00    -0.362 OA
ATOM     15  H2  UNL     1      43.694  23.142  54.443  1.00  0.00     0.212 HD
ENDBRANCH   5  14
TORSDOF 3
ENDMDL
MODEL 2
REMARK VINA RESULT: -5.182303331      1.718      3.090
REMARK  3 active torsions:
REMARK  status: ('A' for Active; 'I' for Inactive)
REMARK    1  A    between atoms: C3_3  and  O1_4 
REMARK    2  A    between atoms: C4_6  and  C5_7 
REMARK    3  A    between atoms: C8_10  and  O2_11 
ROOT
HETATM    1  C1  UNL     1      45.424  24.172  53.886  1.00  0.00     0.017 C 
HETATM    2  C2  UNL     1      45.549  23.214  53.166  1.00  0.00    -0.046 C 
HETATM    3  C3  UNL     1      45.725  22.050  52.300  1.00  0.00     0.335 C 
HETATM    4  C4  UNL     1      44.636  21.008  52.429  1.00  0.00     0.135 C 
HETATM    5  C8  UNL     1      44.169  21.579  51.134  1.00  0.00     0.275 C 
HETATM    6  C9  UNL     1      43.354  22.814  51.222  1.00  0.00     0.103 C 
HETATM    7  C10 UNL     1      44.581  23.504  50.711  1.00  0.00     0.286 C 
HETATM    8  N1  UNL     1      45.391  22.322  50.924  1.00  0.00     0.172 N 
ENDROOT
BRANCH   3   9
HETATM    9  O1  UNL     1      47.032  21.572  52.384  1.00  0.00    -0.353 OA
ATOM     10  H1  UNL     1      47.135  20.790  51.855  1.00  0.00     0.213 HD
ENDBRANCH   3   9
BRANCH   4  11
HETATM   11  C5  UNL     1      45.172  19.637  52.447  1.00  0.00    -0.008 C 
HETATM   12  C6  UNL     1      44.282  18.532  52.014  1.00  0.00     0.010 C 
HETATM   13  C7  UNL     1      45.727  19.237  53.824  1.00  0.00     0.010 C 
ENDBRANCH   4  11
BRANCH   5  14
HETATM   14  O2  UNL     1      43.772  20.738  50.148  1.00  0.00    -0.362 OA
ATOM     15  H2  UNL     1      43.354  21.097  49.374  1.00  0.00     0.212 HD
ENDBRANCH   5  14
TORSDOF 3
ENDMDL
MODEL 3
REMARK VINA RESULT: -5.001191628      1.448      1.668
REMARK  3 active torsions:
REMARK  status: ('A' for Active; 'I' for Inactive)
REMARK    1  A    between atoms: C3_3  and  O1_4 
REMARK    2  A    between atoms: C4_6  and  C5_7 
REMARK    3  A    between atoms: C8_10  and  O2_11 
ROOT
HETATM    1  C1  UNL     1      45.155  25.124  50.953  1.00  0.00     0.017 C 
HETATM    2  C2  UNL     1      44.820  24.099  51.488  1.00  0.00    -0.046 C 
HETATM    3  C3  UNL     1      44.390  22.855  52.126  1.00  0.00     0.335 C 
HETATM    4  C4  UNL     1      45.431  21.758  52.114  1.00  0.00     0.135 C 
HETATM    5  C8  UNL     1      45.600  22.133  53.547  1.00  0.00     0.275 C 
HETATM    6  C9  UNL     1      46.466  23.305  53.816  1.00  0.00     0.103 C 
HETATM    7  C10 UNL     1      45.185  24.019  54.118  1.00  0.00     0.286 C 
HETATM    8  N1  UNL     1      44.398  22.935  53.566  1.00  0.00     0.172 N 
ENDROOT
BRANCH   3   9
HETATM    9  O1  UNL     1      43.122  22.490  51.679  1.00  0.00    -0.353 OA
ATOM     10  H1  UNL     1      42.809  23.103  51.025  1.00  0.00     0.213 HD
ENDBRANCH   3   9
BRANCH   4  11
HETATM   11  C5  UNL     1      44.854  20.443  51.788  1.00  0.00    -0.008 C 
HETATM   12  C6  UNL     1      45.481  19.237  52.385  1.00  0.00     0.010 C 
HETATM   13  C7  UNL     1      44.775  20.191  50.274  1.00  0.00     0.010 C 
ENDBRANCH   4  11
BRANCH   5  14
HETATM   14  O2  UNL     1      45.712  21.152  54.476  1.00  0.00    -0.362 OA
ATOM     15  H2  UNL     1      45.591  21.369  55.393  1.00  0.00     0.212 HD
ENDBRANCH   5  14
TORSDOF 3
ENDMDL
MODEL 4
REMARK VINA RESULT: -4.873488088      1.706      3.699
REMARK  3 active torsions:
REMARK  status: ('A' for Active; 'I' for Inactive)
REMARK    1  A    between atoms: C3_3  and  O1_4 
REMARK    2  A    between atoms: C4_6  and  C5_7 
REMARK    3  A    between atoms: C8_10  and  O2_11 
ROOT
HETATM    1  C1  UNL     1      44.309  18.606  52.084  1.00  0.00     0.017 C 
HETATM    2  C2  UNL     1      44.597  19.687  51.639  1.00  0.00    -0.046 C 
HETATM    3  C3  UNL     1      44.949  20.990  51.077  1.00  0.00     0.335 C 
HETATM    4  C4  UNL     1      44.016  22.112  51.474  1.00  0.00     0.135 C 
HETATM    5  C8  UNL     1      45.130  22.492  52.387  1.00  0.00     0.275 C 
HETATM    6  C9  UNL     1      45.204  21.753  53.670  1.00  0.00     0.103 C 
HETATM    7  C10 UNL     1      46.378  21.059  53.054  1.00  0.00     0.286 C 
HETATM    8  N1  UNL     1      46.071  21.601  51.746  1.00  0.00     0.172 N 
ENDROOT
BRANCH   3   9
HETATM    9  O1  UNL     1      45.214  20.878  49.714  1.00  0.00    -0.353 OA
ATOM     10  H1  UNL     1      44.884  20.054  49.377  1.00  0.00     0.213 HD
ENDBRANCH   3   9
BRANCH   4  11
HETATM   11  C5  UNL     1      43.692  22.997  50.343  1.00  0.00    -0.008 C 
HETATM   12  C6  UNL     1      44.752  23.907  49.842  1.00  0.00     0.010 C 
HETATM   13  C7  UNL     1      42.455  23.870  50.609  1.00  0.00     0.010 C 
ENDBRANCH   4  11
BRANCH   5  14
HETATM   14  O2  UNL     1      45.479  23.798  52.494  1.00  0.00    -0.362 OA
ATOM     15  H2  UNL     1      46.397  24.025  52.587  1.00  0.00     0.212 HD
ENDBRANCH   5  14
TORSDOF 3
ENDMDL
MODEL 5
REMARK VINA RESULT: -4.866964489      1.475      4.092
REMARK  3 active torsions:
REMARK  status: ('A' for Active; 'I' for Inactive)
REMARK    1  A    between atoms: C3_3  and  O1_4 
REMARK    2  A    between atoms: C4_6  and  C5_7 
REMARK    3  A    between atoms: C8_10  and  O2_11 
ROOT
HETATM    1  C1  UNL     1      46.604  23.674  53.657  1.00  0.00     0.017 C 
HETATM    2  C2  UNL     1      45.478  23.438  53.301  1.00  0.00    -0.046 C 
HETATM    3  C3  UNL     1      44.104  23.152  52.894  1.00  0.00     0.335 C 
HETATM    4  C4  UNL     1      43.620  23.970  51.717  1.00  0.00     0.135 C 
HETATM    5  C8  UNL     1      43.835  22.704  50.962  1.00  0.00     0.275 C 
HETATM    6  C9  UNL     1      45.226  22.430  50.530  1.00  0.00     0.103 C 
HETATM    7  C10 UNL     1      45.223  21.400  51.617  1.00  0.00     0.286 C 
HETATM    8  N1  UNL     1      43.984  21.914  52.163  1.00  0.00     0.172 N 
ENDROOT
BRANCH   3   9
HETATM    9  O1  UNL     1      43.260  23.131  54.003  1.00  0.00    -0.353 OA
ATOM     10  H1  UNL     1      42.588  22.468  53.898  1.00  0.00     0.213 HD
ENDBRANCH   3   9
BRANCH   4  11
HETATM   11  C5  UNL     1      42.245  24.460  51.904  1.00  0.00    -0.008 C 
HETATM   12  C6  UNL     1      41.381  24.594  50.704  1.00  0.00     0.010 C 
HETATM   13  C7  UNL     1      42.192  25.813  52.634  1.00  0.00     0.010 C 
ENDBRANCH   4  11
BRANCH   5  14
HETATM   14  O2  UNL     1      42.901  22.305  50.064  1.00  0.00    -0.362 OA
ATOM     15  H2  UNL     1      43.183  21.995  49.211  1.00  0.00     0.212 HD
ENDBRANCH   5  14
TORSDOF 3
ENDMDL
