MODEL 1
REMARK VINA RESULT: -5.239443588      0.000      0.000
REMARK  2 active torsions:
REMARK  status: ('A' for Active; 'I' for Inactive)
REMARK    1  A    between atoms: O1_1  and  C1_3 
REMARK    2  A    between atoms: C1_3  and  C2_4 
ROOT
HETATM    1  C2  UNL     1      45.639  19.610  52.936  1.00  0.00     0.235 C 
HETATM    2  C3  UNL     1      45.628  21.014  53.436  1.00  0.00     0.272 C 
HETATM    3  N1  UNL     1      45.245  21.985  52.426  1.00  0.00    -0.063 N 
HETATM    4  C4  UNL     1      43.865  22.378  52.543  1.00  0.00     0.237 C 
HETATM    5  C5  UNL     1      43.622  23.443  53.568  1.00  0.00     0.028 C 
HETATM    6  C6  UNL     1      44.473  24.635  53.180  1.00  0.00     0.003 C 
HETATM    7  C7  UNL     1      45.910  24.151  53.398  1.00  0.00     0.028 C 
HETATM    8  C8  UNL     1      46.173  23.069  52.418  1.00  0.00     0.237 C 
HETATM    9  C9  UNL     1      45.374  21.313  51.138  1.00  0.00     0.265 C 
HETATM   10  C10 UNL     1      44.342  20.233  51.007  1.00  0.00     0.260 C 
HETATM   11  N2  UNL     1      44.540  19.280  52.069  1.00  0.00    -0.066 N 
ATOM     12  H21 UNL     1      43.682  19.154  52.605  1.00  0.00     0.277 HD
ATOM     13  H22 UNL     1      44.645  18.337  51.694  1.00  0.00     0.277 HD
ENDROOT
BRANCH   1  14
HETATM   14  C1  UNL     1      45.569  18.656  54.126  1.00  0.00     0.199 C 
BRANCH  14  15
HETATM   15  O1  UNL     1      45.881  17.367  53.766  1.00  0.00    -0.399 OA
ATOM     16  H1  UNL     1      45.823  16.771  54.502  1.00  0.00     0.209 HD
ENDBRANCH  14  15
ENDBRANCH   1  14
TORSDOF 2
ENDMDL
MODEL 2
REMARK VINA RESULT: -4.978237599      1.815      2.773
REMARK  2 active torsions:
REMARK  status: ('A' for Active; 'I' for Inactive)
REMARK    1  A    between atoms: O1_1  and  C1_3 
REMARK    2  A    between atoms: C1_3  and  C2_4 
ROOT
HETATM    1  C2  UNL     1      44.981  20.303  52.507  1.00  0.00     0.235 C 
HETATM    2  C3  UNL     1      44.256  21.231  51.593  1.00  0.00     0.272 C 
HETATM    3  N1  UNL     1      44.407  22.631  51.951  1.00  0.00    -0.063 N 
HETATM    4  C4  UNL     1      45.402  23.294  51.151  1.00  0.00     0.237 C 
HETATM    5  C5  UNL     1      44.901  23.755  49.816  1.00  0.00     0.028 C 
HETATM    6  C6  UNL     1      43.735  24.687  50.079  1.00  0.00     0.003 C 
HETATM    7  C7  UNL     1      42.649  23.771  50.650  1.00  0.00     0.028 C 
HETATM    8  C8  UNL     1      43.131  23.269  51.961  1.00  0.00     0.237 C 
HETATM    9  C9  UNL     1      44.899  22.655  53.323  1.00  0.00     0.265 C 
HETATM   10  C10 UNL     1      46.296  22.116  53.387  1.00  0.00     0.260 C 
HETATM   11  N2  UNL     1      46.287  20.760  52.903  1.00  0.00    -0.066 N 
ATOM     12  H21 UNL     1      46.957  20.643  52.143  1.00  0.00     0.277 HD
ATOM     13  H22 UNL     1      46.698  20.128  53.590  1.00  0.00     0.277 HD
ENDROOT
BRANCH   1  14
HETATM   14  C1  UNL     1      45.174  18.961  51.806  1.00  0.00     0.199 C 
BRANCH  14  15
HETATM   15  O1  UNL     1      45.849  18.063  52.598  1.00  0.00    -0.399 OA
ATOM     16  H1  UNL     1      45.277  17.377  52.919  1.00  0.00     0.209 HD
ENDBRANCH  14  15
ENDBRANCH   1  14
TORSDOF 2
ENDMDL
MODEL 3
REMARK VINA RESULT: -4.958531398      1.548      1.794
REMARK  2 active torsions:
REMARK  status: ('A' for Active; 'I' for Inactive)
REMARK    1  A    between atoms: O1_1  and  C1_3 
REMARK    2  A    between atoms: C1_3  and  C2_4 
ROOT
HETATM    1  C2  UNL     1      44.762  20.704  51.380  1.00  0.00     0.235 C 
HETATM    2  C3  UNL     1      44.849  21.587  52.577  1.00  0.00     0.272 C 
HETATM    3  N1  UNL     1      44.701  22.999  52.267  1.00  0.00    -0.063 N 
HETATM    4  C4  UNL     1      43.370  23.478  52.531  1.00  0.00     0.237 C 
HETATM    5  C5  UNL     1      43.127  23.834  53.966  1.00  0.00     0.028 C 
HETATM    6  C6  UNL     1      44.147  24.890  54.340  1.00  0.00     0.003 C 
HETATM    7  C7  UNL     1      45.484  24.143  54.306  1.00  0.00     0.028 C 
HETATM    8  C8  UNL     1      45.739  23.746  52.899  1.00  0.00     0.237 C 
HETATM    9  C9  UNL     1      44.907  23.129  50.829  1.00  0.00     0.265 C 
HETATM   10  C10 UNL     1      43.785  22.477  50.079  1.00  0.00     0.260 C 
HETATM   11  N2  UNL     1      43.745  21.082  50.436  1.00  0.00    -0.066 N 
ATOM     12  H21 UNL     1      42.820  20.823  50.778  1.00  0.00     0.277 HD
ATOM     13  H22 UNL     1      43.788  20.494  49.602  1.00  0.00     0.277 HD
ENDROOT
BRANCH   1  14
HETATM   14  C1  UNL     1      44.442  19.281  51.831  1.00  0.00     0.199 C 
BRANCH  14  15
HETATM   15  O1  UNL     1      45.515  18.438  51.661  1.00  0.00    -0.399 OA
ATOM     16  H1  UNL     1      46.129  18.499  52.382  1.00  0.00     0.209 HD
ENDBRANCH  14  15
ENDBRANCH   1  14
TORSDOF 2
ENDMDL
MODEL 4
REMARK VINA RESULT: -4.713926519      2.977      3.858
REMARK  2 active torsions:
REMARK  status: ('A' for Active; 'I' for Inactive)
REMARK    1  A    between atoms: O1_1  and  C1_3 
REMARK    2  A    between atoms: C1_3  and  C2_4 
ROOT
HETATM    1  C2  UNL     1      44.583  22.029  51.008  1.00  0.00     0.235 C 
HETATM    2  C3  UNL     1      43.407  22.722  51.608  1.00  0.00     0.272 C 
HETATM    3  N1  UNL     1      43.399  24.156  51.373  1.00  0.00    -0.063 N 
HETATM    4  C4  UNL     1      42.531  24.525  50.285  1.00  0.00     0.237 C 
HETATM    5  C5  UNL     1      41.089  24.645  50.673  1.00  0.00     0.028 C 
HETATM    6  C6  UNL     1      41.012  25.679  51.778  1.00  0.00     0.003 C 
HETATM    7  C7  UNL     1      41.718  25.011  52.962  1.00  0.00     0.028 C 
HETATM    8  C8  UNL     1      43.147  24.846  52.596  1.00  0.00     0.237 C 
HETATM    9  C9  UNL     1      44.751  24.514  50.960  1.00  0.00     0.265 C 
HETATM   10  C10 UNL     1      45.058  23.931  49.613  1.00  0.00     0.260 C 
HETATM   11  N2  UNL     1      44.943  22.498  49.697  1.00  0.00    -0.066 N 
ATOM     12  H21 UNL     1      44.293  22.146  48.995  1.00  0.00     0.277 HD
ATOM     13  H22 UNL     1      45.800  22.047  49.375  1.00  0.00     0.277 HD
ENDROOT
BRANCH   1  14
HETATM   14  C1  UNL     1      44.271  20.540  50.878  1.00  0.00     0.199 C 
BRANCH  14  15
HETATM   15  O1  UNL     1      43.434  20.284  49.818  1.00  0.00    -0.399 OA
ATOM     16  H1  UNL     1      43.447  19.368  49.572  1.00  0.00     0.209 HD
ENDBRANCH  14  15
ENDBRANCH   1  14
TORSDOF 2
ENDMDL
MODEL 5
REMARK VINA RESULT: -4.597415371      2.513      3.455
REMARK  2 active torsions:
REMARK  status: ('A' for Active; 'I' for Inactive)
REMARK    1  A    between atoms: O1_1  and  C1_3 
REMARK    2  A    between atoms: C1_3  and  C2_4 
ROOT
HETATM    1  C2  UNL     1      44.633  20.863  51.661  1.00  0.00     0.235 C 
HETATM    2  C3  UNL     1      43.876  21.923  50.934  1.00  0.00     0.272 C 
HETATM    3  N1  UNL     1      43.889  23.209  51.609  1.00  0.00    -0.063 N 
HETATM    4  C4  UNL     1      44.862  24.109  51.048  1.00  0.00     0.237 C 
HETATM    5  C5  UNL     1      44.389  24.829  49.823  1.00  0.00     0.028 C 
HETATM    6  C6  UNL     1      43.136  25.589  50.212  1.00  0.00     0.003 C 
HETATM    7  C7  UNL     1      42.106  24.489  50.487  1.00  0.00     0.028 C 
HETATM    8  C8  UNL     1      42.565  23.734  51.679  1.00  0.00     0.237 C 
HETATM    9  C9  UNL     1      44.311  22.951  52.981  1.00  0.00     0.265 C 
HETATM   10  C10 UNL     1      45.744  22.514  53.014  1.00  0.00     0.260 C 
HETATM   11  N2  UNL     1      45.874  21.308  52.236  1.00  0.00    -0.066 N 
ATOM     12  H21 UNL     1      46.587  21.419  51.515  1.00  0.00     0.277 HD
ATOM     13  H22 UNL     1      46.304  20.566  52.788  1.00  0.00     0.277 HD
ENDROOT
BRANCH   1  14
HETATM   14  C1  UNL     1      44.972  19.737  50.688  1.00  0.00     0.199 C 
BRANCH  14  15
HETATM   15  O1  UNL     1      45.036  20.184  49.390  1.00  0.00    -0.399 OA
ATOM     16  H1  UNL     1      45.101  21.130  49.346  1.00  0.00     0.209 HD
ENDBRANCH  14  15
ENDBRANCH   1  14
TORSDOF 2
ENDMDL
