MODEL 1
REMARK VINA RESULT: -5.416693761      0.000      0.000
REMARK  4 active torsions:
REMARK  status: ('A' for Active; 'I' for Inactive)
REMARK    1  A    between atoms: C4_6  and  C5_7 
REMARK    2  A    between atoms: C6_8  and  C7_9 
REMARK    3  A    between atoms: C7_9  and  C8_10 
REMARK    4  A    between atoms: C8_10  and  O2_11 
ROOT
HETATM    1  O1  UNL     1      45.275  24.439  50.064  1.00  0.00    -0.062 OA
HETATM    2  N1  UNL     1      44.462  23.712  50.840  1.00  0.00     0.045 N 
HETATM    3  C1  UNL     1      44.027  24.385  52.069  1.00  0.00     0.317 C 
HETATM    4  C2  UNL     1      44.152  23.037  52.759  1.00  0.00     0.082 C 
HETATM    5  C3  UNL     1      45.163  22.743  51.697  1.00  0.00     0.301 C 
HETATM    6  C4  UNL     1      44.946  21.468  50.913  1.00  0.00     0.306 C 
HETATM    7  N2  UNL     1      43.588  21.584  50.488  1.00  0.00    -0.026 N 
ATOM      8  H21 UNL     1      42.908  21.237  51.164  1.00  0.00     0.281 HD
ATOM      9  H22 UNL     1      43.330  20.947  49.734  1.00  0.00     0.281 HD
HETATM   10  C9  UNL     1      43.437  22.981  50.160  1.00  0.00     0.544 C 
ENDROOT
BRANCH   6  11
HETATM   11  C5  UNL     1      45.105  20.273  51.727  1.00  0.00    -0.070 C 
HETATM   12  C6  UNL     1      45.236  19.294  52.421  1.00  0.00    -0.102 C 
BRANCH  12  13
HETATM   13  C7  UNL     1      45.399  18.121  53.280  1.00  0.00     0.119 C 
BRANCH  13  14
HETATM   14  C8  UNL     1      45.854  18.549  54.682  1.00  0.00     0.176 C 
BRANCH  14  15
HETATM   15  O2  UNL     1      47.268  18.565  54.642  1.00  0.00    -0.400 OA
ATOM     16  H2  UNL     1      47.544  17.681  54.850  1.00  0.00     0.209 HD
ENDBRANCH  14  15
ENDBRANCH  13  14
ENDBRANCH  12  13
ENDBRANCH   6  11
TORSDOF 4
ENDMDL
MODEL 2
REMARK VINA RESULT: -5.276578260      1.456      1.658
REMARK  4 active torsions:
REMARK  status: ('A' for Active; 'I' for Inactive)
REMARK    1  A    between atoms: C4_6  and  C5_7 
REMARK    2  A    between atoms: C6_8  and  C7_9 
REMARK    3  A    between atoms: C7_9  and  C8_10 
REMARK    4  A    between atoms: C8_10  and  O2_11 
ROOT
HETATM    1  O1  UNL     1      43.747  24.233  48.330  1.00  0.00    -0.062 OA
HETATM    2  N1  UNL     1      43.818  24.229  49.667  1.00  0.00     0.045 N 
HETATM    3  C1  UNL     1      44.578  25.344  50.242  1.00  0.00     0.317 C 
HETATM    4  C2  UNL     1      45.104  24.356  51.269  1.00  0.00     0.082 C 
HETATM    5  C3  UNL     1      44.852  23.332  50.208  1.00  0.00     0.301 C 
HETATM    6  C4  UNL     1      44.007  22.148  50.620  1.00  0.00     0.306 C 
HETATM    7  N2  UNL     1      42.857  22.764  51.199  1.00  0.00    -0.026 N 
ATOM      8  H21 UNL     1      42.956  22.987  52.189  1.00  0.00     0.281 HD
ATOM      9  H22 UNL     1      42.057  22.140  51.305  1.00  0.00     0.281 HD
HETATM   10  C9  UNL     1      42.607  23.909  50.357  1.00  0.00     0.544 C 
ENDROOT
BRANCH   6  11
HETATM   11  C5  UNL     1      44.662  21.306  51.608  1.00  0.00    -0.070 C 
HETATM   12  C6  UNL     1      45.187  20.600  52.435  1.00  0.00    -0.102 C 
BRANCH  12  13
HETATM   13  C7  UNL     1      45.802  19.743  53.449  1.00  0.00     0.119 C 
BRANCH  13  14
HETATM   14  C8  UNL     1      45.313  18.296  53.289  1.00  0.00     0.176 C 
BRANCH  14  15
HETATM   15  O2  UNL     1      46.134  17.514  54.133  1.00  0.00    -0.400 OA
ATOM     16  H2  UNL     1      46.924  17.337  53.636  1.00  0.00     0.209 HD
ENDBRANCH  14  15
ENDBRANCH  13  14
ENDBRANCH  12  13
ENDBRANCH   6  11
TORSDOF 4
ENDMDL
MODEL 3
REMARK VINA RESULT: -5.184592206      1.017      1.122
REMARK  4 active torsions:
REMARK  status: ('A' for Active; 'I' for Inactive)
REMARK    1  A    between atoms: C4_6  and  C5_7 
REMARK    2  A    between atoms: C6_8  and  C7_9 
REMARK    3  A    between atoms: C7_9  and  C8_10 
REMARK    4  A    between atoms: C8_10  and  O2_11 
ROOT
HETATM    1  O1  UNL     1      44.978  25.424  50.558  1.00  0.00    -0.062 OA
HETATM    2  N1  UNL     1      44.101  24.543  51.054  1.00  0.00     0.045 N 
HETATM    3  C1  UNL     1      43.531  24.914  52.354  1.00  0.00     0.317 C 
HETATM    4  C2  UNL     1      43.606  23.441  52.721  1.00  0.00     0.082 C 
HETATM    5  C3  UNL     1      44.725  23.395  51.731  1.00  0.00     0.301 C 
HETATM    6  C4  UNL     1      44.610  22.339  50.653  1.00  0.00     0.306 C 
HETATM    7  N2  UNL     1      43.302  22.563  50.129  1.00  0.00    -0.026 N 
ATOM      8  H21 UNL     1      42.562  22.074  50.630  1.00  0.00     0.281 HD
ATOM      9  H22 UNL     1      43.134  22.122  49.224  1.00  0.00     0.281 HD
HETATM   10  C9  UNL     1      43.164  23.999  50.121  1.00  0.00     0.544 C 
ENDROOT
BRANCH   6  11
HETATM   11  C5  UNL     1      44.704  20.987  51.179  1.00  0.00    -0.070 C 
HETATM   12  C6  UNL     1      44.779  19.872  51.635  1.00  0.00    -0.102 C 
BRANCH  12  13
HETATM   13  C7  UNL     1      44.874  18.529  52.211  1.00  0.00     0.119 C 
BRANCH  13  14
HETATM   14  C8  UNL     1      45.565  18.586  53.580  1.00  0.00     0.176 C 
BRANCH  14  15
HETATM   15  O2  UNL     1      45.851  17.245  53.926  1.00  0.00    -0.400 OA
ATOM     16  H2  UNL     1      45.240  17.019  54.617  1.00  0.00     0.209 HD
ENDBRANCH  14  15
ENDBRANCH  13  14
ENDBRANCH  12  13
ENDBRANCH   6  11
TORSDOF 4
ENDMDL
MODEL 4
REMARK VINA RESULT: -4.847723635      1.493      2.047
REMARK  4 active torsions:
REMARK  status: ('A' for Active; 'I' for Inactive)
REMARK    1  A    between atoms: C4_6  and  C5_7 
REMARK    2  A    between atoms: C6_8  and  C7_9 
REMARK    3  A    between atoms: C7_9  and  C8_10 
REMARK    4  A    between atoms: C8_10  and  O2_11 
ROOT
HETATM    1  O1  UNL     1      42.995  25.082  51.677  1.00  0.00    -0.062 OA
HETATM    2  N1  UNL     1      44.130  24.424  51.409  1.00  0.00     0.045 N 
HETATM    3  C1  UNL     1      44.476  24.359  49.985  1.00  0.00     0.317 C 
HETATM    4  C2  UNL     1      44.965  22.944  50.247  1.00  0.00     0.082 C 
HETATM    5  C3  UNL     1      43.977  22.961  51.370  1.00  0.00     0.301 C 
HETATM    6  C4  UNL     1      44.519  22.587  52.732  1.00  0.00     0.306 C 
HETATM    7  N2  UNL     1      45.655  23.441  52.867  1.00  0.00    -0.026 N 
ATOM      8  H21 UNL     1      46.512  23.063  52.466  1.00  0.00     0.281 HD
ATOM      9  H22 UNL     1      46.005  23.523  53.821  1.00  0.00     0.281 HD
HETATM   10  C9  UNL     1      45.230  24.691  52.283  1.00  0.00     0.544 C 
ENDROOT
BRANCH   6  11
HETATM   11  C5  UNL     1      44.939  21.197  52.807  1.00  0.00    -0.070 C 
HETATM   12  C6  UNL     1      45.267  20.036  52.867  1.00  0.00    -0.102 C 
BRANCH  12  13
HETATM   13  C7  UNL     1      45.641  18.624  52.944  1.00  0.00     0.119 C 
BRANCH  13  14
HETATM   14  C8  UNL     1      45.827  18.202  54.408  1.00  0.00     0.176 C 
BRANCH  14  15
HETATM   15  O2  UNL     1      47.144  18.580  54.756  1.00  0.00    -0.400 OA
ATOM     16  H2  UNL     1      47.121  18.777  55.685  1.00  0.00     0.209 HD
ENDBRANCH  14  15
ENDBRANCH  13  14
ENDBRANCH  12  13
ENDBRANCH   6  11
TORSDOF 4
ENDMDL
MODEL 5
REMARK VINA RESULT: -4.739475006      1.669      2.319
REMARK  4 active torsions:
REMARK  status: ('A' for Active; 'I' for Inactive)
REMARK    1  A    between atoms: C4_6  and  C5_7 
REMARK    2  A    between atoms: C6_8  and  C7_9 
REMARK    3  A    between atoms: C7_9  and  C8_10 
REMARK    4  A    between atoms: C8_10  and  O2_11 
ROOT
HETATM    1  O1  UNL     1      41.885  24.454  50.145  1.00  0.00    -0.062 OA
HETATM    2  N1  UNL     1      43.190  24.365  50.429  1.00  0.00     0.045 N 
HETATM    3  C1  UNL     1      44.078  24.490  49.268  1.00  0.00     0.317 C 
HETATM    4  C2  UNL     1      44.948  23.425  49.914  1.00  0.00     0.082 C 
HETATM    5  C3  UNL     1      43.678  22.982  50.568  1.00  0.00     0.301 C 
HETATM    6  C4  UNL     1      43.721  22.852  52.074  1.00  0.00     0.306 C 
HETATM    7  N2  UNL     1      44.247  24.112  52.487  1.00  0.00    -0.026 N 
ATOM      8  H21 UNL     1      45.265  24.155  52.502  1.00  0.00     0.281 HD
ATOM      9  H22 UNL     1      44.112  24.317  53.478  1.00  0.00     0.281 HD
HETATM   10  C9  UNL     1      43.627  25.064  51.598  1.00  0.00     0.544 C 
ENDROOT
BRANCH   6  11
HETATM   11  C5  UNL     1      44.600  21.782  52.520  1.00  0.00    -0.070 C 
HETATM   12  C6  UNL     1      45.314  20.881  52.887  1.00  0.00    -0.102 C 
BRANCH  12  13
HETATM   13  C7  UNL     1      46.160  19.774  53.333  1.00  0.00     0.119 C 
BRANCH  13  14
HETATM   14  C8  UNL     1      45.360  18.463  53.339  1.00  0.00     0.176 C 
BRANCH  14  15
HETATM   15  O2  UNL     1      46.127  17.545  54.092  1.00  0.00    -0.400 OA
ATOM     16  H2  UNL     1      45.733  16.693  53.943  1.00  0.00     0.209 HD
ENDBRANCH  14  15
ENDBRANCH  13  14
ENDBRANCH  12  13
ENDBRANCH   6  11
TORSDOF 4
ENDMDL
