MODEL 1
REMARK VINA RESULT: -5.035699788      0.000      0.000
REMARK  2 active torsions:
REMARK  status: ('A' for Active; 'I' for Inactive)
REMARK    1  A    between atoms: C2_2  and  N1_3 
REMARK    2  A    between atoms: C8_11  and  O1_12 
ROOT
HETATM    1  N1  UNL     1      44.489  23.023  52.308  1.00  0.00    -0.014 N 
HETATM    2  C3  UNL     1      43.066  23.364  52.394  1.00  0.00     0.289 C 
HETATM    3  C4  UNL     1      44.706  21.758  51.910  1.00  0.00     0.037 C 
HETATM    4  C5  UNL     1      44.745  20.585  51.141  1.00  0.00     0.117 C 
HETATM    5  C6  UNL     1      45.542  19.581  52.039  1.00  0.00     0.057 C 
HETATM    6  C7  UNL     1      45.431  19.780  53.477  1.00  0.00     0.059 C 
HETATM    7  N2  UNL     1      45.940  20.777  54.271  1.00  0.00    -0.375 N 
ATOM      8  H2  UNL     1      46.324  20.441  55.154  1.00  0.00     0.161 HD
HETATM    9  C8  UNL     1      46.034  22.118  54.112  1.00  0.00     0.244 C 
HETATM   10  C9  UNL     1      44.954  23.071  53.728  1.00  0.00     0.305 C 
ENDROOT
BRANCH   1  11
HETATM   11  C2  UNL     1      45.077  24.081  51.545  1.00  0.00     0.248 C 
HETATM   12  C1  UNL     1      44.793  24.036  50.081  1.00  0.00     0.036 C 
ENDBRANCH   1  11
BRANCH   9  13
HETATM   13  O1  UNL     1      46.420  22.643  55.396  1.00  0.00    -0.375 OA
ATOM     14  H1  UNL     1      47.014  23.363  55.216  1.00  0.00     0.212 HD
ENDBRANCH   9  13
TORSDOF 2
ENDMDL
MODEL 2
REMARK VINA RESULT: -4.956137871      2.102      2.827
REMARK  2 active torsions:
REMARK  status: ('A' for Active; 'I' for Inactive)
REMARK    1  A    between atoms: C2_2  and  N1_3 
REMARK    2  A    between atoms: C8_11  and  O1_12 
ROOT
HETATM    1  N1  UNL     1      45.988  21.832  53.331  1.00  0.00    -0.014 N 
HETATM    2  C3  UNL     1      45.039  22.714  54.015  1.00  0.00     0.289 C 
HETATM    3  C4  UNL     1      45.511  21.334  52.177  1.00  0.00     0.037 C 
HETATM    4  C5  UNL     1      45.017  21.228  50.868  1.00  0.00     0.117 C 
HETATM    5  C6  UNL     1      44.895  19.683  50.644  1.00  0.00     0.057 C 
HETATM    6  C7  UNL     1      44.639  18.882  51.832  1.00  0.00     0.059 C 
HETATM    7  N2  UNL     1      45.461  18.587  52.891  1.00  0.00    -0.375 N 
ATOM      8  H2  UNL     1      45.399  17.617  53.200  1.00  0.00     0.161 HD
HETATM    9  C8  UNL     1      46.339  19.330  53.605  1.00  0.00     0.244 C 
HETATM   10  C9  UNL     1      46.106  20.656  54.245  1.00  0.00     0.305 C 
ENDROOT
BRANCH   1  11
HETATM   11  C2  UNL     1      47.214  22.569  53.290  1.00  0.00     0.248 C 
HETATM   12  C1  UNL     1      47.447  23.473  54.454  1.00  0.00     0.036 C 
ENDBRANCH   1  11
BRANCH   9  13
HETATM   13  O1  UNL     1      46.695  18.532  54.749  1.00  0.00    -0.375 OA
ATOM     14  H1  UNL     1      47.645  18.510  54.768  1.00  0.00     0.212 HD
ENDBRANCH   9  13
TORSDOF 2
ENDMDL
MODEL 3
REMARK VINA RESULT: -4.773034929      2.360      3.330
REMARK  2 active torsions:
REMARK  status: ('A' for Active; 'I' for Inactive)
REMARK    1  A    between atoms: C2_2  and  N1_3 
REMARK    2  A    between atoms: C8_11  and  O1_12 
ROOT
HETATM    1  N1  UNL     1      44.723  22.962  52.851  1.00  0.00    -0.014 N 
HETATM    2  C3  UNL     1      45.930  23.790  52.928  1.00  0.00     0.289 C 
HETATM    3  C4  UNL     1      44.983  21.644  52.861  1.00  0.00     0.037 C 
HETATM    4  C5  UNL     1      45.402  20.366  53.260  1.00  0.00     0.117 C 
HETATM    5  C6  UNL     1      44.950  19.444  52.078  1.00  0.00     0.057 C 
HETATM    6  C7  UNL     1      44.896  20.067  50.764  1.00  0.00     0.059 C 
HETATM    7  N2  UNL     1      44.024  21.004  50.267  1.00  0.00    -0.375 N 
ATOM      8  H2  UNL     1      43.728  20.819  49.309  1.00  0.00     0.161 HD
HETATM    9  C8  UNL     1      43.480  22.123  50.799  1.00  0.00     0.244 C 
HETATM   10  C9  UNL     1      44.184  23.244  51.486  1.00  0.00     0.305 C 
ENDROOT
BRANCH   1  11
HETATM   11  C2  UNL     1      43.852  23.485  53.859  1.00  0.00     0.248 C 
HETATM   12  C1  UNL     1      43.051  24.675  53.448  1.00  0.00     0.036 C 
ENDBRANCH   1  11
BRANCH   9  13
HETATM   13  O1  UNL     1      42.858  22.820  49.704  1.00  0.00    -0.375 OA
ATOM     14  H1  UNL     1      42.557  23.649  50.058  1.00  0.00     0.212 HD
ENDBRANCH   9  13
TORSDOF 2
ENDMDL
MODEL 4
REMARK VINA RESULT: -4.673000103      2.352      3.167
REMARK  2 active torsions:
REMARK  status: ('A' for Active; 'I' for Inactive)
REMARK    1  A    between atoms: C2_2  and  N1_3 
REMARK    2  A    between atoms: C8_11  and  O1_12 
ROOT
HETATM    1  N1  UNL     1      44.124  23.378  51.765  1.00  0.00    -0.014 N 
HETATM    2  C3  UNL     1      44.898  24.471  51.170  1.00  0.00     0.289 C 
HETATM    3  C4  UNL     1      44.785  22.732  52.741  1.00  0.00     0.037 C 
HETATM    4  C5  UNL     1      45.447  22.443  53.944  1.00  0.00     0.117 C 
HETATM    5  C6  UNL     1      45.734  20.907  53.847  1.00  0.00     0.057 C 
HETATM    6  C7  UNL     1      45.909  20.371  52.505  1.00  0.00     0.059 C 
HETATM    7  N2  UNL     1      44.990  20.187  51.503  1.00  0.00    -0.375 N 
ATOM      8  H2  UNL     1      45.100  19.303  51.005  1.00  0.00     0.161 HD
HETATM    9  C8  UNL     1      43.967  20.945  51.045  1.00  0.00     0.244 C 
HETATM   10  C9  UNL     1      43.998  22.384  50.656  1.00  0.00     0.305 C 
ENDROOT
BRANCH   1  11
HETATM   11  C2  UNL     1      42.852  23.953  52.079  1.00  0.00     0.248 C 
HETATM   12  C1  UNL     1      41.934  24.128  50.916  1.00  0.00     0.036 C 
ENDBRANCH   1  11
BRANCH   9  13
HETATM   13  O1  UNL     1      43.543  20.337  49.812  1.00  0.00    -0.375 OA
ATOM     14  H1  UNL     1      43.799  20.938  49.122  1.00  0.00     0.212 HD
ENDBRANCH   9  13
TORSDOF 2
ENDMDL
MODEL 5
REMARK VINA RESULT: -4.663572909      1.490      1.785
REMARK  2 active torsions:
REMARK  status: ('A' for Active; 'I' for Inactive)
REMARK    1  A    between atoms: C2_2  and  N1_3 
REMARK    2  A    between atoms: C8_11  and  O1_12 
ROOT
HETATM    1  N1  UNL     1      44.776  22.892  52.918  1.00  0.00    -0.014 N 
HETATM    2  C3  UNL     1      43.634  23.467  53.636  1.00  0.00     0.289 C 
HETATM    3  C4  UNL     1      44.418  22.204  51.821  1.00  0.00     0.037 C 
HETATM    4  C5  UNL     1      43.911  21.872  50.555  1.00  0.00     0.117 C 
HETATM    5  C6  UNL     1      44.275  20.358  50.397  1.00  0.00     0.057 C 
HETATM    6  C7  UNL     1      44.355  19.586  51.628  1.00  0.00     0.059 C 
HETATM    7  N2  UNL     1      45.286  19.627  52.636  1.00  0.00    -0.375 N 
ATOM      8  H2  UNL     1      45.553  18.706  52.983  1.00  0.00     0.161 HD
HETATM    9  C8  UNL     1      45.920  20.648  53.258  1.00  0.00     0.244 C 
HETATM   10  C9  UNL     1      45.313  21.867  53.864  1.00  0.00     0.305 C 
ENDROOT
BRANCH   1  11
HETATM   11  C2  UNL     1      45.698  23.974  52.764  1.00  0.00     0.248 C 
HETATM   12  C1  UNL     1      45.186  25.135  51.978  1.00  0.00     0.036 C 
ENDBRANCH   1  11
BRANCH   9  13
HETATM   13  O1  UNL     1      46.575  20.070  54.402  1.00  0.00    -0.375 OA
ATOM     14  H1  UNL     1      45.885  19.858  55.019  1.00  0.00     0.212 HD
ENDBRANCH   9  13
TORSDOF 2
ENDMDL
