MODEL 1
REMARK VINA RESULT: -6.540636130      0.000      0.000
REMARK  1 active torsions:
REMARK  status: ('A' for Active; 'I' for Inactive)
REMARK    1  A    between atoms: C2_2  and  N1_3 
REMARK       I    between atoms: N1_3  and  C3_5 
REMARK       I    between atoms: C3_5  and  N5_15 
REMARK       I    between atoms: N2_6  and  C4_8 
REMARK       I    between atoms: C4_8  and  N4_12 
ROOT
HETATM    1  N1  UNL     1       7.409   4.035  25.124  1.00  0.00    -0.225 N 
ATOM      2  H1  UNL     1       7.001   3.202  24.699  1.00  0.00     0.177 HD
HETATM    3  C3  UNL     1       7.166   5.298  24.533  1.00  0.00     0.705 C 
HETATM    4  N2  UNL     1       8.006   5.767  23.673  1.00  0.00    -0.021 N 
ATOM      5  H2  UNL     1       7.808   6.680  23.263  1.00  0.00     0.203 HD
HETATM    6  C4  UNL     1       9.182   5.101  23.263  1.00  0.00     0.702 C 
HETATM    7  N3  UNL     1      10.320   5.585  23.580  1.00  0.00    -0.229 N 
ATOM      8  H3  UNL     1      11.166   5.099  23.281  1.00  0.00     0.177 HD
HETATM    9  C5  UNL     1      10.447   6.806  24.353  1.00  0.00     0.165 C 
HETATM   10  N4  UNL     1       9.087   3.914  22.511  1.00  0.00    -0.131 N 
ATOM     11  H4  UNL     1       8.539   3.889  21.651  1.00  0.00     0.199 HD
HETATM   12 CL1  UNL     1       9.914   2.494  23.065  1.00  0.00     0.026 Cl
HETATM   13  N5  UNL     1       6.035   6.104  24.829  1.00  0.00    -0.140 N 
HETATM   14  C6  UNL     1       4.808   6.040  24.057  1.00  0.00     0.190 C 
HETATM   15  C7  UNL     1       3.819   7.029  24.581  1.00  0.00     0.260 C 
HETATM   16  N6  UNL     1       4.359   8.320  24.873  1.00  0.00    -0.056 N 
HETATM   17  C8  UNL     1       4.395   9.070  23.615  1.00  0.00     0.274 C 
HETATM   18  C9  UNL     1       3.373   9.014  25.715  1.00  0.00     0.274 C 
HETATM   19  C10 UNL     1       5.640   8.308  25.506  1.00  0.00     0.279 C 
HETATM   20  C11 UNL     1       6.733   8.875  24.592  1.00  0.00     0.059 C 
HETATM   21  N7  UNL     1       6.091   6.988  25.888  1.00  0.00    -0.188 NA
HETATM   22  C12 UNL     1       5.405   6.471  27.042  1.00  0.00     0.139 C 
ENDROOT
BRANCH   1  23
HETATM   23  C2  UNL     1       8.218   3.894  26.311  1.00  0.00     0.134 C 
HETATM   24  C1  UNL     1       8.788   2.498  26.411  1.00  0.00     0.027 C 
ENDBRANCH   1  23
TORSDOF 1
ENDMDL
MODEL 2
REMARK VINA RESULT: -5.655112090      1.667      1.959
REMARK  1 active torsions:
REMARK  status: ('A' for Active; 'I' for Inactive)
REMARK    1  A    between atoms: C2_2  and  N1_3 
REMARK       I    between atoms: N1_3  and  C3_5 
REMARK       I    between atoms: C3_5  and  N5_15 
REMARK       I    between atoms: N2_6  and  C4_8 
REMARK       I    between atoms: C4_8  and  N4_12 
ROOT
HETATM    1  N1  UNL     1       6.458   5.171  27.046  1.00  0.00    -0.225 N 
ATOM      2  H1  UNL     1       5.964   4.303  27.253  1.00  0.00     0.177 HD
HETATM    3  C3  UNL     1       6.213   5.827  25.816  1.00  0.00     0.705 C 
HETATM    4  N2  UNL     1       6.974   5.577  24.803  1.00  0.00    -0.021 N 
ATOM      5  H2  UNL     1       6.776   6.063  23.928  1.00  0.00     0.203 HD
HETATM    6  C4  UNL     1       8.061   4.676  24.827  1.00  0.00     0.702 C 
HETATM    7  N3  UNL     1       9.250   5.126  24.709  1.00  0.00    -0.229 N 
ATOM      8  H3  UNL     1      10.032   4.470  24.727  1.00  0.00     0.177 HD
HETATM    9  C5  UNL     1       9.524   6.542  24.552  1.00  0.00     0.165 C 
HETATM   10  N4  UNL     1       7.823   3.296  24.978  1.00  0.00    -0.131 N 
ATOM     11  H4  UNL     1       7.181   2.811  24.351  1.00  0.00     0.199 HD
HETATM   12 CL1  UNL     1       8.636   2.433  26.243  1.00  0.00     0.026 Cl
HETATM   13  N5  UNL     1       5.164   6.762  25.614  1.00  0.00    -0.140 N 
HETATM   14  C6  UNL     1       3.856   6.373  25.120  1.00  0.00     0.190 C 
HETATM   15  C7  UNL     1       2.983   7.576  24.976  1.00  0.00     0.260 C 
HETATM   16  N6  UNL     1       3.616   8.707  24.373  1.00  0.00    -0.056 N 
HETATM   17  C8  UNL     1       3.547   8.523  22.922  1.00  0.00     0.274 C 
HETATM   18  C9  UNL     1       2.766   9.874  24.660  1.00  0.00     0.274 C 
HETATM   19  C10 UNL     1       4.958   8.946  24.803  1.00  0.00     0.279 C 
HETATM   20  C11 UNL     1       5.968   8.713  23.672  1.00  0.00     0.059 C 
HETATM   21  N7  UNL     1       5.382   8.097  25.893  1.00  0.00    -0.188 NA
HETATM   22  C12 UNL     1       4.806   8.472  27.156  1.00  0.00     0.139 C 
ENDROOT
BRANCH   1  23
HETATM   23  C2  UNL     1       7.387   5.699  28.016  1.00  0.00     0.134 C 
HETATM   24  C1  UNL     1       7.724   4.659  29.061  1.00  0.00     0.027 C 
ENDBRANCH   1  23
TORSDOF 1
ENDMDL
MODEL 3
REMARK VINA RESULT: -5.251336530      3.174      6.087
REMARK  1 active torsions:
REMARK  status: ('A' for Active; 'I' for Inactive)
REMARK    1  A    between atoms: C2_2  and  N1_3 
REMARK       I    between atoms: N1_3  and  C3_5 
REMARK       I    between atoms: C3_5  and  N5_15 
REMARK       I    between atoms: N2_6  and  C4_8 
REMARK       I    between atoms: C4_8  and  N4_12 
ROOT
HETATM    1  N1  UNL     1       8.419   7.808  24.666  1.00  0.00    -0.225 N 
ATOM      2  H1  UNL     1       7.601   8.366  24.420  1.00  0.00     0.177 HD
HETATM    3  C3  UNL     1       9.441   7.623  23.704  1.00  0.00     0.705 C 
HETATM    4  N2  UNL     1       9.411   6.582  22.941  1.00  0.00    -0.021 N 
ATOM      5  H2  UNL     1      10.159   6.472  22.256  1.00  0.00     0.203 HD
HETATM    6  C4  UNL     1       8.411   5.586  22.992  1.00  0.00     0.702 C 
HETATM    7  N3  UNL     1       8.716   4.411  23.388  1.00  0.00    -0.229 N 
ATOM      8  H3  UNL     1       7.990   3.696  23.422  1.00  0.00     0.177 HD
HETATM    9  C5  UNL     1      10.066   4.063  23.791  1.00  0.00     0.165 C 
HETATM   10  N4  UNL     1       7.093   5.897  22.605  1.00  0.00    -0.131 N 
ATOM     11  H4  UNL     1       6.907   6.314  21.693  1.00  0.00     0.199 HD
HETATM   12 CL1  UNL     1       5.791   5.562  23.700  1.00  0.00     0.026 Cl
HETATM   13  N5  UNL     1      10.522   8.524  23.516  1.00  0.00    -0.140 N 
HETATM   14  C6  UNL     1      10.473   9.612  22.556  1.00  0.00     0.190 C 
HETATM   15  C7  UNL     1      11.767  10.358  22.560  1.00  0.00     0.260 C 
HETATM   16  N6  UNL     1      12.934   9.533  22.578  1.00  0.00    -0.056 N 
HETATM   17  C8  UNL     1      13.206   9.133  21.196  1.00  0.00     0.274 C 
HETATM   18  C9  UNL     1      14.061  10.398  22.963  1.00  0.00     0.274 C 
HETATM   19  C10 UNL     1      12.856   8.397  23.441  1.00  0.00     0.279 C 
HETATM   20  C11 UNL     1      12.845   7.081  22.652  1.00  0.00     0.059 C 
HETATM   21  N7  UNL     1      11.670   8.372  24.268  1.00  0.00    -0.188 NA
HETATM   22  C12 UNL     1      11.719   9.317  25.351  1.00  0.00     0.139 C 
ENDROOT
BRANCH   1  23
HETATM   23  C2  UNL     1       8.505   7.230  25.985  1.00  0.00     0.134 C 
HETATM   24  C1  UNL     1       7.138   7.149  26.627  1.00  0.00     0.027 C 
ENDBRANCH   1  23
TORSDOF 1
ENDMDL
MODEL 4
REMARK VINA RESULT: -5.092142551      2.744      6.017
REMARK  1 active torsions:
REMARK  status: ('A' for Active; 'I' for Inactive)
REMARK    1  A    between atoms: C2_2  and  N1_3 
REMARK       I    between atoms: N1_3  and  C3_5 
REMARK       I    between atoms: C3_5  and  N5_15 
REMARK       I    between atoms: N2_6  and  C4_8 
REMARK       I    between atoms: C4_8  and  N4_12 
ROOT
HETATM    1  N1  UNL     1       5.633   8.122  24.968  1.00  0.00    -0.225 N 
ATOM      2  H1  UNL     1       5.175   8.505  24.141  1.00  0.00     0.177 HD
HETATM    3  C3  UNL     1       6.011   6.758  24.977  1.00  0.00     0.705 C 
HETATM    4  N2  UNL     1       5.200   5.879  25.464  1.00  0.00    -0.021 N 
ATOM      5  H2  UNL     1       5.497   4.903  25.458  1.00  0.00     0.203 HD
HETATM    6  C4  UNL     1       3.930   6.180  26.003  1.00  0.00     0.702 C 
HETATM    7  N3  UNL     1       3.727   6.023  27.254  1.00  0.00    -0.229 N 
ATOM      8  H3  UNL     1       2.807   6.242  27.637  1.00  0.00     0.177 HD
HETATM    9  C5  UNL     1       4.765   5.543  28.146  1.00  0.00     0.165 C 
HETATM   10  N4  UNL     1       2.904   6.647  25.159  1.00  0.00    -0.131 N 
ATOM     11  H4  UNL     1       2.643   6.122  24.324  1.00  0.00     0.199 HD
HETATM   12 CL1  UNL     1       2.091   8.126  25.556  1.00  0.00     0.026 Cl
HETATM   13  N5  UNL     1       7.250   6.278  24.476  1.00  0.00    -0.140 N 
HETATM   14  C6  UNL     1       7.414   5.822  23.108  1.00  0.00     0.190 C 
HETATM   15  C7  UNL     1       8.812   5.343  22.890  1.00  0.00     0.260 C 
HETATM   16  N6  UNL     1       9.333   4.520  23.937  1.00  0.00    -0.056 N 
HETATM   17  C8  UNL     1       8.861   3.155  23.694  1.00  0.00     0.274 C 
HETATM   18  C9  UNL     1      10.792   4.469  23.752  1.00  0.00     0.274 C 
HETATM   19  C10 UNL     1       9.010   4.953  25.261  1.00  0.00     0.279 C 
HETATM   20  C11 UNL     1       8.068   3.969  25.967  1.00  0.00     0.059 C 
HETATM   21  N7  UNL     1       8.349   6.238  25.310  1.00  0.00    -0.188 NA
HETATM   22  C12 UNL     1       9.240   7.338  25.061  1.00  0.00     0.139 C 
ENDROOT
BRANCH   1  23
HETATM   23  C2  UNL     1       5.878   8.985  26.099  1.00  0.00     0.134 C 
HETATM   24  C1  UNL     1       5.035  10.237  26.013  1.00  0.00     0.027 C 
ENDBRANCH   1  23
TORSDOF 1
ENDMDL
MODEL 5
REMARK VINA RESULT: -4.980114902      3.330      6.223
REMARK  1 active torsions:
REMARK  status: ('A' for Active; 'I' for Inactive)
REMARK    1  A    between atoms: C2_2  and  N1_3 
REMARK       I    between atoms: N1_3  and  C3_5 
REMARK       I    between atoms: C3_5  and  N5_15 
REMARK       I    between atoms: N2_6  and  C4_8 
REMARK       I    between atoms: C4_8  and  N4_12 
ROOT
HETATM    1  N1  UNL     1       3.728   7.697  26.700  1.00  0.00    -0.225 N 
ATOM      2  H1  UNL     1       2.871   7.669  26.149  1.00  0.00     0.177 HD
HETATM    3  C3  UNL     1       4.619   6.598  26.646  1.00  0.00     0.705 C 
HETATM    4  N2  UNL     1       4.516   5.655  27.520  1.00  0.00    -0.021 N 
ATOM      5  H2  UNL     1       5.170   4.875  27.458  1.00  0.00     0.203 HD
HETATM    6  C4  UNL     1       3.557   5.632  28.557  1.00  0.00     0.702 C 
HETATM    7  N3  UNL     1       3.942   5.748  29.770  1.00  0.00    -0.229 N 
ATOM      8  H3  UNL     1       3.245   5.731  30.514  1.00  0.00     0.177 HD
HETATM    9  C5  UNL     1       5.342   5.905  30.119  1.00  0.00     0.165 C 
HETATM   10  N4  UNL     1       2.192   5.482  28.246  1.00  0.00    -0.131 N 
ATOM     11  H4  UNL     1       1.877   4.700  27.671  1.00  0.00     0.199 HD
HETATM   12 CL1  UNL     1       1.054   6.641  28.851  1.00  0.00     0.026 Cl
HETATM   13  N5  UNL     1       5.642   6.459  25.671  1.00  0.00    -0.140 N 
HETATM   14  C6  UNL     1       5.439   5.746  24.423  1.00  0.00     0.190 C 
HETATM   15  C7  UNL     1       6.702   5.735  23.626  1.00  0.00     0.260 C 
HETATM   16  N6  UNL     1       7.883   5.446  24.378  1.00  0.00    -0.056 N 
HETATM   17  C8  UNL     1       7.981   3.989  24.492  1.00  0.00     0.274 C 
HETATM   18  C9  UNL     1       9.028   5.851  23.547  1.00  0.00     0.274 C 
HETATM   19  C10 UNL     1       7.948   6.071  25.662  1.00  0.00     0.279 C 
HETATM   20  C11 UNL     1       7.867   5.046  26.800  1.00  0.00     0.059 C 
HETATM   21  N7  UNL     1       6.883   7.018  25.906  1.00  0.00    -0.188 NA
HETATM   22  C12 UNL     1       7.050   8.251  25.185  1.00  0.00     0.139 C 
ENDROOT
BRANCH   1  23
HETATM   23  C2  UNL     1       4.002   8.856  27.516  1.00  0.00     0.134 C 
HETATM   24  C1  UNL     1       2.745   9.667  27.738  1.00  0.00     0.027 C 
ENDBRANCH   1  23
TORSDOF 1
ENDMDL
