MODEL 1
REMARK VINA RESULT: -5.414497474      0.000      0.000
REMARK  4 active torsions:
REMARK  status: ('A' for Active; 'I' for Inactive)
REMARK    1  A    between atoms: C3_3  and  C4_4 
REMARK    2  A    between atoms: C5_5  and  N1_6 
REMARK       I    between atoms: N1_6  and  C6_8 
REMARK       I    between atoms: C6_8  and  N2_10 
REMARK    3  A    between atoms: N3_13  and  C9_14 
REMARK    4  A    between atoms: C9_14  and  C10_18 
ROOT
HETATM    1  C1  UNL     1       7.984  -1.224  25.266  1.00  0.00     0.113 C 
HETATM    2  C2  UNL     1       8.549   0.062  24.832  1.00  0.00    -0.097 C 
HETATM    3  C3  UNL     1       9.025   1.116  24.493  1.00  0.00    -0.014 C 
ENDROOT
BRANCH   3   4
HETATM    4  C4  UNL     1       9.593   2.365  24.117  1.00  0.00     0.008 C 
HETATM    5  C5  UNL     1      10.095   3.425  23.807  1.00  0.00     0.028 C 
BRANCH   5   6
HETATM    6  N1  UNL     1      10.698   4.646  23.454  1.00  0.00    -0.267 N 
HETATM    7  C6  UNL     1      10.269   5.844  24.090  1.00  0.00     0.330 C 
HETATM    8  O1  UNL     1       9.353   5.815  24.966  1.00  0.00    -0.246 OA
HETATM    9  N2  UNL     1      10.883   7.063  23.724  1.00  0.00    -0.330 N 
HETATM   10  C7  UNL     1      11.917   7.023  22.718  1.00  0.00     0.147 C 
HETATM   11  C12 UNL     1      10.444   8.270  24.378  1.00  0.00     0.147 C 
HETATM   12  C8  UNL     1      12.419   8.381  22.302  1.00  0.00     0.144 C 
HETATM   13  N3  UNL     1      12.538   9.191  23.491  1.00  0.00    -0.367 N 
HETATM   14  C11 UNL     1      11.512   9.318  24.482  1.00  0.00     0.144 C 
ATOM     15  H1  UNL     1      11.436   4.673  22.749  1.00  0.00     0.181 HD
BRANCH  13  16
HETATM   16  C9  UNL     1      13.747   9.906  23.687  1.00  0.00     0.083 C 
HETATM   17  N4  UNL     1      14.586   9.464  24.531  1.00  0.00    -0.388 N 
ATOM     18  H42 UNL     1      14.445   8.617  25.082  1.00  0.00     0.157 HD
ATOM     19  H41 UNL     1      15.455   9.978  24.673  1.00  0.00     0.157 HD
BRANCH  16  20
HETATM   20  C10 UNL     1      13.953  11.137  22.885  1.00  0.00     0.161 C 
HETATM   21 BR1  UNL     1      15.361  10.820  21.604  1.00  0.00    -0.088 Br
ENDBRANCH  16  20
ENDBRANCH  13  16
ENDBRANCH   5   6
ENDBRANCH   3   4
TORSDOF 4
ENDMDL
MODEL 2
REMARK VINA RESULT: -5.340856921      2.358      2.854
REMARK  4 active torsions:
REMARK  status: ('A' for Active; 'I' for Inactive)
REMARK    1  A    between atoms: C3_3  and  C4_4 
REMARK    2  A    between atoms: C5_5  and  N1_6 
REMARK       I    between atoms: N1_6  and  C6_8 
REMARK       I    between atoms: C6_8  and  N2_10 
REMARK    3  A    between atoms: N3_13  and  C9_14 
REMARK    4  A    between atoms: C9_14  and  C10_18 
ROOT
HETATM    1  C1  UNL     1       8.099  -1.222  25.631  1.00  0.00     0.113 C 
HETATM    2  C2  UNL     1       8.442   0.192  25.419  1.00  0.00    -0.097 C 
HETATM    3  C3  UNL     1       8.723   1.348  25.225  1.00  0.00    -0.014 C 
ENDROOT
BRANCH   3   4
HETATM    4  C4  UNL     1       9.064   2.706  24.974  1.00  0.00     0.008 C 
HETATM    5  C5  UNL     1       9.360   3.859  24.740  1.00  0.00     0.028 C 
BRANCH   5   6
HETATM    6  N1  UNL     1       9.703   5.192  24.445  1.00  0.00    -0.267 N 
HETATM    7  C6  UNL     1      10.916   5.461  23.752  1.00  0.00     0.330 C 
HETATM    8  O1  UNL     1      11.682   4.513  23.403  1.00  0.00    -0.246 OA
HETATM    9  N2  UNL     1      11.247   6.804  23.463  1.00  0.00    -0.330 N 
HETATM   10  C7  UNL     1      10.331   7.833  23.893  1.00  0.00     0.147 C 
HETATM   11  C12 UNL     1      12.476   7.065  22.758  1.00  0.00     0.147 C 
HETATM   12  C8  UNL     1      10.831   9.235  23.658  1.00  0.00     0.144 C 
HETATM   13  N3  UNL     1      11.464   9.266  22.361  1.00  0.00    -0.367 N 
HETATM   14  C11 UNL     1      12.432   8.307  21.917  1.00  0.00     0.144 C 
ATOM     15  H1  UNL     1       9.089   5.957  24.724  1.00  0.00     0.181 HD
BRANCH  13  16
HETATM   16  C9  UNL     1      11.106  10.312  21.473  1.00  0.00     0.083 C 
HETATM   17  N4  UNL     1      11.805  10.492  20.429  1.00  0.00    -0.388 N 
ATOM     18  H42 UNL     1      12.617   9.924  20.185  1.00  0.00     0.157 HD
ATOM     19  H41 UNL     1      11.548  11.244  19.791  1.00  0.00     0.157 HD
BRANCH  16  20
HETATM   20  C10 UNL     1       9.925  11.137  21.829  1.00  0.00     0.161 C 
HETATM   21 BR1  UNL     1       8.688  11.128  20.348  1.00  0.00    -0.088 Br
ENDBRANCH  16  20
ENDBRANCH  13  16
ENDBRANCH   5   6
ENDBRANCH   3   4
TORSDOF 4
ENDMDL
MODEL 3
REMARK VINA RESULT: -5.294022185      6.054      8.820
REMARK  4 active torsions:
REMARK  status: ('A' for Active; 'I' for Inactive)
REMARK    1  A    between atoms: C3_3  and  C4_4 
REMARK    2  A    between atoms: C5_5  and  N1_6 
REMARK       I    between atoms: N1_6  and  C6_8 
REMARK       I    between atoms: C6_8  and  N2_10 
REMARK    3  A    between atoms: N3_13  and  C9_14 
REMARK    4  A    between atoms: C9_14  and  C10_18 
ROOT
HETATM    1  C1  UNL     1       1.041  11.137  24.408  1.00  0.00     0.113 C 
HETATM    2  C2  UNL     1       2.074  10.099  24.272  1.00  0.00    -0.097 C 
HETATM    3  C3  UNL     1       2.922   9.248  24.180  1.00  0.00    -0.014 C 
ENDROOT
BRANCH   3   4
HETATM    4  C4  UNL     1       3.934   8.252  24.095  1.00  0.00     0.008 C 
HETATM    5  C5  UNL     1       4.799   7.402  24.042  1.00  0.00     0.028 C 
BRANCH   5   6
HETATM    6  N1  UNL     1       5.798   6.413  24.004  1.00  0.00    -0.267 N 
HETATM    7  C6  UNL     1       6.429   6.015  25.215  1.00  0.00     0.330 C 
HETATM    8  O1  UNL     1       6.098   6.545  26.319  1.00  0.00    -0.246 OA
HETATM    9  N2  UNL     1       7.431   5.020  25.162  1.00  0.00    -0.330 N 
HETATM   10  C7  UNL     1       7.762   4.462  23.873  1.00  0.00     0.147 C 
HETATM   11  C12 UNL     1       8.062   4.622  26.395  1.00  0.00     0.147 C 
HETATM   12  C8  UNL     1       8.927   3.509  23.898  1.00  0.00     0.144 C 
HETATM   13  N3  UNL     1       8.799   2.687  25.078  1.00  0.00    -0.367 N 
HETATM   14  C11 UNL     1       8.543   3.201  26.391  1.00  0.00     0.144 C 
ATOM     15  H1  UNL     1       6.067   5.985  23.119  1.00  0.00     0.181 HD
BRANCH  13  16
HETATM   16  C9  UNL     1       8.938   1.283  24.926  1.00  0.00     0.083 C 
HETATM   17  N4  UNL     1       9.382   0.831  23.827  1.00  0.00    -0.388 N 
ATOM     18  H42 UNL     1       9.651   1.418  23.038  1.00  0.00     0.157 HD
ATOM     19  H41 UNL     1       9.481  -0.178  23.718  1.00  0.00     0.157 HD
BRANCH  16  20
HETATM   20  C10 UNL     1       8.548   0.428  26.075  1.00  0.00     0.161 C 
HETATM   21 BR1  UNL     1       7.807  -1.221  25.402  1.00  0.00    -0.088 Br
ENDBRANCH  16  20
ENDBRANCH  13  16
ENDBRANCH   5   6
ENDBRANCH   3   4
TORSDOF 4
ENDMDL
MODEL 4
REMARK VINA RESULT: -5.288867605      1.791      2.373
REMARK  4 active torsions:
REMARK  status: ('A' for Active; 'I' for Inactive)
REMARK    1  A    between atoms: C3_3  and  C4_4 
REMARK    2  A    between atoms: C5_5  and  N1_6 
REMARK       I    between atoms: N1_6  and  C6_8 
REMARK       I    between atoms: C6_8  and  N2_10 
REMARK    3  A    between atoms: N3_13  and  C9_14 
REMARK    4  A    between atoms: C9_14  and  C10_18 
ROOT
HETATM    1  C1  UNL     1       8.172  -1.032  25.147  1.00  0.00     0.113 C 
HETATM    2  C2  UNL     1       8.579   0.356  24.885  1.00  0.00    -0.097 C 
HETATM    3  C3  UNL     1       8.907   1.492  24.650  1.00  0.00    -0.014 C 
ENDROOT
BRANCH   3   4
HETATM    4  C4  UNL     1       9.301   2.825  24.348  1.00  0.00     0.008 C 
HETATM    5  C5  UNL     1       9.653   3.955  24.081  1.00  0.00     0.028 C 
BRANCH   5   6
HETATM    6  N1  UNL     1      10.076   5.257  23.754  1.00  0.00    -0.267 N 
HETATM    7  C6  UNL     1      11.424   5.470  23.354  1.00  0.00     0.330 C 
HETATM    8  O1  UNL     1      12.238   4.500  23.291  1.00  0.00    -0.246 OA
HETATM    9  N2  UNL     1      11.835   6.783  23.030  1.00  0.00    -0.330 N 
HETATM   10  C7  UNL     1      10.857   7.840  23.126  1.00  0.00     0.147 C 
HETATM   11  C12 UNL     1      13.202   6.987  22.622  1.00  0.00     0.147 C 
HETATM   12  C8  UNL     1      11.419   9.217  22.889  1.00  0.00     0.144 C 
HETATM   13  N3  UNL     1      12.348   9.131  21.787  1.00  0.00    -0.367 N 
HETATM   14  C11 UNL     1      13.380   8.143  21.683  1.00  0.00     0.144 C 
ATOM     15  H1  UNL     1       9.423   6.039  23.804  1.00  0.00     0.181 HD
BRANCH  13  16
HETATM   16  C9  UNL     1      12.230  10.086  20.745  1.00  0.00     0.083 C 
HETATM   17  N4  UNL     1      11.141  10.729  20.629  1.00  0.00    -0.388 N 
ATOM     18  H42 UNL     1      10.338  10.602  21.244  1.00  0.00     0.157 HD
ATOM     19  H41 UNL     1      11.056  11.415  19.879  1.00  0.00     0.157 HD
BRANCH  16  20
HETATM   20  C10 UNL     1      13.398  10.270  19.849  1.00  0.00     0.161 C 
HETATM   21 BR1  UNL     1      14.811  11.137  20.837  1.00  0.00    -0.088 Br
ENDBRANCH  16  20
ENDBRANCH  13  16
ENDBRANCH   5   6
ENDBRANCH   3   4
TORSDOF 4
ENDMDL
MODEL 5
REMARK VINA RESULT: -5.273209557      1.636      1.708
REMARK  4 active torsions:
REMARK  status: ('A' for Active; 'I' for Inactive)
REMARK    1  A    between atoms: C3_3  and  C4_4 
REMARK    2  A    between atoms: C5_5  and  N1_6 
REMARK       I    between atoms: N1_6  and  C6_8 
REMARK       I    between atoms: C6_8  and  N2_10 
REMARK    3  A    between atoms: N3_13  and  C9_14 
REMARK    4  A    between atoms: C9_14  and  C10_18 
ROOT
HETATM    1  C1  UNL     1       7.845  -1.207  25.572  1.00  0.00     0.113 C 
HETATM    2  C2  UNL     1       8.426   0.065  25.115  1.00  0.00    -0.097 C 
HETATM    3  C3  UNL     1       8.896   1.116  24.758  1.00  0.00    -0.014 C 
ENDROOT
BRANCH   3   4
HETATM    4  C4  UNL     1       9.430   2.368  24.349  1.00  0.00     0.008 C 
HETATM    5  C5  UNL     1       9.906   3.432  24.007  1.00  0.00     0.028 C 
BRANCH   5   6
HETATM    6  N1  UNL     1      10.478   4.655  23.612  1.00  0.00    -0.267 N 
HETATM    7  C6  UNL     1       9.658   5.815  23.540  1.00  0.00     0.330 C 
HETATM    8  O1  UNL     1       8.425   5.751  23.827  1.00  0.00    -0.246 OA
HETATM    9  N2  UNL     1      10.247   7.036  23.143  1.00  0.00    -0.330 N 
HETATM   10  C7  UNL     1      11.655   7.037  22.827  1.00  0.00     0.147 C 
HETATM   11  C12 UNL     1       9.408   8.206  23.076  1.00  0.00     0.147 C 
HETATM   12  C8  UNL     1      12.162   8.349  22.289  1.00  0.00     0.144 C 
HETATM   13  N3  UNL     1      11.548   9.408  23.056  1.00  0.00    -0.367 N 
HETATM   14  C11 UNL     1      10.145   9.487  23.334  1.00  0.00     0.144 C 
ATOM     15  H1  UNL     1      11.470   4.710  23.381  1.00  0.00     0.181 HD
BRANCH  13  16
HETATM   16  C9  UNL     1      12.389  10.431  23.564  1.00  0.00     0.083 C 
HETATM   17  N4  UNL     1      13.052  11.137  22.744  1.00  0.00    -0.388 N 
ATOM     18  H42 UNL     1      13.019  11.014  21.732  1.00  0.00     0.157 HD
ATOM     19  H41 UNL     1      13.657  11.872  23.109  1.00  0.00     0.157 HD
BRANCH  16  20
HETATM   20  C10 UNL     1      12.438  10.609  25.036  1.00  0.00     0.161 C 
HETATM   21 BR1  UNL     1      13.555   9.232  25.795  1.00  0.00    -0.088 Br
ENDBRANCH  16  20
ENDBRANCH  13  16
ENDBRANCH   5   6
ENDBRANCH   3   4
TORSDOF 4
ENDMDL
