MODEL 1
REMARK VINA RESULT: -5.649004179      0.000      0.000
REMARK  1 active torsions:
REMARK  status: ('A' for Active; 'I' for Inactive)
REMARK    1  A    between atoms: C6_6  and  C7_7 
ROOT
HETATM    1  C1  UNL     1       9.664   0.879  24.097  1.00  0.00     0.014 C 
HETATM    2  C2  UNL     1       9.111   1.937  24.087  1.00  0.00    -0.084 C 
HETATM    3  C3  UNL     1       8.425   3.198  24.072  1.00  0.00     0.264 C 
HETATM    4  C4  UNL     1       9.038   4.163  23.048  1.00  0.00     0.053 C 
HETATM    5  C5  UNL     1       8.470   5.538  23.294  1.00  0.00     0.021 C 
HETATM    6  C6  UNL     1       9.407   6.471  23.982  1.00  0.00     0.105 C 
HETATM    7  N1  UNL     1       9.075   6.623  25.372  1.00  0.00    -0.394 N 
ATOM      8  H1  UNL     1       9.749   6.973  26.054  1.00  0.00     0.155 HD
HETATM    9  C9  UNL     1       7.759   6.259  25.738  1.00  0.00     0.121 C 
HETATM   10 BR1  UNL     1       7.327   6.719  27.546  1.00  0.00    -0.059 Br
HETATM   11  C10 UNL     1       7.427   4.804  25.386  1.00  0.00     0.232 C 
HETATM   12  N2  UNL     1       8.529   3.909  25.360  1.00  0.00    -0.053 N 
ATOM     13  H21 UNL     1       9.431   4.362  25.507  1.00  0.00     0.279 HD
ATOM     14  H22 UNL     1       8.574   3.289  26.169  1.00  0.00     0.279 HD
HETATM   15  C11 UNL     1       7.149   5.374  23.982  1.00  0.00     0.037 C 
HETATM   16  C12 UNL     1       6.696   6.590  24.730  1.00  0.00    -0.004 C 
HETATM   17  C13 UNL     1       6.728   7.892  24.066  1.00  0.00     0.019 C 
HETATM   18  C14 UNL     1       5.320   6.316  25.344  1.00  0.00     0.019 C 
ENDROOT
BRANCH   6  19
HETATM   19  C7  UNL     1      10.838   6.109  23.774  1.00  0.00    -0.012 C 
HETATM   20  C8  UNL     1      11.725   7.096  23.758  1.00  0.00     0.009 C 
ENDBRANCH   6  19
TORSDOF 1
ENDMDL
MODEL 2
REMARK VINA RESULT: -5.417515956      1.100      1.130
REMARK  1 active torsions:
REMARK  status: ('A' for Active; 'I' for Inactive)
REMARK    1  A    between atoms: C6_6  and  C7_7 
ROOT
HETATM    1  C1  UNL     1       9.676   1.706  23.827  1.00  0.00     0.014 C 
HETATM    2  C2  UNL     1       9.032   2.707  23.749  1.00  0.00    -0.084 C 
HETATM    3  C3  UNL     1       8.239   3.900  23.646  1.00  0.00     0.264 C 
HETATM    4  C4  UNL     1       9.021   5.044  22.984  1.00  0.00     0.053 C 
HETATM    5  C5  UNL     1       8.244   6.321  23.176  1.00  0.00     0.021 C 
HETATM    6  C6  UNL     1       8.799   7.221  24.226  1.00  0.00     0.105 C 
HETATM    7  N1  UNL     1       8.034   7.152  25.440  1.00  0.00    -0.394 N 
ATOM      8  H1  UNL     1       8.413   7.457  26.337  1.00  0.00     0.155 HD
HETATM    9  C9  UNL     1       6.723   6.637  25.317  1.00  0.00     0.121 C 
HETATM   10 BR1  UNL     1       5.695   6.807  26.924  1.00  0.00    -0.059 Br
HETATM   11  C10 UNL     1       6.695   5.224  24.725  1.00  0.00     0.232 C 
HETATM   12  N2  UNL     1       7.848   4.431  24.964  1.00  0.00    -0.053 N 
ATOM     13  H21 UNL     1       8.598   4.930  25.444  1.00  0.00     0.279 HD
ATOM     14  H22 UNL     1       7.712   3.711  25.673  1.00  0.00     0.279 HD
HETATM   15  C11 UNL     1       6.804   5.958  23.376  1.00  0.00     0.037 C 
HETATM   16  C12 UNL     1       5.996   7.020  24.060  1.00  0.00    -0.004 C 
HETATM   17  C13 UNL     1       6.079   8.400  23.583  1.00  0.00     0.019 C 
HETATM   18  C14 UNL     1       4.541   6.555  24.159  1.00  0.00     0.019 C 
ENDROOT
BRANCH   6  19
HETATM   19  C7  UNL     1      10.257   7.006  24.459  1.00  0.00    -0.012 C 
HETATM   20  C8  UNL     1      10.976   8.050  24.851  1.00  0.00     0.009 C 
ENDBRANCH   6  19
TORSDOF 1
ENDMDL
MODEL 3
REMARK VINA RESULT: -5.415674387      2.056      3.180
REMARK  1 active torsions:
REMARK  status: ('A' for Active; 'I' for Inactive)
REMARK    1  A    between atoms: C6_6  and  C7_7 
ROOT
HETATM    1  C1  UNL     1       9.269   2.128  23.489  1.00  0.00     0.014 C 
HETATM    2  C2  UNL     1       8.817   3.189  23.797  1.00  0.00    -0.084 C 
HETATM    3  C3  UNL     1       8.278   4.473  24.146  1.00  0.00     0.264 C 
HETATM    4  C4  UNL     1       8.952   5.048  25.400  1.00  0.00     0.053 C 
HETATM    5  C5  UNL     1       8.147   6.233  25.870  1.00  0.00     0.021 C 
HETATM    6  C6  UNL     1       7.299   5.960  27.064  1.00  0.00     0.105 C 
HETATM    7  N1  UNL     1       5.918   5.789  26.704  1.00  0.00    -0.394 N 
ATOM      8  H1  UNL     1       5.253   5.319  27.318  1.00  0.00     0.155 HD
HETATM    9  C9  UNL     1       5.537   6.312  25.447  1.00  0.00     0.121 C 
HETATM   10 BR1  UNL     1       3.645   6.260  25.154  1.00  0.00    -0.059 Br
HETATM   11  C10 UNL     1       6.348   5.719  24.288  1.00  0.00     0.232 C 
HETATM   12  N2  UNL     1       6.847   4.406  24.492  1.00  0.00    -0.053 N 
ATOM     13  H21 UNL     1       6.667   4.038  25.427  1.00  0.00     0.279 HD
ATOM     14  H22 UNL     1       6.334   3.688  23.981  1.00  0.00     0.279 HD
HETATM   15  C11 UNL     1       7.395   6.774  24.692  1.00  0.00     0.037 C 
HETATM   16  C12 UNL     1       6.201   7.602  25.058  1.00  0.00    -0.004 C 
HETATM   17  C13 UNL     1       6.342   8.658  26.059  1.00  0.00     0.019 C 
HETATM   18  C14 UNL     1       5.551   8.135  23.779  1.00  0.00     0.019 C 
ENDROOT
BRANCH   6  19
HETATM   19  C7  UNL     1       7.815   4.833  27.893  1.00  0.00    -0.012 C 
HETATM   20  C8  UNL     1       7.492   4.820  29.181  1.00  0.00     0.009 C 
ENDBRANCH   6  19
TORSDOF 1
ENDMDL
MODEL 4
REMARK VINA RESULT: -5.285184044      2.088      3.633
REMARK  1 active torsions:
REMARK  status: ('A' for Active; 'I' for Inactive)
REMARK    1  A    between atoms: C6_6  and  C7_7 
ROOT
HETATM    1  C1  UNL     1       9.395   1.852  22.881  1.00  0.00     0.014 C 
HETATM    2  C2  UNL     1       9.345   2.917  23.417  1.00  0.00    -0.084 C 
HETATM    3  C3  UNL     1       9.307   4.196  24.070  1.00  0.00     0.264 C 
HETATM    4  C4  UNL     1       8.115   4.306  25.030  1.00  0.00     0.053 C 
HETATM    5  C5  UNL     1       7.972   5.749  25.444  1.00  0.00     0.021 C 
HETATM    6  C6  UNL     1       6.853   6.468  24.773  1.00  0.00     0.105 C 
HETATM    7  N1  UNL     1       7.330   7.329  23.726  1.00  0.00    -0.394 N 
ATOM      8  H1  UNL     1       6.719   7.666  22.982  1.00  0.00     0.155 HD
HETATM    9  C9  UNL     1       8.698   7.679  23.788  1.00  0.00     0.121 C 
HETATM   10 BR1  UNL     1       9.191   9.014  22.506  1.00  0.00    -0.059 Br
HETATM   11  C10 UNL     1       9.624   6.457  23.780  1.00  0.00     0.232 C 
HETATM   12  N2  UNL     1       9.121   5.306  23.118  1.00  0.00    -0.053 N 
ATOM     13  H21 UNL     1       8.161   5.408  22.789  1.00  0.00     0.279 HD
ATOM     14  H22 UNL     1       9.544   5.140  22.205  1.00  0.00     0.279 HD
HETATM   15  C11 UNL     1       9.309   6.407  25.286  1.00  0.00     0.037 C 
HETATM   16  C12 UNL     1       9.244   7.900  25.170  1.00  0.00    -0.004 C 
HETATM   17  C13 UNL     1       8.449   8.659  26.135  1.00  0.00     0.019 C 
HETATM   18  C14 UNL     1      10.666   8.455  25.065  1.00  0.00     0.019 C 
ENDROOT
BRANCH   6  19
HETATM   19  C7  UNL     1       5.773   5.550  24.308  1.00  0.00    -0.012 C 
HETATM   20  C8  UNL     1       4.519   5.892  24.577  1.00  0.00     0.009 C 
ENDBRANCH   6  19
TORSDOF 1
ENDMDL
MODEL 5
REMARK VINA RESULT: -5.206202697      1.263      1.475
REMARK  1 active torsions:
REMARK  status: ('A' for Active; 'I' for Inactive)
REMARK    1  A    between atoms: C6_6  and  C7_7 
ROOT
HETATM    1  C1  UNL     1       8.603   1.850  25.556  1.00  0.00     0.014 C 
HETATM    2  C2  UNL     1       8.319   2.907  25.082  1.00  0.00    -0.084 C 
HETATM    3  C3  UNL     1       7.954   4.172  24.508  1.00  0.00     0.264 C 
HETATM    4  C4  UNL     1       8.888   4.561  23.354  1.00  0.00     0.053 C 
HETATM    5  C5  UNL     1       8.635   6.006  23.005  1.00  0.00     0.021 C 
HETATM    6  C6  UNL     1       9.679   6.946  23.501  1.00  0.00     0.105 C 
HETATM    7  N1  UNL     1       9.235   7.662  24.666  1.00  0.00    -0.394 N 
ATOM      8  H1  UNL     1       9.889   8.115  25.304  1.00  0.00     0.155 HD
HETATM    9  C9  UNL     1       7.837   7.699  24.874  1.00  0.00     0.121 C 
HETATM   10 BR1  UNL     1       7.322   8.869  26.300  1.00  0.00    -0.059 Br
HETATM   11  C10 UNL     1       7.217   6.301  24.981  1.00  0.00     0.232 C 
HETATM   12  N2  UNL     1       8.073   5.281  25.472  1.00  0.00    -0.053 N 
ATOM     13  H21 UNL     1       9.034   5.590  25.626  1.00  0.00     0.279 HD
ATOM     14  H22 UNL     1       7.879   5.011  26.436  1.00  0.00     0.279 HD
HETATM   15  C11 UNL     1       7.242   6.346  23.442  1.00  0.00     0.037 C 
HETATM   16  C12 UNL     1       7.004   7.814  23.630  1.00  0.00    -0.004 C 
HETATM   17  C13 UNL     1       7.416   8.746  22.582  1.00  0.00     0.019 C 
HETATM   18  C14 UNL     1       5.542   8.036  24.025  1.00  0.00     0.019 C 
ENDROOT
BRANCH   6  19
HETATM   19  C7  UNL     1      10.999   6.285  23.707  1.00  0.00    -0.012 C 
HETATM   20  C8  UNL     1      12.086   6.961  23.353  1.00  0.00     0.009 C 
ENDBRANCH   6  19
TORSDOF 1
ENDMDL
