MODEL 1
REMARK VINA RESULT: -5.817048398      0.000      0.000
REMARK  3 active torsions:
REMARK  status: ('A' for Active; 'I' for Inactive)
REMARK    1  A    between atoms: N2_11  and  C10_12 
REMARK    2  A    between atoms: C10_12  and  C11_13 
REMARK    3  A    between atoms: N3_15  and  O1_17 
ROOT
HETATM    1  C1  UNL     1       9.684   8.640  23.851  1.00  0.00     0.272 C 
HETATM    2  N1  UNL     1       8.481   7.837  23.662  1.00  0.00    -0.074 N 
HETATM    3  C2  UNL     1       7.464   8.817  23.234  1.00  0.00     0.272 C 
HETATM    4  C3  UNL     1       8.706   6.959  22.586  1.00  0.00     0.238 C 
HETATM    5  C4  UNL     1       8.525   5.494  22.903  1.00  0.00     0.054 C 
HETATM    6  C5  UNL     1       9.369   5.252  24.130  1.00  0.00     0.092 C 
HETATM    7  C6  UNL     1       8.642   5.950  25.261  1.00  0.00     0.034 C 
HETATM    8  C7  UNL     1       7.530   5.053  25.809  1.00  0.00     0.010 C 
HETATM    9  C8  UNL     1       8.049   3.768  26.361  1.00  0.00     0.020 C 
HETATM   10  C9  UNL     1       9.415   3.448  25.811  1.00  0.00     0.124 C 
HETATM   11  N2  UNL     1       9.572   3.883  24.442  1.00  0.00    -0.363 N 
HETATM   12  C12 UNL     1       8.123   7.286  24.922  1.00  0.00     0.243 C 
ENDROOT
BRANCH  11  13
HETATM   13  C10 UNL     1       9.931   2.895  23.462  1.00  0.00     0.109 C 
HETATM   14  N3  UNL     1      11.119   2.896  22.960  1.00  0.00    -0.256 N 
ATOM     15  H3  UNL     1      11.390   2.201  22.264  1.00  0.00     0.195 HD
BRANCH  13  16
HETATM   16  C11 UNL     1       9.001   1.863  22.995  1.00  0.00     0.163 C 
HETATM   17 BR1  UNL     1       9.250   0.306  24.147  1.00  0.00    -0.088 Br
ENDBRANCH  13  16
BRANCH  14  18
HETATM   18  O1  UNL     1      12.007   3.844  23.376  1.00  0.00    -0.288 OA
ATOM     19  H1  UNL     1      12.794   3.991  22.863  1.00  0.00     0.244 HD
ENDBRANCH  14  18
ENDBRANCH  11  13
TORSDOF 3
ENDMDL
MODEL 2
REMARK VINA RESULT: -5.360905551      1.764      2.810
REMARK  3 active torsions:
REMARK  status: ('A' for Active; 'I' for Inactive)
REMARK    1  A    between atoms: N2_11  and  C10_12 
REMARK    2  A    between atoms: C10_12  and  C11_13 
REMARK    3  A    between atoms: N3_15  and  O1_17 
ROOT
HETATM    1  C1  UNL     1      11.077   9.001  25.223  1.00  0.00     0.272 C 
HETATM    2  N1  UNL     1      11.005   8.330  23.930  1.00  0.00    -0.074 N 
HETATM    3  C2  UNL     1      11.896   9.127  23.065  1.00  0.00     0.272 C 
HETATM    4  C3  UNL     1      11.576   7.052  24.068  1.00  0.00     0.238 C 
HETATM    5  C4  UNL     1      10.677   5.900  23.685  1.00  0.00     0.054 C 
HETATM    6  C5  UNL     1       9.398   6.130  24.452  1.00  0.00     0.092 C 
HETATM    7  C6  UNL     1       8.743   7.325  23.791  1.00  0.00     0.034 C 
HETATM    8  C7  UNL     1       7.959   6.881  22.554  1.00  0.00     0.010 C 
HETATM    9  C8  UNL     1       6.868   5.919  22.881  1.00  0.00     0.020 C 
HETATM   10  C9  UNL     1       7.109   5.247  24.207  1.00  0.00     0.124 C 
HETATM   11  N2  UNL     1       8.513   5.022  24.462  1.00  0.00    -0.363 N 
HETATM   12  C12 UNL     1       9.665   8.425  23.464  1.00  0.00     0.243 C 
ENDROOT
BRANCH  11  13
HETATM   13  C10 UNL     1       8.940   3.673  24.716  1.00  0.00     0.109 C 
HETATM   14  N3  UNL     1       9.277   2.915  23.729  1.00  0.00    -0.256 N 
ATOM     15  H3  UNL     1       9.582   1.955  23.891  1.00  0.00     0.195 HD
BRANCH  13  16
HETATM   16  C11 UNL     1       9.016   3.102  26.064  1.00  0.00     0.163 C 
HETATM   17 BR1  UNL     1       8.506   1.223  25.917  1.00  0.00    -0.088 Br
ENDBRANCH  13  16
BRANCH  14  18
HETATM   18  O1  UNL     1       9.217   3.418  22.462  1.00  0.00    -0.288 OA
ATOM     19  H1  UNL     1       9.385   2.836  21.730  1.00  0.00     0.244 HD
ENDBRANCH  14  18
ENDBRANCH  11  13
TORSDOF 3
ENDMDL
MODEL 3
REMARK VINA RESULT: -5.195263423      1.938      2.777
REMARK  3 active torsions:
REMARK  status: ('A' for Active; 'I' for Inactive)
REMARK    1  A    between atoms: N2_11  and  C10_12 
REMARK    2  A    between atoms: C10_12  and  C11_13 
REMARK    3  A    between atoms: N3_15  and  O1_17 
ROOT
HETATM    1  C1  UNL     1      11.126   8.778  25.221  1.00  0.00     0.272 C 
HETATM    2  N1  UNL     1      10.916   8.184  23.905  1.00  0.00    -0.074 N 
HETATM    3  C2  UNL     1      11.711   9.037  23.000  1.00  0.00     0.272 C 
HETATM    4  C3  UNL     1      11.498   6.904  23.905  1.00  0.00     0.238 C 
HETATM    5  C4  UNL     1      10.563   5.772  23.551  1.00  0.00     0.054 C 
HETATM    6  C5  UNL     1       9.373   5.948  24.462  1.00  0.00     0.092 C 
HETATM    7  C6  UNL     1       8.652   7.176  23.947  1.00  0.00     0.034 C 
HETATM    8  C7  UNL     1       7.741   6.802  22.776  1.00  0.00     0.010 C 
HETATM    9  C8  UNL     1       6.690   5.816  23.158  1.00  0.00     0.020 C 
HETATM   10  C9  UNL     1       7.070   5.068  24.409  1.00  0.00     0.124 C 
HETATM   11  N2  UNL     1       8.494   4.836  24.500  1.00  0.00    -0.363 N 
HETATM   12  C12 UNL     1       9.534   8.300  23.590  1.00  0.00     0.243 C 
ENDROOT
BRANCH  11  13
HETATM   13  C10 UNL     1       8.944   3.477  24.625  1.00  0.00     0.109 C 
HETATM   14  N3  UNL     1       9.050   2.946  25.795  1.00  0.00    -0.256 N 
ATOM     15  H3  UNL     1       9.367   1.982  25.902  1.00  0.00     0.195 HD
BRANCH  13  16
HETATM   16  C11 UNL     1       9.295   2.645  23.470  1.00  0.00     0.163 C 
HETATM   17 BR1  UNL     1       9.316   0.792  24.088  1.00  0.00    -0.088 Br
ENDBRANCH  13  16
BRANCH  14  18
HETATM   18  O1  UNL     1       8.730   3.695  26.889  1.00  0.00    -0.288 OA
ATOM     19  H1  UNL     1       7.825   3.719  27.178  1.00  0.00     0.244 HD
ENDBRANCH  14  18
ENDBRANCH  11  13
TORSDOF 3
ENDMDL
MODEL 4
REMARK VINA RESULT: -5.180585002      2.567      3.539
REMARK  3 active torsions:
REMARK  status: ('A' for Active; 'I' for Inactive)
REMARK    1  A    between atoms: N2_11  and  C10_12 
REMARK    2  A    between atoms: C10_12  and  C11_13 
REMARK    3  A    between atoms: N3_15  and  O1_17 
ROOT
HETATM    1  C1  UNL     1      13.502   8.556  25.129  1.00  0.00     0.272 C 
HETATM    2  N1  UNL     1      12.520   8.887  24.102  1.00  0.00    -0.074 N 
HETATM    3  C2  UNL     1      13.100  10.061  23.420  1.00  0.00     0.272 C 
HETATM    4  C3  UNL     1      12.485   7.830  23.174  1.00  0.00     0.238 C 
HETATM    5  C4  UNL     1      11.128   7.199  22.969  1.00  0.00     0.054 C 
HETATM    6  C5  UNL     1      10.637   6.867  24.356  1.00  0.00     0.092 C 
HETATM    7  C6  UNL     1      10.314   8.200  24.998  1.00  0.00     0.034 C 
HETATM    8  C7  UNL     1       8.916   8.663  24.580  1.00  0.00     0.010 C 
HETATM    9  C8  UNL     1       7.847   7.713  25.001  1.00  0.00     0.020 C 
HETATM   10  C9  UNL     1       8.408   6.341  25.271  1.00  0.00     0.124 C 
HETATM   11  N2  UNL     1       9.505   6.013  24.389  1.00  0.00    -0.363 N 
HETATM   12  C12 UNL     1      11.313   9.254  24.755  1.00  0.00     0.243 C 
ENDROOT
BRANCH  11  13
HETATM   13  C10 UNL     1       9.387   4.826  23.587  1.00  0.00     0.109 C 
HETATM   14  N3  UNL     1       8.726   4.868  22.481  1.00  0.00    -0.256 N 
ATOM     15  H3  UNL     1       8.633   4.034  21.899  1.00  0.00     0.195 HD
BRANCH  13  16
HETATM   16  C11 UNL     1       9.993   3.546  23.965  1.00  0.00     0.163 C 
HETATM   17 BR1  UNL     1       8.666   2.577  25.021  1.00  0.00    -0.088 Br
ENDBRANCH  13  16
BRANCH  14  18
HETATM   18  O1  UNL     1       8.151   6.045  22.102  1.00  0.00    -0.288 OA
ATOM     19  H1  UNL     1       8.320   6.376  21.227  1.00  0.00     0.244 HD
ENDBRANCH  14  18
ENDBRANCH  11  13
TORSDOF 3
ENDMDL
MODEL 5
REMARK VINA RESULT: -5.152795981      3.300      4.214
REMARK  3 active torsions:
REMARK  status: ('A' for Active; 'I' for Inactive)
REMARK    1  A    between atoms: N2_11  and  C10_12 
REMARK    2  A    between atoms: C10_12  and  C11_13 
REMARK    3  A    between atoms: N3_15  and  O1_17 
ROOT
HETATM    1  C1  UNL     1       3.233   8.611  23.863  1.00  0.00     0.272 C 
HETATM    2  N1  UNL     1       3.539   7.729  24.984  1.00  0.00    -0.074 N 
HETATM    3  C2  UNL     1       2.273   7.664  25.741  1.00  0.00     0.272 C 
HETATM    4  C3  UNL     1       3.795   6.445  24.472  1.00  0.00     0.238 C 
HETATM    5  C4  UNL     1       5.140   5.863  24.838  1.00  0.00     0.054 C 
HETATM    6  C5  UNL     1       6.142   6.927  24.463  1.00  0.00     0.092 C 
HETATM    7  C6  UNL     1       5.949   8.036  25.477  1.00  0.00     0.034 C 
HETATM    8  C7  UNL     1       6.718   7.718  26.761  1.00  0.00     0.010 C 
HETATM    9  C8  UNL     1       8.187   7.595  26.533  1.00  0.00     0.020 C 
HETATM   10  C9  UNL     1       8.496   7.315  25.086  1.00  0.00     0.124 C 
HETATM   11  N2  UNL     1       7.491   6.488  24.459  1.00  0.00    -0.363 N 
HETATM   12  C12 UNL     1       4.542   8.357  25.771  1.00  0.00     0.243 C 
ENDROOT
BRANCH  11  13
HETATM   13  C10 UNL     1       7.918   5.254  23.859  1.00  0.00     0.109 C 
HETATM   14  N3  UNL     1       8.064   5.183  22.580  1.00  0.00    -0.256 N 
ATOM     15  H3  UNL     1       8.367   4.315  22.139  1.00  0.00     0.195 HD
BRANCH  13  16
HETATM   16  C11 UNL     1       8.204   4.046  24.641  1.00  0.00     0.163 C 
HETATM   17 BR1  UNL     1       9.336   2.906  23.532  1.00  0.00    -0.088 Br
ENDBRANCH  13  16
BRANCH  14  18
HETATM   18  O1  UNL     1       7.806   6.290  21.827  1.00  0.00    -0.288 OA
ATOM     19  H1  UNL     1       8.012   6.271  20.899  1.00  0.00     0.244 HD
ENDBRANCH  14  18
ENDBRANCH  11  13
TORSDOF 3
ENDMDL
