MODEL 1
REMARK VINA RESULT: -5.181889436      0.000      0.000
REMARK  1 active torsions:
REMARK  status: ('A' for Active; 'I' for Inactive)
REMARK    1  A    between atoms: C2_2  and  C4_4 
ROOT
HETATM    1  C4  UNL     1       8.832   3.684  23.928  1.00  0.00     0.111 C 
HETATM    2  C5  UNL     1       9.070   4.641  25.028  1.00  0.00     0.134 C 
HETATM    3  N1  UNL     1       8.934   5.978  24.563  1.00  0.00    -0.196 NA
HETATM    4  C6  UNL     1       7.821   6.701  25.074  1.00  0.00     0.131 C 
HETATM    5  S1  UNL     1       8.943   5.859  22.836  1.00  0.00     0.298 S 
HETATM    6  O1  UNL     1       7.580   6.048  22.259  1.00  0.00    -0.188 OA
HETATM    7  O2  UNL     1       9.966   6.760  22.244  1.00  0.00    -0.188 OA
HETATM    8  N2  UNL     1       9.434   4.180  22.723  1.00  0.00    -0.300 N 
ATOM      9  H2  UNL     1       9.985   3.697  22.012  1.00  0.00     0.173 HD
ENDROOT
BRANCH   1  10
HETATM   10  C2  UNL     1       9.333   2.317  24.321  1.00  0.00     0.002 C 
HETATM   11  C1  UNL     1       8.546   1.707  25.442  1.00  0.00     0.011 C 
HETATM   12  C3  UNL     1       9.275   1.444  23.083  1.00  0.00     0.011 C 
ENDBRANCH   1  10
TORSDOF 1
ENDMDL
MODEL 2
REMARK VINA RESULT: -5.150343210      0.570      1.194
REMARK  1 active torsions:
REMARK  status: ('A' for Active; 'I' for Inactive)
REMARK    1  A    between atoms: C2_2  and  C4_4 
ROOT
HETATM    1  C4  UNL     1       8.524   3.987  23.892  1.00  0.00     0.111 C 
HETATM    2  C5  UNL     1       8.834   4.912  25.001  1.00  0.00     0.134 C 
HETATM    3  N1  UNL     1       8.967   6.243  24.516  1.00  0.00    -0.196 NA
HETATM    4  C6  UNL     1       7.957   7.156  24.927  1.00  0.00     0.131 C 
HETATM    5  S1  UNL     1       9.094   6.086  22.797  1.00  0.00     0.298 S 
HETATM    6  O1  UNL     1       7.834   6.492  22.107  1.00  0.00    -0.188 OA
HETATM    7  O2  UNL     1      10.301   6.788  22.285  1.00  0.00    -0.188 OA
HETATM    8  N2  UNL     1       9.298   4.346  22.737  1.00  0.00    -0.300 N 
ATOM      9  H2  UNL     1       9.813   3.762  22.078  1.00  0.00     0.173 HD
ENDROOT
BRANCH   1  10
HETATM   10  C2  UNL     1       8.751   2.562  24.336  1.00  0.00     0.002 C 
HETATM   11  C1  UNL     1       9.886   1.900  23.613  1.00  0.00     0.011 C 
HETATM   12  C3  UNL     1       9.007   2.593  25.830  1.00  0.00     0.011 C 
ENDBRANCH   1  10
TORSDOF 1
ENDMDL
MODEL 3
REMARK VINA RESULT: -4.998132662      3.266      4.300
REMARK  1 active torsions:
REMARK  status: ('A' for Active; 'I' for Inactive)
REMARK    1  A    between atoms: C2_2  and  C4_4 
ROOT
HETATM    1  C4  UNL     1       9.669   3.839  24.074  1.00  0.00     0.111 C 
HETATM    2  C5  UNL     1       8.491   3.327  24.803  1.00  0.00     0.134 C 
HETATM    3  N1  UNL     1       8.380   1.917  24.640  1.00  0.00    -0.196 NA
HETATM    4  C6  UNL     1       8.603   1.140  25.811  1.00  0.00     0.131 C 
HETATM    5  S1  UNL     1       9.454   1.527  23.341  1.00  0.00     0.298 S 
HETATM    6  O1  UNL     1      10.702   0.871  23.829  1.00  0.00    -0.188 OA
HETATM    7  O2  UNL     1       8.752   0.750  22.284  1.00  0.00    -0.188 OA
HETATM    8  N2  UNL     1       9.783   3.165  22.811  1.00  0.00    -0.300 N 
ATOM      9  H2  UNL     1       9.992   3.531  21.882  1.00  0.00     0.173 HD
ENDROOT
BRANCH   1  10
HETATM   10  C2  UNL     1       9.573   5.339  23.937  1.00  0.00     0.002 C 
HETATM   11  C1  UNL     1      10.882   5.977  23.579  1.00  0.00     0.011 C 
HETATM   12  C3  UNL     1       8.526   5.627  22.879  1.00  0.00     0.011 C 
ENDBRANCH   1  10
TORSDOF 1
ENDMDL
MODEL 4
REMARK VINA RESULT: -4.953508138      2.140      2.602
REMARK  1 active torsions:
REMARK  status: ('A' for Active; 'I' for Inactive)
REMARK    1  A    between atoms: C2_2  and  C4_4 
ROOT
HETATM    1  C4  UNL     1       9.057   2.708  24.851  1.00  0.00     0.111 C 
HETATM    2  C5  UNL     1       9.181   3.187  23.459  1.00  0.00     0.134 C 
HETATM    3  N1  UNL     1       8.576   4.467  23.318  1.00  0.00    -0.196 NA
HETATM    4  C6  UNL     1       9.465   5.546  23.059  1.00  0.00     0.131 C 
HETATM    5  S1  UNL     1       7.634   4.682  24.754  1.00  0.00     0.298 S 
HETATM    6  O1  UNL     1       8.274   5.641  25.701  1.00  0.00    -0.188 OA
HETATM    7  O2  UNL     1       6.227   5.029  24.422  1.00  0.00    -0.188 OA
HETATM    8  N2  UNL     1       7.756   3.041  25.359  1.00  0.00    -0.300 N 
ATOM      9  H2  UNL     1       7.099   2.487  25.909  1.00  0.00     0.173 HD
ENDROOT
BRANCH   1  10
HETATM   10  C2  UNL     1       9.355   1.230  24.911  1.00  0.00     0.002 C 
HETATM   11  C1  UNL     1       8.454   0.492  25.855  1.00  0.00     0.011 C 
HETATM   12  C3  UNL     1       9.220   0.687  23.502  1.00  0.00     0.011 C 
ENDBRANCH   1  10
TORSDOF 1
ENDMDL
MODEL 5
REMARK VINA RESULT: -4.903622860      2.493      2.659
REMARK  1 active torsions:
REMARK  status: ('A' for Active; 'I' for Inactive)
REMARK    1  A    between atoms: C2_2  and  C4_4 
ROOT
HETATM    1  C4  UNL     1       8.493   1.675  25.074  1.00  0.00     0.111 C 
HETATM    2  C5  UNL     1       8.956   2.139  26.398  1.00  0.00     0.134 C 
HETATM    3  N1  UNL     1       8.800   3.549  26.512  1.00  0.00    -0.196 NA
HETATM    4  C6  UNL     1       7.822   3.990  27.446  1.00  0.00     0.131 C 
HETATM    5  S1  UNL     1       8.510   4.104  24.899  1.00  0.00     0.298 S 
HETATM    6  O1  UNL     1       7.078   4.465  24.685  1.00  0.00    -0.188 OA
HETATM    7  O2  UNL     1       9.455   5.191  24.531  1.00  0.00    -0.188 OA
HETATM    8  N2  UNL     1       8.903   2.613  24.066  1.00  0.00    -0.300 N 
ATOM      9  H2  UNL     1       9.303   2.456  23.141  1.00  0.00     0.173 HD
ENDROOT
BRANCH   1  10
HETATM   10  C2  UNL     1       8.995   0.276  24.818  1.00  0.00     0.002 C 
HETATM   11  C1  UNL     1       8.113  -0.779  25.418  1.00  0.00     0.011 C 
HETATM   12  C3  UNL     1       9.098   0.103  23.315  1.00  0.00     0.011 C 
ENDBRANCH   1  10
TORSDOF 1
ENDMDL
