MODEL 1
REMARK VINA RESULT: -4.732786310      0.000      0.000
REMARK  2 active torsions:
REMARK  status: ('A' for Active; 'I' for Inactive)
REMARK    1  A    between atoms: N1_2  and  C2_3 
REMARK    2  A    between atoms: C8_12  and  O1_13 
ROOT
HETATM    1  C1  UNL     1       7.224   4.966  24.074  1.00  0.00     0.273 C 
HETATM    2  N1  UNL     1       8.646   5.106  24.309  1.00  0.00    -0.062 N 
HETATM    3  C6  UNL     1       8.844   6.266  25.129  1.00  0.00     0.240 C 
HETATM    4  C7  UNL     1       9.613   7.277  24.287  1.00  0.00     0.061 C 
HETATM    5  C8  UNL     1      10.372   6.328  23.352  1.00  0.00     0.145 C 
HETATM    6  C9  UNL     1       9.287   5.324  23.049  1.00  0.00     0.269 C 
ENDROOT
BRANCH   2   7
HETATM    7  C2  UNL     1       9.219   3.966  24.982  1.00  0.00     0.217 C 
HETATM    8  C3  UNL     1       8.371   3.475  26.129  1.00  0.00     0.062 C 
HETATM    9  C4  UNL     1       8.441   1.978  26.080  1.00  0.00     0.234 C 
HETATM   10  N2  UNL     1       8.768   1.645  24.734  1.00  0.00    -0.073 N 
HETATM   11  C5  UNL     1       9.402   2.771  24.116  1.00  0.00     0.265 C 
ATOM     12  H22 UNL     1       9.333   0.798  24.670  1.00  0.00     0.277 HD
ATOM     13  H21 UNL     1       7.958   1.318  24.207  1.00  0.00     0.277 HD
ENDBRANCH   2   7
BRANCH   5  14
HETATM   14  O1  UNL     1      10.807   6.998  22.236  1.00  0.00    -0.394 OA
ATOM     15  H1  UNL     1      11.487   6.504  21.795  1.00  0.00     0.210 HD
ENDBRANCH   5  14
TORSDOF 2
ENDMDL
MODEL 2
REMARK VINA RESULT: -4.620515888      2.012      3.790
REMARK  2 active torsions:
REMARK  status: ('A' for Active; 'I' for Inactive)
REMARK    1  A    between atoms: N1_2  and  C2_3 
REMARK    2  A    between atoms: C8_12  and  O1_13 
ROOT
HETATM    1  C1  UNL     1       8.845   4.739  25.754  1.00  0.00     0.273 C 
HETATM    2  N1  UNL     1       8.787   4.153  24.430  1.00  0.00    -0.062 N 
HETATM    3  C6  UNL     1       8.483   2.760  24.579  1.00  0.00     0.240 C 
HETATM    4  C7  UNL     1       9.699   1.986  24.083  1.00  0.00     0.061 C 
HETATM    5  C8  UNL     1      10.259   2.988  23.066  1.00  0.00     0.145 C 
HETATM    6  C9  UNL     1      10.079   4.277  23.830  1.00  0.00     0.269 C 
ENDROOT
BRANCH   2   7
HETATM    7  C2  UNL     1       7.776   4.756  23.594  1.00  0.00     0.217 C 
HETATM    8  C3  UNL     1       6.579   5.237  24.376  1.00  0.00     0.062 C 
HETATM    9  C4  UNL     1       6.176   6.538  23.749  1.00  0.00     0.234 C 
HETATM   10  N2  UNL     1       7.344   7.041  23.106  1.00  0.00    -0.073 N 
HETATM   11  C5  UNL     1       8.237   5.953  22.843  1.00  0.00     0.265 C 
ATOM     12  H22 UNL     1       7.125   7.576  22.265  1.00  0.00     0.277 HD
ATOM     13  H21 UNL     1       7.790   7.788  23.639  1.00  0.00     0.277 HD
ENDBRANCH   2   7
BRANCH   5  14
HETATM   14  O1  UNL     1      11.575   2.710  22.791  1.00  0.00    -0.394 OA
ATOM     15  H1  UNL     1      11.732   2.740  21.855  1.00  0.00     0.210 HD
ENDBRANCH   5  14
TORSDOF 2
ENDMDL
MODEL 3
REMARK VINA RESULT: -4.554067953      1.366      2.040
REMARK  2 active torsions:
REMARK  status: ('A' for Active; 'I' for Inactive)
REMARK    1  A    between atoms: N1_2  and  C2_3 
REMARK    2  A    between atoms: C8_12  and  O1_13 
ROOT
HETATM    1  C1  UNL     1       9.004   2.700  23.780  1.00  0.00     0.273 C 
HETATM    2  N1  UNL     1       9.076   4.075  24.228  1.00  0.00    -0.062 N 
HETATM    3  C6  UNL     1       7.927   4.764  23.717  1.00  0.00     0.240 C 
HETATM    4  C7  UNL     1       8.440   5.812  22.736  1.00  0.00     0.061 C 
HETATM    5  C8  UNL     1       9.830   6.076  23.325  1.00  0.00     0.145 C 
HETATM    6  C9  UNL     1      10.251   4.667  23.666  1.00  0.00     0.269 C 
ENDROOT
BRANCH   2   7
HETATM    7  C2  UNL     1       9.081   4.197  25.666  1.00  0.00     0.217 C 
HETATM    8  C3  UNL     1       7.976   5.083  26.183  1.00  0.00     0.062 C 
HETATM    9  C4  UNL     1       7.473   4.425  27.433  1.00  0.00     0.234 C 
HETATM   10  N2  UNL     1       7.810   3.046  27.312  1.00  0.00    -0.073 N 
HETATM   11  C5  UNL     1       8.897   2.911  26.389  1.00  0.00     0.265 C 
ATOM     12  H22 UNL     1       8.011   2.615  28.214  1.00  0.00     0.277 HD
ATOM     13  H21 UNL     1       7.008   2.471  27.053  1.00  0.00     0.277 HD
ENDBRANCH   2   7
BRANCH   5  14
HETATM   14  O1  UNL     1      10.646   6.665  22.392  1.00  0.00    -0.394 OA
ATOM     15  H1  UNL     1      11.530   6.749  22.728  1.00  0.00     0.210 HD
ENDBRANCH   5  14
TORSDOF 2
ENDMDL
MODEL 4
REMARK VINA RESULT: -4.470221004      1.661      2.629
REMARK  2 active torsions:
REMARK  status: ('A' for Active; 'I' for Inactive)
REMARK    1  A    between atoms: N1_2  and  C2_3 
REMARK    2  A    between atoms: C8_12  and  O1_13 
ROOT
HETATM    1  C1  UNL     1       9.002   3.689  26.535  1.00  0.00     0.273 C 
HETATM    2  N1  UNL     1       8.662   3.645  25.127  1.00  0.00    -0.062 N 
HETATM    3  C6  UNL     1       9.803   4.097  24.386  1.00  0.00     0.240 C 
HETATM    4  C7  UNL     1       9.400   5.399  23.704  1.00  0.00     0.061 C 
HETATM    5  C8  UNL     1       7.890   5.172  23.559  1.00  0.00     0.145 C 
HETATM    6  C9  UNL     1       7.581   4.553  24.901  1.00  0.00     0.269 C 
ENDROOT
BRANCH   2   7
HETATM    7  C2  UNL     1       8.318   2.318  24.676  1.00  0.00     0.217 C 
HETATM    8  C3  UNL     1       9.294   1.772  23.664  1.00  0.00     0.062 C 
HETATM    9  C4  UNL     1       9.463   0.320  24.000  1.00  0.00     0.234 C 
HETATM   10  N2  UNL     1       9.123   0.196  25.378  1.00  0.00    -0.073 N 
HETATM   11  C5  UNL     1       8.284   1.295  25.753  1.00  0.00     0.265 C 
ATOM     12  H22 UNL     1       8.699  -0.707  25.593  1.00  0.00     0.277 HD
ATOM     13  H21 UNL     1       9.945   0.114  25.976  1.00  0.00     0.277 HD
ENDBRANCH   2   7
BRANCH   5  14
HETATM   14  O1  UNL     1       7.241   6.364  23.358  1.00  0.00    -0.394 OA
ATOM     15  H1  UNL     1       6.331   6.296  23.623  1.00  0.00     0.210 HD
ENDBRANCH   5  14
TORSDOF 2
ENDMDL
MODEL 5
REMARK VINA RESULT: -4.469922559      1.301      1.934
REMARK  2 active torsions:
REMARK  status: ('A' for Active; 'I' for Inactive)
REMARK    1  A    between atoms: N1_2  and  C2_3 
REMARK    2  A    between atoms: C8_12  and  O1_13 
ROOT
HETATM    1  C1  UNL     1       8.236   5.494  25.738  1.00  0.00     0.273 C 
HETATM    2  N1  UNL     1       8.527   5.188  24.352  1.00  0.00    -0.062 N 
HETATM    3  C6  UNL     1       9.893   5.544  24.102  1.00  0.00     0.240 C 
HETATM    4  C7  UNL     1       9.874   6.689  23.095  1.00  0.00     0.061 C 
HETATM    5  C8  UNL     1       8.562   6.382  22.363  1.00  0.00     0.145 C 
HETATM    6  C9  UNL     1       7.685   6.000  23.530  1.00  0.00     0.269 C 
ENDROOT
BRANCH   2   7
HETATM    7  C2  UNL     1       8.354   3.790  24.039  1.00  0.00     0.217 C 
HETATM    8  C3  UNL     1       9.520   3.211  23.278  1.00  0.00     0.062 C 
HETATM    9  C4  UNL     1       9.728   1.833  23.833  1.00  0.00     0.234 C 
HETATM   10  N2  UNL     1       9.170   1.852  25.144  1.00  0.00    -0.073 N 
HETATM   11  C5  UNL     1       8.208   2.910  25.228  1.00  0.00     0.265 C 
ATOM     12  H22 UNL     1       8.778   0.948  25.412  1.00  0.00     0.277 HD
ATOM     13  H21 UNL     1       9.885   1.919  25.869  1.00  0.00     0.277 HD
ENDBRANCH   2   7
BRANCH   5  14
HETATM   14  O1  UNL     1       8.111   7.494  21.697  1.00  0.00    -0.394 OA
ATOM     15  H1  UNL     1       7.169   7.455  21.585  1.00  0.00     0.210 HD
ENDBRANCH   5  14
TORSDOF 2
ENDMDL
