MODEL 1
REMARK VINA RESULT: -4.939631395      0.000      0.000
REMARK  2 active torsions:
REMARK  status: ('A' for Active; 'I' for Inactive)
REMARK    1  A    between atoms: C7_8  and  O1_9 
REMARK    2  A    between atoms: C8_11  and  O2_12 
ROOT
HETATM    1  C1  UNL     1      10.307   5.384  23.966  1.00  0.00     0.273 C 
HETATM    2  N1  UNL     1       9.244   4.427  24.093  1.00  0.00    -0.062 N 
HETATM    3  C2  UNL     1       8.007   5.156  24.301  1.00  0.00     0.237 C 
HETATM    4  C3  UNL     1       7.895   5.708  25.702  1.00  0.00     0.028 C 
HETATM    5  C4  UNL     1       7.811   4.529  26.639  1.00  0.00     0.004 C 
HETATM    6  C5  UNL     1       8.354   3.265  26.072  1.00  0.00     0.036 C 
HETATM    7  C6  UNL     1       9.452   3.431  25.085  1.00  0.00     0.221 C 
HETATM    8  C7  UNL     1       9.647   2.100  24.374  1.00  0.00     0.179 C 
HETATM    9  C8  UNL     1       9.974   2.521  22.946  1.00  0.00     0.175 C 
HETATM   10  C9  UNL     1       9.092   3.736  22.806  1.00  0.00     0.271 C 
ENDROOT
BRANCH   8  11
HETATM   11  O1  UNL     1       8.409   1.423  24.288  1.00  0.00    -0.391 OA
ATOM     12  H1  UNL     1       8.561   0.501  24.116  1.00  0.00     0.210 HD
ENDBRANCH   8  11
BRANCH   9  13
HETATM   13  O2  UNL     1      11.310   2.786  22.766  1.00  0.00    -0.391 OA
ATOM     14  H2  UNL     1      11.573   3.616  23.147  1.00  0.00     0.210 HD
ENDBRANCH   9  13
TORSDOF 2
ENDMDL
MODEL 2
REMARK VINA RESULT: -4.509874133      1.212      1.313
REMARK  2 active torsions:
REMARK  status: ('A' for Active; 'I' for Inactive)
REMARK    1  A    between atoms: C7_8  and  O1_9 
REMARK    2  A    between atoms: C8_11  and  O2_12 
ROOT
HETATM    1  C1  UNL     1      10.491   3.888  23.611  1.00  0.00     0.273 C 
HETATM    2  N1  UNL     1       9.262   3.318  24.087  1.00  0.00    -0.062 N 
HETATM    3  C2  UNL     1       8.214   4.306  23.911  1.00  0.00     0.237 C 
HETATM    4  C3  UNL     1       8.288   5.410  24.938  1.00  0.00     0.028 C 
HETATM    5  C4  UNL     1       8.011   4.787  26.283  1.00  0.00     0.004 C 
HETATM    6  C5  UNL     1       8.253   3.321  26.332  1.00  0.00     0.036 C 
HETATM    7  C6  UNL     1       9.311   2.819  25.417  1.00  0.00     0.221 C 
HETATM    8  C7  UNL     1       9.191   1.304  25.349  1.00  0.00     0.179 C 
HETATM    9  C8  UNL     1       9.526   1.000  23.893  1.00  0.00     0.175 C 
HETATM   10  C9  UNL     1       8.907   2.194  23.212  1.00  0.00     0.271 C 
ENDROOT
BRANCH   8  11
HETATM   11  O1  UNL     1       7.838   0.927  25.507  1.00  0.00    -0.391 OA
ATOM     12  H1  UNL     1       7.502   1.276  26.324  1.00  0.00     0.210 HD
ENDBRANCH   8  11
BRANCH   9  13
HETATM   13  O2  UNL     1      10.877   0.880  23.676  1.00  0.00    -0.391 OA
ATOM     14  H2  UNL     1      11.169  -0.024  23.685  1.00  0.00     0.210 HD
ENDBRANCH   9  13
TORSDOF 2
ENDMDL
MODEL 3
REMARK VINA RESULT: -4.425640572      1.965      3.614
REMARK  2 active torsions:
REMARK  status: ('A' for Active; 'I' for Inactive)
REMARK    1  A    between atoms: C7_8  and  O1_9 
REMARK    2  A    between atoms: C8_11  and  O2_12 
ROOT
HETATM    1  C1  UNL     1       9.030   3.403  26.461  1.00  0.00     0.273 C 
HETATM    2  N1  UNL     1       8.749   3.325  25.055  1.00  0.00    -0.062 N 
HETATM    3  C2  UNL     1       8.193   2.013  24.782  1.00  0.00     0.237 C 
HETATM    4  C3  UNL     1       9.245   0.931  24.797  1.00  0.00     0.028 C 
HETATM    5  C4  UNL     1      10.180   1.202  23.644  1.00  0.00     0.004 C 
HETATM    6  C5  UNL     1      10.162   2.611  23.170  1.00  0.00     0.036 C 
HETATM    7  C6  UNL     1       9.850   3.628  24.208  1.00  0.00     0.221 C 
HETATM    8  C7  UNL     1       9.545   4.940  23.501  1.00  0.00     0.179 C 
HETATM    9  C8  UNL     1       8.430   5.536  24.354  1.00  0.00     0.175 C 
HETATM   10  C9  UNL     1       7.683   4.286  24.745  1.00  0.00     0.271 C 
ENDROOT
BRANCH   8  11
HETATM   11  O1  UNL     1       8.952   4.676  22.245  1.00  0.00    -0.391 OA
ATOM     12  H1  UNL     1       8.617   5.483  21.874  1.00  0.00     0.210 HD
ENDBRANCH   8  11
BRANCH   9  13
HETATM   13  O2  UNL     1       8.909   6.252  25.424  1.00  0.00    -0.391 OA
ATOM     14  H2  UNL     1       9.360   5.704  26.057  1.00  0.00     0.210 HD
ENDBRANCH   9  13
TORSDOF 2
ENDMDL
MODEL 4
REMARK VINA RESULT: -4.410996112      2.216      3.134
REMARK  2 active torsions:
REMARK  status: ('A' for Active; 'I' for Inactive)
REMARK    1  A    between atoms: C7_8  and  O1_9 
REMARK    2  A    between atoms: C8_11  and  O2_12 
ROOT
HETATM    1  C1  UNL     1      10.356   5.962  23.796  1.00  0.00     0.273 C 
HETATM    2  N1  UNL     1       8.946   5.761  23.615  1.00  0.00    -0.062 N 
HETATM    3  C2  UNL     1       8.541   6.486  22.425  1.00  0.00     0.237 C 
HETATM    4  C3  UNL     1       8.463   7.975  22.659  1.00  0.00     0.028 C 
HETATM    5  C4  UNL     1       7.353   8.212  23.653  1.00  0.00     0.004 C 
HETATM    6  C5  UNL     1       7.017   7.023  24.480  1.00  0.00     0.036 C 
HETATM    7  C6  UNL     1       8.145   6.090  24.741  1.00  0.00     0.221 C 
HETATM    8  C7  UNL     1       7.564   4.797  25.293  1.00  0.00     0.179 C 
HETATM    9  C8  UNL     1       8.458   3.730  24.670  1.00  0.00     0.175 C 
HETATM   10  C9  UNL     1       8.718   4.341  23.318  1.00  0.00     0.271 C 
ENDROOT
BRANCH   8  11
HETATM   11  O1  UNL     1       6.282   4.578  24.740  1.00  0.00    -0.391 OA
ATOM     12  H1  UNL     1       6.302   3.809  24.183  1.00  0.00     0.210 HD
ENDBRANCH   8  11
BRANCH   9  13
HETATM   13  O2  UNL     1       9.598   3.502  25.402  1.00  0.00    -0.391 OA
ATOM     14  H2  UNL     1       9.468   2.860  26.091  1.00  0.00     0.210 HD
ENDBRANCH   9  13
TORSDOF 2
ENDMDL
MODEL 5
REMARK VINA RESULT: -4.350940780      2.808      4.213
REMARK  2 active torsions:
REMARK  status: ('A' for Active; 'I' for Inactive)
REMARK    1  A    between atoms: C7_8  and  O1_9 
REMARK    2  A    between atoms: C8_11  and  O2_12 
ROOT
HETATM    1  C1  UNL     1       7.694   5.658  26.283  1.00  0.00     0.273 C 
HETATM    2  N1  UNL     1       7.645   5.212  24.919  1.00  0.00    -0.062 N 
HETATM    3  C2  UNL     1       7.848   3.776  24.910  1.00  0.00     0.237 C 
HETATM    4  C3  UNL     1       9.290   3.399  25.151  1.00  0.00     0.028 C 
HETATM    5  C4  UNL     1      10.086   3.910  23.976  1.00  0.00     0.004 C 
HETATM    6  C5  UNL     1       9.423   5.011  23.228  1.00  0.00     0.036 C 
HETATM    7  C6  UNL     1       8.534   5.885  24.039  1.00  0.00     0.221 C 
HETATM    8  C7  UNL     1       7.697   6.718  23.079  1.00  0.00     0.179 C 
HETATM    9  C8  UNL     1       6.348   6.798  23.785  1.00  0.00     0.175 C 
HETATM   10  C9  UNL     1       6.284   5.429  24.413  1.00  0.00     0.271 C 
ENDROOT
BRANCH   8  11
HETATM   11  O1  UNL     1       7.456   5.982  21.897  1.00  0.00    -0.391 OA
ATOM     12  H1  UNL     1       7.793   5.100  21.996  1.00  0.00     0.210 HD
ENDBRANCH   8  11
BRANCH   9  13
HETATM   13  O2  UNL     1       6.287   7.826  24.695  1.00  0.00    -0.391 OA
ATOM     14  H2  UNL     1       5.831   7.582  25.492  1.00  0.00     0.210 HD
ENDBRANCH   9  13
TORSDOF 2
ENDMDL
