MODEL 1
REMARK VINA RESULT: -4.611739311      0.000      0.000
REMARK  3 active torsions:
REMARK  status: ('A' for Active; 'I' for Inactive)
REMARK    1  A    between atoms: O1_1  and  C1_3 
REMARK    2  A    between atoms: C1_3  and  C2_4 
REMARK    3  A    between atoms: C5_8  and  O2_9 
ROOT
HETATM    1  C2  UNL     1       8.702   4.262  24.214  1.00  0.00     0.044 C 
HETATM    2  C3  UNL     1       9.841   5.191  23.985  1.00  0.00     0.279 C 
HETATM    3  N1  UNL     1       9.488   6.475  23.473  1.00  0.00     0.091 N 
HETATM    4  C4  UNL     1       8.434   6.466  22.505  1.00  0.00     0.304 C 
HETATM    5  C5  UNL     1       7.225   5.736  23.031  1.00  0.00     0.151 C 
HETATM    6  C6  UNL     1       7.432   5.099  24.356  1.00  0.00     0.028 C 
HETATM    7  C7  UNL     1       7.474   5.948  25.548  1.00  0.00    -0.001 A 
HETATM    8  C8  UNL     1       6.961   7.316  25.664  1.00  0.00     0.012 A 
HETATM    9  C9  UNL     1       8.480   6.982  25.665  1.00  0.00     0.019 A 
HETATM   10  C10 UNL     1       9.196   7.452  24.466  1.00  0.00     0.277 C 
ENDROOT
BRANCH   1  11
HETATM   11  C1  UNL     1       8.911   3.360  25.399  1.00  0.00     0.170 C 
BRANCH  11  12
HETATM   12  O1  UNL     1       7.832   2.493  25.527  1.00  0.00    -0.400 OA
ATOM     13  H1  UNL     1       8.039   1.660  25.120  1.00  0.00     0.209 HD
ENDBRANCH  11  12
ENDBRANCH   1  11
BRANCH   5  14
HETATM   14  O2  UNL     1       6.054   6.479  22.924  1.00  0.00    -0.393 OA
ATOM     15  H2  UNL     1       5.523   6.450  23.712  1.00  0.00     0.210 HD
ENDBRANCH   5  14
TORSDOF 3
ENDMDL
MODEL 2
REMARK VINA RESULT: -4.603900988      1.583      1.712
REMARK  3 active torsions:
REMARK  status: ('A' for Active; 'I' for Inactive)
REMARK    1  A    between atoms: O1_1  and  C1_3 
REMARK    2  A    between atoms: C1_3  and  C2_4 
REMARK    3  A    between atoms: C5_8  and  O2_9 
ROOT
HETATM    1  C2  UNL     1       9.636   4.785  23.149  1.00  0.00     0.044 C 
HETATM    2  C3  UNL     1      10.305   5.976  23.740  1.00  0.00     0.279 C 
HETATM    3  N1  UNL     1       9.461   7.107  23.953  1.00  0.00     0.091 N 
HETATM    4  C4  UNL     1       8.489   7.332  22.928  1.00  0.00     0.304 C 
HETATM    5  C5  UNL     1       7.679   6.087  22.669  1.00  0.00     0.151 C 
HETATM    6  C6  UNL     1       8.139   4.899  23.431  1.00  0.00     0.028 C 
HETATM    7  C7  UNL     1       7.850   4.824  24.863  1.00  0.00    -0.001 A 
HETATM    8  C8  UNL     1       6.833   5.589  25.590  1.00  0.00     0.012 A 
HETATM    9  C9  UNL     1       8.358   5.841  25.759  1.00  0.00     0.019 A 
HETATM   10  C10 UNL     1       8.813   7.135  25.220  1.00  0.00     0.277 C 
ENDROOT
BRANCH   1  11
HETATM   11  C1  UNL     1      10.202   3.486  23.653  1.00  0.00     0.170 C 
BRANCH  11  12
HETATM   12  O1  UNL     1      11.415   3.227  23.026  1.00  0.00    -0.400 OA
ATOM     13  H1  UNL     1      11.530   3.818  22.291  1.00  0.00     0.209 HD
ENDBRANCH  11  12
ENDBRANCH   1  11
BRANCH   5  14
HETATM   14  O2  UNL     1       6.308   6.312  22.721  1.00  0.00    -0.393 OA
ATOM     15  H2  UNL     1       5.833   5.873  22.024  1.00  0.00     0.210 HD
ENDBRANCH   5  14
TORSDOF 3
ENDMDL
MODEL 3
REMARK VINA RESULT: -4.588876088      2.053      3.429
REMARK  3 active torsions:
REMARK  status: ('A' for Active; 'I' for Inactive)
REMARK    1  A    between atoms: O1_1  and  C1_3 
REMARK    2  A    between atoms: C1_3  and  C2_4 
REMARK    3  A    between atoms: C5_8  and  O2_9 
ROOT
HETATM    1  C2  UNL     1       6.270   6.416  23.331  1.00  0.00     0.044 C 
HETATM    2  C3  UNL     1       6.313   5.334  24.351  1.00  0.00     0.279 C 
HETATM    3  N1  UNL     1       7.606   4.783  24.602  1.00  0.00     0.091 N 
HETATM    4  C4  UNL     1       8.430   4.635  23.441  1.00  0.00     0.304 C 
HETATM    5  C5  UNL     1       8.527   5.932  22.680  1.00  0.00     0.151 C 
HETATM    6  C6  UNL     1       7.670   7.017  23.222  1.00  0.00     0.028 C 
HETATM    7  C7  UNL     1       8.073   7.681  24.462  1.00  0.00    -0.001 A 
HETATM    8  C8  UNL     1       9.413   7.685  25.055  1.00  0.00     0.012 A 
HETATM    9  C9  UNL     1       8.216   6.914  25.681  1.00  0.00     0.019 A 
HETATM   10  C10 UNL     1       8.349   5.448  25.617  1.00  0.00     0.277 C 
ENDROOT
BRANCH   1  11
HETATM   11  C1  UNL     1       5.235   7.465  23.634  1.00  0.00     0.170 C 
BRANCH  11  12
HETATM   12  O1  UNL     1       4.185   7.365  22.728  1.00  0.00    -0.400 OA
ATOM     13  H1  UNL     1       4.279   8.026  22.053  1.00  0.00     0.209 HD
ENDBRANCH  11  12
ENDBRANCH   1  11
BRANCH   5  14
HETATM   14  O2  UNL     1       9.840   6.310  22.418  1.00  0.00    -0.393 OA
ATOM     15  H2  UNL     1      10.430   6.130  23.141  1.00  0.00     0.210 HD
ENDBRANCH   5  14
TORSDOF 3
ENDMDL
MODEL 4
REMARK VINA RESULT: -4.587535214      2.106      3.165
REMARK  3 active torsions:
REMARK  status: ('A' for Active; 'I' for Inactive)
REMARK    1  A    between atoms: O1_1  and  C1_3 
REMARK    2  A    between atoms: C1_3  and  C2_4 
REMARK    3  A    between atoms: C5_8  and  O2_9 
ROOT
HETATM    1  C2  UNL     1       9.620   4.111  24.273  1.00  0.00     0.044 C 
HETATM    2  C3  UNL     1       8.195   3.851  24.613  1.00  0.00     0.279 C 
HETATM    3  N1  UNL     1       7.432   5.003  24.968  1.00  0.00     0.091 N 
HETATM    4  C4  UNL     1       8.136   5.970  25.754  1.00  0.00     0.304 C 
HETATM    5  C5  UNL     1       9.436   6.357  25.096  1.00  0.00     0.151 C 
HETATM    6  C6  UNL     1       9.747   5.579  23.870  1.00  0.00     0.028 C 
HETATM    7  C7  UNL     1       9.006   5.871  22.643  1.00  0.00    -0.001 A 
HETATM    8  C8  UNL     1       8.250   7.091  22.348  1.00  0.00     0.012 A 
HETATM    9  C9  UNL     1       7.567   5.719  22.613  1.00  0.00     0.019 A 
HETATM   10  C10 UNL     1       6.806   5.664  23.873  1.00  0.00     0.277 C 
ENDROOT
BRANCH   1  11
HETATM   11  C1  UNL     1      10.144   3.192  23.204  1.00  0.00     0.170 C 
BRANCH  11  12
HETATM   12  O1  UNL     1      11.510   3.393  23.039  1.00  0.00    -0.400 OA
ATOM     13  H1  UNL     1      11.935   3.425  23.888  1.00  0.00     0.209 HD
ENDBRANCH  11  12
ENDBRANCH   1  11
BRANCH   5  14
HETATM   14  O2  UNL     1       9.587   7.733  24.962  1.00  0.00    -0.393 OA
ATOM     15  H2  UNL     1       9.560   8.022  24.057  1.00  0.00     0.210 HD
ENDBRANCH   5  14
TORSDOF 3
ENDMDL
MODEL 5
REMARK VINA RESULT: -4.533125223      1.785      3.003
REMARK  3 active torsions:
REMARK  status: ('A' for Active; 'I' for Inactive)
REMARK    1  A    between atoms: O1_1  and  C1_3 
REMARK    2  A    between atoms: C1_3  and  C2_4 
REMARK    3  A    between atoms: C5_8  and  O2_9 
ROOT
HETATM    1  C2  UNL     1       6.450   5.296  24.456  1.00  0.00     0.044 C 
HETATM    2  C3  UNL     1       7.205   5.806  25.633  1.00  0.00     0.279 C 
HETATM    3  N1  UNL     1       8.618   5.908  25.454  1.00  0.00     0.091 N 
HETATM    4  C4  UNL     1       9.205   4.845  24.698  1.00  0.00     0.304 C 
HETATM    5  C5  UNL     1       8.499   4.666  23.379  1.00  0.00     0.151 C 
HETATM    6  C6  UNL     1       7.303   5.531  23.211  1.00  0.00     0.028 C 
HETATM    7  C7  UNL     1       7.496   6.958  22.948  1.00  0.00    -0.001 A 
HETATM    8  C8  UNL     1       8.717   7.596  22.449  1.00  0.00     0.012 A 
HETATM    9  C9  UNL     1       8.204   7.781  23.905  1.00  0.00     0.019 A 
HETATM   10  C10 UNL     1       9.062   7.153  24.925  1.00  0.00     0.277 C 
ENDROOT
BRANCH   1  11
HETATM   11  C1  UNL     1       5.086   5.915  24.323  1.00  0.00     0.170 C 
BRANCH  11  12
HETATM   12  O1  UNL     1       4.116   4.920  24.323  1.00  0.00    -0.400 OA
ATOM     13  H1  UNL     1       3.667   4.909  23.487  1.00  0.00     0.209 HD
ENDBRANCH  11  12
ENDBRANCH   1  11
BRANCH   5  14
HETATM   14  O2  UNL     1       9.368   4.667  22.293  1.00  0.00    -0.393 OA
ATOM     15  H2  UNL     1       9.632   3.793  22.029  1.00  0.00     0.210 HD
ENDBRANCH   5  14
TORSDOF 3
ENDMDL
