MODEL 1
REMARK VINA RESULT: -9.602867765      0.000      0.000
REMARK  12 active torsions:
REMARK  status: ('A' for Active; 'I' for Inactive)
REMARK    1  A    between atoms: C2_2  and  C3_3 
REMARK    2  A    between atoms: C3_3  and  C4_4 
REMARK    3  A    between atoms: C4_4  and  N1_5 
REMARK    4  A    between atoms: C4_4  and  C12_17 
REMARK       I    between atoms: N1_5  and  C5_7 
REMARK       I    between atoms: C5_7  and  N2_9 
REMARK    5  A    between atoms: N2_9  and  C6_11 
REMARK       I    between atoms: C12_17  and  N3_19 
REMARK    6  A    between atoms: N3_19  and  C13_21 
REMARK    7  A    between atoms: C13_21  and  C14_22 
REMARK       I    between atoms: C14_22  and  N4_24 
REMARK    8  A    between atoms: C17_27  and  C18_28 
REMARK    9  A    between atoms: C18_28  and  C19_29 
REMARK   10  A    between atoms: C19_29  and  N5_31 
REMARK   11  A    between atoms: N5_31  and  C20_33 
REMARK   12  A    between atoms: C29_45  and  C30_46 
ROOT
HETATM    1  C14 UNL     1      11.402  25.189   5.845  1.00  0.00     0.249 C 
HETATM    2  O3  UNL     1      12.460  25.798   5.443  1.00  0.00    -0.270 OA
HETATM    3  N4  UNL     1      10.373  25.011   4.902  1.00  0.00    -0.336 N 
HETATM    4  C15 UNL     1       9.110  24.403   5.083  1.00  0.00     0.134 C 
HETATM    5  C16 UNL     1       8.683  23.998   3.656  1.00  0.00     0.042 C 
HETATM    6  C17 UNL     1       7.188  24.083   3.635  1.00  0.00     0.097 C 
HETATM    7  N6  UNL     1       6.910  25.422   3.212  1.00  0.00    -0.355 N 
ATOM      8  H6  UNL     1       5.979  25.792   3.019  1.00  0.00     0.162 HD
HETATM    9  C27 UNL     1       8.121  26.164   3.100  1.00  0.00     0.225 C 
HETATM   10  O4  UNL     1       8.296  27.416   3.174  1.00  0.00    -0.273 OA
HETATM   11  C28 UNL     1       9.200  25.203   2.872  1.00  0.00     0.117 C 
HETATM   12  C29 UNL     1      10.502  25.480   3.513  1.00  0.00     0.190 C 
ENDROOT
BRANCH   1  13
HETATM   13  C13 UNL     1      11.398  24.758   7.242  1.00  0.00     0.114 C 
HETATM   14  C31 UNL     1      10.036  24.457   7.860  1.00  0.00     0.041 C 
HETATM   15  C32 UNL     1      10.451  25.174   9.119  1.00  0.00     0.006 C 
HETATM   16  C33 UNL     1      11.597  25.770   8.313  1.00  0.00     0.041 C 
BRANCH  13  17
HETATM   17  N3  UNL     1      12.226  23.545   7.411  1.00  0.00    -0.341 N 
HETATM   18  C12 UNL     1      13.547  23.679   7.826  1.00  0.00     0.241 C 
HETATM   19  O2  UNL     1      14.013  24.823   8.089  1.00  0.00    -0.271 OA
ATOM     20  H3  UNL     1      11.834  22.621   7.226  1.00  0.00     0.163 HD
BRANCH  18  21
HETATM   21  C4  UNL     1      14.458  22.533   7.963  1.00  0.00     0.178 C 
BRANCH  21  22
HETATM   22  C3  UNL     1      15.436  22.682   9.068  1.00  0.00     0.034 C 
BRANCH  22  23
HETATM   23  C2  UNL     1      16.849  22.941   8.817  1.00  0.00    -0.002 C 
HETATM   24  C1  UNL     1      17.856  21.864   8.896  1.00  0.00     0.005 C 
ENDBRANCH  22  23
ENDBRANCH  21  22
BRANCH  21  25
HETATM   25  N1  UNL     1      15.215  22.511   6.669  1.00  0.00    -0.330 N 
HETATM   26  C5  UNL     1      15.353  21.347   5.903  1.00  0.00     0.317 C 
HETATM   27  O1  UNL     1      14.838  20.254   6.354  1.00  0.00    -0.247 OA
HETATM   28  N2  UNL     1      16.017  21.274   4.663  1.00  0.00    -0.339 N 
ATOM     29  H2  UNL     1      16.424  22.117   4.258  1.00  0.00     0.164 HD
ATOM     30  H1  UNL     1      15.643  23.374   6.334  1.00  0.00     0.165 HD
BRANCH  28  31
HETATM   31  C6  UNL     1      16.126  20.029   3.965  1.00  0.00     0.086 C 
HETATM   32  C7  UNL     1      17.503  19.476   3.856  1.00  0.00     0.025 C 
HETATM   33  C8  UNL     1      17.451  18.357   2.822  1.00  0.00     0.002 C 
HETATM   34  C9  UNL     1      16.037  17.818   2.688  1.00  0.00     0.000 C 
HETATM   35  C10 UNL     1      15.071  18.842   2.138  1.00  0.00     0.002 C 
HETATM   36  C11 UNL     1      15.583  20.204   2.532  1.00  0.00     0.025 C 
ENDBRANCH  28  31
ENDBRANCH  21  25
ENDBRANCH  18  21
ENDBRANCH  13  17
ENDBRANCH   1  13
BRANCH  12  37
HETATM   37  C30 UNL     1      11.621  24.737   2.841  1.00  0.00     0.255 C 
HETATM   38  N7  UNL     1      11.926  23.400   3.095  1.00  0.00    -0.060 NA
HETATM   39  O5  UNL     1      12.309  25.369   2.005  1.00  0.00    -0.275 OA
ENDBRANCH  12  37
BRANCH   6  40
HETATM   40  C18 UNL     1       6.610  23.000   2.766  1.00  0.00     0.095 C 
BRANCH  40  41
HETATM   41  C19 UNL     1       6.728  21.643   3.269  1.00  0.00     0.076 C 
HETATM   42  S1  UNL     1       7.932  20.699   2.639  1.00  0.00    -0.066 SA
BRANCH  41  43
HETATM   43  N5  UNL     1       5.908  21.063   4.239  1.00  0.00    -0.374 N 
ATOM     44  H5  UNL     1       6.348  20.675   5.073  1.00  0.00     0.161 HD
BRANCH  43  45
HETATM   45  C20 UNL     1       4.472  20.982   4.127  1.00  0.00     0.041 C 
HETATM   46  C21 UNL     1       3.854  22.280   4.583  1.00  0.00     0.039 C 
HETATM   47  C22 UNL     1       3.803  19.805   4.745  1.00  0.00     0.037 C 
HETATM   48  C23 UNL     1       4.395  18.657   4.011  1.00  0.00    -0.023 C 
HETATM   49  C26 UNL     1       2.655  20.137   3.770  1.00  0.00     0.022 C 
HETATM   50  C24 UNL     1       4.436  19.121   2.736  1.00  0.00    -0.023 C 
HETATM   51  C25 UNL     1       3.868  20.476   2.869  1.00  0.00     0.037 C 
ENDBRANCH  43  45
ENDBRANCH  41  43
ENDBRANCH  40  41
ENDBRANCH   6  40
TORSDOF 12
ENDMDL
MODEL 2
REMARK VINA RESULT: -9.440010984      2.788      4.189
REMARK  12 active torsions:
REMARK  status: ('A' for Active; 'I' for Inactive)
REMARK    1  A    between atoms: C2_2  and  C3_3 
REMARK    2  A    between atoms: C3_3  and  C4_4 
REMARK    3  A    between atoms: C4_4  and  N1_5 
REMARK    4  A    between atoms: C4_4  and  C12_17 
REMARK       I    between atoms: N1_5  and  C5_7 
REMARK       I    between atoms: C5_7  and  N2_9 
REMARK    5  A    between atoms: N2_9  and  C6_11 
REMARK       I    between atoms: C12_17  and  N3_19 
REMARK    6  A    between atoms: N3_19  and  C13_21 
REMARK    7  A    between atoms: C13_21  and  C14_22 
REMARK       I    between atoms: C14_22  and  N4_24 
REMARK    8  A    between atoms: C17_27  and  C18_28 
REMARK    9  A    between atoms: C18_28  and  C19_29 
REMARK   10  A    between atoms: C19_29  and  N5_31 
REMARK   11  A    between atoms: N5_31  and  C20_33 
REMARK   12  A    between atoms: C29_45  and  C30_46 
ROOT
HETATM    1  C14 UNL     1      10.615  23.490   5.493  1.00  0.00     0.249 C 
HETATM    2  O3  UNL     1      10.938  22.248   5.427  1.00  0.00    -0.270 OA
HETATM    3  N4  UNL     1      10.005  24.050   4.355  1.00  0.00    -0.336 N 
HETATM    4  C15 UNL     1       9.575  25.381   4.153  1.00  0.00     0.134 C 
HETATM    5  C16 UNL     1       8.525  25.267   3.028  1.00  0.00     0.042 C 
HETATM    6  C17 UNL     1       8.600  26.552   2.263  1.00  0.00     0.097 C 
HETATM    7  N6  UNL     1       9.561  26.300   1.232  1.00  0.00    -0.355 N 
ATOM      8  H6  UNL     1       9.796  26.950   0.482  1.00  0.00     0.162 HD
HETATM    9  C27 UNL     1      10.142  25.011   1.404  1.00  0.00     0.225 C 
HETATM   10  O4  UNL     1      11.268  24.587   1.008  1.00  0.00    -0.273 OA
HETATM   11  C28 UNL     1       9.185  24.200   2.155  1.00  0.00     0.117 C 
HETATM   12  C29 UNL     1       9.730  23.253   3.149  1.00  0.00     0.190 C 
ENDROOT
BRANCH   1  13
HETATM   13  C13 UNL     1      10.927  24.171   6.748  1.00  0.00     0.114 C 
HETATM   14  C31 UNL     1       9.758  24.425   7.695  1.00  0.00     0.041 C 
HETATM   15  C32 UNL     1      10.281  25.812   7.967  1.00  0.00     0.006 C 
HETATM   16  C33 UNL     1      11.163  25.639   6.737  1.00  0.00     0.041 C 
BRANCH  13  17
HETATM   17  N3  UNL     1      11.941  23.412   7.511  1.00  0.00    -0.341 N 
HETATM   18  C12 UNL     1      13.271  23.465   7.105  1.00  0.00     0.241 C 
HETATM   19  O2  UNL     1      13.604  24.185   6.123  1.00  0.00    -0.271 OA
ATOM     20  H3  UNL     1      11.669  22.856   8.322  1.00  0.00     0.163 HD
BRANCH  18  21
HETATM   21  C4  UNL     1      14.335  22.696   7.768  1.00  0.00     0.178 C 
BRANCH  21  22
HETATM   22  C3  UNL     1      14.953  23.405   8.915  1.00  0.00     0.034 C 
BRANCH  22  23
HETATM   23  C2  UNL     1      15.812  22.718   9.872  1.00  0.00    -0.002 C 
HETATM   24  C1  UNL     1      15.796  21.247  10.006  1.00  0.00     0.005 C 
ENDBRANCH  22  23
ENDBRANCH  21  22
BRANCH  21  25
HETATM   25  N1  UNL     1      15.379  22.528   6.705  1.00  0.00    -0.330 N 
HETATM   26  C5  UNL     1      15.559  21.322   6.017  1.00  0.00     0.317 C 
HETATM   27  O1  UNL     1      14.818  20.316   6.341  1.00  0.00    -0.247 OA
HETATM   28  N2  UNL     1      16.494  21.115   4.985  1.00  0.00    -0.339 N 
ATOM     29  H2  UNL     1      17.089  21.887   4.682  1.00  0.00     0.164 HD
ATOM     30  H1  UNL     1      15.980  23.320   6.475  1.00  0.00     0.165 HD
BRANCH  28  31
HETATM   31  C6  UNL     1      16.618  19.836   4.356  1.00  0.00     0.086 C 
HETATM   32  C7  UNL     1      18.009  19.328   4.210  1.00  0.00     0.025 C 
HETATM   33  C8  UNL     1      17.951  18.148   3.247  1.00  0.00     0.002 C 
HETATM   34  C9  UNL     1      16.555  17.550   3.217  1.00  0.00     0.000 C 
HETATM   35  C10 UNL     1      15.524  18.503   2.657  1.00  0.00     0.002 C 
HETATM   36  C11 UNL     1      16.000  19.904   2.944  1.00  0.00     0.025 C 
ENDBRANCH  28  31
ENDBRANCH  21  25
ENDBRANCH  18  21
ENDBRANCH  13  17
ENDBRANCH   1  13
BRANCH  12  37
HETATM   37  C30 UNL     1       8.743  22.171   3.485  1.00  0.00     0.255 C 
HETATM   38  N7  UNL     1       8.944  20.821   3.200  1.00  0.00    -0.060 NA
HETATM   39  O5  UNL     1       7.683  22.520   4.058  1.00  0.00    -0.275 OA
ENDBRANCH  12  37
BRANCH   6  40
HETATM   40  C18 UNL     1       7.235  26.964   1.785  1.00  0.00     0.095 C 
BRANCH  40  41
HETATM   41  C19 UNL     1       6.355  27.547   2.782  1.00  0.00     0.076 C 
HETATM   42  S1  UNL     1       4.821  27.943   2.306  1.00  0.00    -0.066 SA
BRANCH  41  43
HETATM   43  N5  UNL     1       6.695  27.806   4.111  1.00  0.00    -0.374 N 
ATOM     44  H5  UNL     1       7.371  28.546   4.300  1.00  0.00     0.161 HD
BRANCH  43  45
HETATM   45  C20 UNL     1       6.145  27.084   5.233  1.00  0.00     0.041 C 
HETATM   46  C21 UNL     1       5.525  25.797   4.752  1.00  0.00     0.039 C 
HETATM   47  C22 UNL     1       5.236  27.829   6.145  1.00  0.00     0.037 C 
HETATM   48  C23 UNL     1       6.101  28.918   6.668  1.00  0.00    -0.023 C 
HETATM   49  C26 UNL     1       5.606  26.730   7.164  1.00  0.00     0.022 C 
HETATM   50  C24 UNL     1       7.279  28.276   6.874  1.00  0.00    -0.023 C 
HETATM   51  C25 UNL     1       6.972  26.896   6.452  1.00  0.00     0.037 C 
ENDBRANCH  43  45
ENDBRANCH  41  43
ENDBRANCH  40  41
ENDBRANCH   6  40
TORSDOF 12
ENDMDL
MODEL 3
REMARK VINA RESULT: -9.409308765      1.949      2.279
REMARK  12 active torsions:
REMARK  status: ('A' for Active; 'I' for Inactive)
REMARK    1  A    between atoms: C2_2  and  C3_3 
REMARK    2  A    between atoms: C3_3  and  C4_4 
REMARK    3  A    between atoms: C4_4  and  N1_5 
REMARK    4  A    between atoms: C4_4  and  C12_17 
REMARK       I    between atoms: N1_5  and  C5_7 
REMARK       I    between atoms: C5_7  and  N2_9 
REMARK    5  A    between atoms: N2_9  and  C6_11 
REMARK       I    between atoms: C12_17  and  N3_19 
REMARK    6  A    between atoms: N3_19  and  C13_21 
REMARK    7  A    between atoms: C13_21  and  C14_22 
REMARK       I    between atoms: C14_22  and  N4_24 
REMARK    8  A    between atoms: C17_27  and  C18_28 
REMARK    9  A    between atoms: C18_28  and  C19_29 
REMARK   10  A    between atoms: C19_29  and  N5_31 
REMARK   11  A    between atoms: N5_31  and  C20_33 
REMARK   12  A    between atoms: C29_45  and  C30_46 
ROOT
HETATM    1  C14 UNL     1      10.709  25.128   5.298  1.00  0.00     0.249 C 
HETATM    2  O3  UNL     1      11.686  24.712   4.573  1.00  0.00    -0.270 OA
HETATM    3  N4  UNL     1       9.513  25.450   4.630  1.00  0.00    -0.336 N 
HETATM    4  C15 UNL     1       8.307  25.945   5.177  1.00  0.00     0.134 C 
HETATM    5  C16 UNL     1       7.240  25.571   4.126  1.00  0.00     0.042 C 
HETATM    6  C17 UNL     1       6.195  26.640   4.203  1.00  0.00     0.097 C 
HETATM    7  N6  UNL     1       6.617  27.624   3.253  1.00  0.00    -0.355 N 
ATOM      8  H6  UNL     1       6.084  28.456   2.999  1.00  0.00     0.162 HD
HETATM    9  C27 UNL     1       7.888  27.274   2.713  1.00  0.00     0.225 C 
HETATM   10  O4  UNL     1       8.770  28.027   2.204  1.00  0.00    -0.273 OA
HETATM   11  C28 UNL     1       8.031  25.825   2.843  1.00  0.00     0.117 C 
HETATM   12  C29 UNL     1       9.372  25.302   3.173  1.00  0.00     0.190 C 
ENDROOT
BRANCH   1  13
HETATM   13  C13 UNL     1      10.967  25.219   6.734  1.00  0.00     0.114 C 
HETATM   14  C31 UNL     1       9.970  24.517   7.652  1.00  0.00     0.041 C 
HETATM   15  C32 UNL     1       9.993  25.703   8.581  1.00  0.00     0.006 C 
HETATM   16  C33 UNL     1      10.649  26.483   7.449  1.00  0.00     0.041 C 
BRANCH  13  17
HETATM   17  N3  UNL     1      12.304  24.675   7.056  1.00  0.00    -0.341 N 
HETATM   18  C12 UNL     1      12.442  23.308   7.277  1.00  0.00     0.241 C 
HETATM   19  O2  UNL     1      11.442  22.545   7.165  1.00  0.00    -0.271 OA
ATOM     20  H3  UNL     1      13.113  25.293   7.114  1.00  0.00     0.163 HD
BRANCH  18  21
HETATM   21  C4  UNL     1      13.721  22.690   7.659  1.00  0.00     0.178 C 
BRANCH  21  22
HETATM   22  C3  UNL     1      14.501  23.493   8.631  1.00  0.00     0.034 C 
BRANCH  22  23
HETATM   23  C2  UNL     1      15.612  22.923   9.384  1.00  0.00    -0.002 C 
HETATM   24  C1  UNL     1      15.609  21.511   9.814  1.00  0.00     0.005 C 
ENDBRANCH  22  23
ENDBRANCH  21  22
BRANCH  21  25
HETATM   25  N1  UNL     1      14.493  22.627   6.376  1.00  0.00    -0.330 N 
HETATM   26  C5  UNL     1      14.958  21.419   5.841  1.00  0.00     0.317 C 
HETATM   27  O1  UNL     1      14.738  20.333   6.501  1.00  0.00    -0.247 OA
HETATM   28  N2  UNL     1      15.654  21.294   4.623  1.00  0.00    -0.339 N 
ATOM     29  H2  UNL     1      15.835  22.124   4.058  1.00  0.00     0.164 HD
ATOM     30  H1  UNL     1      14.688  23.494   5.876  1.00  0.00     0.165 HD
BRANCH  28  31
HETATM   31  C6  UNL     1      16.109  20.015   4.170  1.00  0.00     0.086 C 
HETATM   32  C7  UNL     1      17.557  19.742   4.378  1.00  0.00     0.025 C 
HETATM   33  C8  UNL     1      17.898  18.508   3.550  1.00  0.00     0.002 C 
HETATM   34  C9  UNL     1      16.652  17.681   3.284  1.00  0.00     0.000 C 
HETATM   35  C10 UNL     1      15.644  18.406   2.422  1.00  0.00     0.002 C 
HETATM   36  C11 UNL     1      15.825  19.884   2.660  1.00  0.00     0.025 C 
ENDBRANCH  28  31
ENDBRANCH  21  25
ENDBRANCH  18  21
ENDBRANCH  13  17
ENDBRANCH   1  13
BRANCH  12  37
HETATM   37  C30 UNL     1       9.509  23.852   2.807  1.00  0.00     0.255 C 
HETATM   38  N7  UNL     1       9.010  22.805   3.582  1.00  0.00    -0.060 NA
HETATM   39  O5  UNL     1      10.109  23.584   1.738  1.00  0.00    -0.275 OA
ENDBRANCH  12  37
BRANCH   6  40
HETATM   40  C18 UNL     1       4.828  26.059   3.965  1.00  0.00     0.095 C 
BRANCH  40  41
HETATM   41  C19 UNL     1       4.254  25.301   5.063  1.00  0.00     0.076 C 
HETATM   42  S1  UNL     1       3.647  26.155   6.343  1.00  0.00    -0.066 SA
BRANCH  41  43
HETATM   43  N5  UNL     1       4.173  23.909   5.131  1.00  0.00    -0.374 N 
ATOM     44  H5  UNL     1       4.572  23.443   5.946  1.00  0.00     0.161 HD
BRANCH  43  45
HETATM   45  C20 UNL     1       3.557  23.092   4.114  1.00  0.00     0.041 C 
HETATM   46  C21 UNL     1       2.147  23.567   3.869  1.00  0.00     0.039 C 
HETATM   47  C22 UNL     1       3.620  21.616   4.291  1.00  0.00     0.037 C 
HETATM   48  C23 UNL     1       5.080  21.340   4.293  1.00  0.00    -0.023 C 
HETATM   49  C26 UNL     1       3.379  21.576   2.767  1.00  0.00     0.022 C 
HETATM   50  C24 UNL     1       5.530  22.164   3.313  1.00  0.00    -0.023 C 
HETATM   51  C25 UNL     1       4.294  22.824   2.854  1.00  0.00     0.037 C 
ENDBRANCH  43  45
ENDBRANCH  41  43
ENDBRANCH  40  41
ENDBRANCH   6  40
TORSDOF 12
ENDMDL
MODEL 4
REMARK VINA RESULT: -9.361588596      2.508      3.829
REMARK  12 active torsions:
REMARK  status: ('A' for Active; 'I' for Inactive)
REMARK    1  A    between atoms: C2_2  and  C3_3 
REMARK    2  A    between atoms: C3_3  and  C4_4 
REMARK    3  A    between atoms: C4_4  and  N1_5 
REMARK    4  A    between atoms: C4_4  and  C12_17 
REMARK       I    between atoms: N1_5  and  C5_7 
REMARK       I    between atoms: C5_7  and  N2_9 
REMARK    5  A    between atoms: N2_9  and  C6_11 
REMARK       I    between atoms: C12_17  and  N3_19 
REMARK    6  A    between atoms: N3_19  and  C13_21 
REMARK    7  A    between atoms: C13_21  and  C14_22 
REMARK       I    between atoms: C14_22  and  N4_24 
REMARK    8  A    between atoms: C17_27  and  C18_28 
REMARK    9  A    between atoms: C18_28  and  C19_29 
REMARK   10  A    between atoms: C19_29  and  N5_31 
REMARK   11  A    between atoms: N5_31  and  C20_33 
REMARK   12  A    between atoms: C29_45  and  C30_46 
ROOT
HETATM    1  C14 UNL     1       9.861  24.901   3.242  1.00  0.00     0.249 C 
HETATM    2  O3  UNL     1      10.719  25.499   2.496  1.00  0.00    -0.270 OA
HETATM    3  N4  UNL     1       8.787  25.674   3.723  1.00  0.00    -0.336 N 
HETATM    4  C15 UNL     1       7.729  25.277   4.570  1.00  0.00     0.134 C 
HETATM    5  C16 UNL     1       6.619  26.313   4.291  1.00  0.00     0.042 C 
HETATM    6  C17 UNL     1       5.861  26.459   5.574  1.00  0.00     0.097 C 
HETATM    7  N6  UNL     1       6.523  27.526   6.263  1.00  0.00    -0.355 N 
ATOM      8  H6  UNL     1       6.210  27.934   7.144  1.00  0.00     0.162 HD
HETATM    9  C27 UNL     1       7.680  27.936   5.541  1.00  0.00     0.225 C 
HETATM   10  O4  UNL     1       8.725  28.507   5.971  1.00  0.00    -0.273 OA
HETATM   11  C28 UNL     1       7.467  27.576   4.139  1.00  0.00     0.117 C 
HETATM   12  C29 UNL     1       8.638  27.096   3.376  1.00  0.00     0.190 C 
ENDROOT
BRANCH   1  13
HETATM   13  C13 UNL     1      10.110  23.484   3.503  1.00  0.00     0.114 C 
HETATM   14  C31 UNL     1      10.126  22.560   2.290  1.00  0.00     0.041 C 
HETATM   15  C32 UNL     1       9.330  21.538   3.060  1.00  0.00     0.006 C 
HETATM   16  C33 UNL     1       9.015  22.646   4.057  1.00  0.00     0.041 C 
BRANCH  13  17
HETATM   17  N3  UNL     1      11.404  23.306   4.197  1.00  0.00    -0.341 N 
HETATM   18  C12 UNL     1      11.504  23.653   5.541  1.00  0.00     0.241 C 
HETATM   19  O2  UNL     1      10.489  24.077   6.161  1.00  0.00    -0.271 OA
ATOM     20  H3  UNL     1      12.212  22.935   3.698  1.00  0.00     0.163 HD
BRANCH  18  21
HETATM   21  C4  UNL     1      12.764  23.565   6.294  1.00  0.00     0.178 C 
BRANCH  21  22
HETATM   22  C3  UNL     1      13.184  24.851   6.900  1.00  0.00     0.034 C 
BRANCH  22  23
HETATM   23  C2  UNL     1      13.185  25.058   8.343  1.00  0.00    -0.002 C 
HETATM   24  C1  UNL     1      12.140  25.863   9.007  1.00  0.00     0.005 C 
ENDBRANCH  22  23
ENDBRANCH  21  22
BRANCH  21  25
HETATM   25  N1  UNL     1      13.780  23.179   5.261  1.00  0.00    -0.330 N 
HETATM   26  C5  UNL     1      14.447  21.949   5.290  1.00  0.00     0.317 C 
HETATM   27  O1  UNL     1      14.196  21.140   6.263  1.00  0.00    -0.247 OA
HETATM   28  N2  UNL     1      15.380  21.516   4.328  1.00  0.00    -0.339 N 
ATOM     29  H2  UNL     1      15.597  22.114   3.530  1.00  0.00     0.164 HD
ATOM     30  H1  UNL     1      13.993  23.837   4.511  1.00  0.00     0.165 HD
BRANCH  28  31
HETATM   31  C6  UNL     1      16.028  20.247   4.457  1.00  0.00     0.086 C 
HETATM   32  C7  UNL     1      17.409  20.287   5.010  1.00  0.00     0.025 C 
HETATM   33  C8  UNL     1      18.027  18.916   4.760  1.00  0.00     0.002 C 
HETATM   34  C9  UNL     1      16.944  17.865   4.586  1.00  0.00     0.000 C 
HETATM   35  C10 UNL     1      16.100  18.094   3.352  1.00  0.00     0.002 C 
HETATM   36  C11 UNL     1      16.104  19.574   3.071  1.00  0.00     0.025 C 
ENDBRANCH  28  31
ENDBRANCH  21  25
ENDBRANCH  18  21
ENDBRANCH  13  17
ENDBRANCH   1  13
BRANCH  12  37
HETATM   37  C30 UNL     1       8.427  27.225   1.895  1.00  0.00     0.255 C 
HETATM   38  N7  UNL     1       7.561  26.415   1.161  1.00  0.00    -0.060 NA
HETATM   39  O5  UNL     1       9.072  28.120   1.299  1.00  0.00    -0.275 OA
ENDBRANCH  12  37
BRANCH   6  40
HETATM   40  C18 UNL     1       4.398  26.678   5.301  1.00  0.00     0.095 C 
BRANCH  40  41
HETATM   41  C19 UNL     1       3.495  25.652   5.791  1.00  0.00     0.076 C 
HETATM   42  S1  UNL     1       2.301  26.124   6.835  1.00  0.00    -0.066 SA
BRANCH  41  43
HETATM   43  N5  UNL     1       3.549  24.297   5.459  1.00  0.00    -0.374 N 
ATOM     44  H5  UNL     1       3.819  23.633   6.185  1.00  0.00     0.161 HD
BRANCH  43  45
HETATM   45  C20 UNL     1       3.246  23.783   4.145  1.00  0.00     0.041 C 
HETATM   46  C21 UNL     1       2.070  24.530   3.568  1.00  0.00     0.039 C 
HETATM   47  C22 UNL     1       3.088  22.310   4.007  1.00  0.00     0.037 C 
HETATM   48  C23 UNL     1       4.416  21.788   4.420  1.00  0.00    -0.023 C 
HETATM   49  C26 UNL     1       3.393  22.570   2.518  1.00  0.00     0.022 C 
HETATM   50  C24 UNL     1       5.266  22.675   3.841  1.00  0.00    -0.023 C 
HETATM   51  C25 UNL     1       4.346  23.607   3.163  1.00  0.00     0.037 C 
ENDBRANCH  43  45
ENDBRANCH  41  43
ENDBRANCH  40  41
ENDBRANCH   6  40
TORSDOF 12
ENDMDL
MODEL 5
REMARK VINA RESULT: -9.355886390      2.674      3.953
REMARK  12 active torsions:
REMARK  status: ('A' for Active; 'I' for Inactive)
REMARK    1  A    between atoms: C2_2  and  C3_3 
REMARK    2  A    between atoms: C3_3  and  C4_4 
REMARK    3  A    between atoms: C4_4  and  N1_5 
REMARK    4  A    between atoms: C4_4  and  C12_17 
REMARK       I    between atoms: N1_5  and  C5_7 
REMARK       I    between atoms: C5_7  and  N2_9 
REMARK    5  A    between atoms: N2_9  and  C6_11 
REMARK       I    between atoms: C12_17  and  N3_19 
REMARK    6  A    between atoms: N3_19  and  C13_21 
REMARK    7  A    between atoms: C13_21  and  C14_22 
REMARK       I    between atoms: C14_22  and  N4_24 
REMARK    8  A    between atoms: C17_27  and  C18_28 
REMARK    9  A    between atoms: C18_28  and  C19_29 
REMARK   10  A    between atoms: C19_29  and  N5_31 
REMARK   11  A    between atoms: N5_31  and  C20_33 
REMARK   12  A    between atoms: C29_45  and  C30_46 
ROOT
HETATM    1  C14 UNL     1      10.452  23.849   5.607  1.00  0.00     0.249 C 
HETATM    2  O3  UNL     1      10.886  22.678   5.305  1.00  0.00    -0.270 OA
HETATM    3  N4  UNL     1       9.680  24.512   4.634  1.00  0.00    -0.336 N 
HETATM    4  C15 UNL     1       9.105  25.801   4.698  1.00  0.00     0.134 C 
HETATM    5  C16 UNL     1       7.965  25.752   3.659  1.00  0.00     0.042 C 
HETATM    6  C17 UNL     1       7.839  27.144   3.120  1.00  0.00     0.097 C 
HETATM    7  N6  UNL     1       8.713  27.170   1.986  1.00  0.00    -0.355 N 
ATOM      8  H6  UNL     1       8.808  27.954   1.341  1.00  0.00     0.162 HD
HETATM    9  C27 UNL     1       9.431  25.944   1.889  1.00  0.00     0.225 C 
HETATM   10  O4  UNL     1      10.548  25.718   1.336  1.00  0.00    -0.273 OA
HETATM   11  C28 UNL     1       8.636  24.920   2.567  1.00  0.00     0.117 C 
HETATM   12  C29 UNL     1       9.366  23.893   3.337  1.00  0.00     0.190 C 
ENDROOT
BRANCH   1  13
HETATM   13  C13 UNL     1      10.818  24.350   6.931  1.00  0.00     0.114 C 
HETATM   14  C31 UNL     1       9.685  24.497   7.942  1.00  0.00     0.041 C 
HETATM   15  C32 UNL     1      10.249  25.825   8.378  1.00  0.00     0.006 C 
HETATM   16  C33 UNL     1      11.088  25.801   7.107  1.00  0.00     0.041 C 
BRANCH  13  17
HETATM   17  N3  UNL     1      11.837  23.477   7.551  1.00  0.00    -0.341 N 
HETATM   18  C12 UNL     1      13.173  23.645   7.201  1.00  0.00     0.241 C 
HETATM   19  O2  UNL     1      13.506  24.558   6.395  1.00  0.00    -0.271 OA
ATOM     20  H3  UNL     1      11.565  22.761   8.224  1.00  0.00     0.163 HD
BRANCH  18  21
HETATM   21  C4  UNL     1      14.246  22.783   7.723  1.00  0.00     0.178 C 
BRANCH  21  22
HETATM   22  C3  UNL     1      14.988  23.382   8.858  1.00  0.00     0.034 C 
BRANCH  22  23
HETATM   23  C2  UNL     1      15.994  22.632   9.602  1.00  0.00    -0.002 C 
HETATM   24  C1  UNL     1      15.773  21.226   9.995  1.00  0.00     0.005 C 
ENDBRANCH  22  23
ENDBRANCH  21  22
BRANCH  21  25
HETATM   25  N1  UNL     1      15.192  22.639   6.569  1.00  0.00    -0.330 N 
HETATM   26  C5  UNL     1      15.369  21.425   5.894  1.00  0.00     0.317 C 
HETATM   27  O1  UNL     1      14.718  20.393   6.311  1.00  0.00    -0.247 OA
HETATM   28  N2  UNL     1      16.212  21.238   4.782  1.00  0.00    -0.339 N 
ATOM     29  H2  UNL     1      16.734  22.030   4.405  1.00  0.00     0.164 HD
ATOM     30  H1  UNL     1      15.725  23.454   6.264  1.00  0.00     0.165 HD
BRANCH  28  31
HETATM   31  C6  UNL     1      16.345  19.950   4.173  1.00  0.00     0.086 C 
HETATM   32  C7  UNL     1      17.730  19.410   4.116  1.00  0.00     0.025 C 
HETATM   33  C8  UNL     1      17.703  18.221   3.162  1.00  0.00     0.002 C 
HETATM   34  C9  UNL     1      16.298  17.654   3.053  1.00  0.00     0.000 C 
HETATM   35  C10 UNL     1      15.324  18.624   2.424  1.00  0.00     0.002 C 
HETATM   36  C11 UNL     1      15.814  20.017   2.727  1.00  0.00     0.025 C 
ENDBRANCH  28  31
ENDBRANCH  21  25
ENDBRANCH  18  21
ENDBRANCH  13  17
ENDBRANCH   1  13
BRANCH  12  37
HETATM   37  C30 UNL     1       8.528  22.667   3.563  1.00  0.00     0.255 C 
HETATM   38  N7  UNL     1       8.905  21.385   3.166  1.00  0.00    -0.060 NA
HETATM   39  O5  UNL     1       7.429  22.824   4.147  1.00  0.00    -0.275 OA
ENDBRANCH  12  37
BRANCH   6  40
HETATM   40  C18 UNL     1       6.400  27.470   2.831  1.00  0.00     0.095 C 
BRANCH  40  41
HETATM   41  C19 UNL     1       5.414  26.539   3.351  1.00  0.00     0.076 C 
HETATM   42  S1  UNL     1       4.483  25.724   2.254  1.00  0.00    -0.066 SA
BRANCH  41  43
HETATM   43  N5  UNL     1       5.182  26.275   4.702  1.00  0.00    -0.374 N 
ATOM     44  H5  UNL     1       5.441  25.357   5.065  1.00  0.00     0.161 HD
BRANCH  43  45
HETATM   45  C20 UNL     1       4.597  27.227   5.615  1.00  0.00     0.041 C 
HETATM   46  C21 UNL     1       3.249  27.662   5.098  1.00  0.00     0.039 C 
HETATM   47  C22 UNL     1       5.434  28.389   6.020  1.00  0.00     0.037 C 
HETATM   48  C23 UNL     1       6.595  27.750   6.691  1.00  0.00    -0.023 C 
HETATM   49  C26 UNL     1       4.479  28.461   7.229  1.00  0.00     0.022 C 
HETATM   50  C24 UNL     1       6.005  26.755   7.402  1.00  0.00    -0.023 C 
HETATM   51  C25 UNL     1       4.578  26.924   7.068  1.00  0.00     0.037 C 
ENDBRANCH  43  45
ENDBRANCH  41  43
ENDBRANCH  40  41
ENDBRANCH   6  40
TORSDOF 12
ENDMDL
