MODEL 1
REMARK VINA RESULT: -10.079144802      0.000      0.000
REMARK  13 active torsions:
REMARK  status: ('A' for Active; 'I' for Inactive)
REMARK    1  A    between atoms: C2_2  and  C3_3 
REMARK    2  A    between atoms: C3_3  and  C4_4 
REMARK    3  A    between atoms: C4_4  and  C5_5 
REMARK    4  A    between atoms: C10_10  and  O1_11 
REMARK    5  A    between atoms: C11_14  and  C12_15 
REMARK       I    between atoms: C12_15  and  N2_17 
REMARK    6  A    between atoms: N2_17  and  C13_18 
REMARK    7  A    between atoms: C13_18  and  C14_19 
REMARK    8  A    between atoms: C13_18  and  C31_49 
REMARK    9  A    between atoms: C14_19  and  C15_20 
REMARK   10  A    between atoms: C17_22  and  C18_23 
REMARK   11  A    between atoms: C18_23  and  N3_24 
REMARK   12  A    between atoms: C20_29  and  C21_30 
REMARK       I    between atoms: C21_30  and  N5_32 
REMARK   13  A    between atoms: C24_36  and  C25_37 
REMARK       I    between atoms: C25_37  and  N6_39 
ROOT
HETATM    1  C15 UNL     1      13.053  25.453   7.977  1.00  0.00    -0.050 A 
HETATM    2  C16 UNL     1      12.989  25.211   6.676  1.00  0.00     0.022 A 
HETATM    3  C17 UNL     1      13.550  24.202   6.014  1.00  0.00     0.006 A 
HETATM    4  C19 UNL     1      14.302  23.278   6.793  1.00  0.00     0.032 A 
HETATM    5  C20 UNL     1      14.433  23.470   8.151  1.00  0.00     0.033 A 
HETATM    6  C30 UNL     1      13.833  24.537   8.763  1.00  0.00     0.024 A 
ENDROOT
BRANCH   1   7
HETATM    7  C14 UNL     1      12.219  26.395   8.757  1.00  0.00     0.117 C 
BRANCH   7   8
HETATM    8  C13 UNL     1      10.803  26.395   8.457  1.00  0.00     0.157 C 
BRANCH   8   9
HETATM    9  N2  UNL     1      10.222  26.686   7.268  1.00  0.00    -0.365 NA
HETATM   10  C12 UNL     1       9.625  27.065   6.094  1.00  0.00     0.331 C 
HETATM   11  O2  UNL     1       9.249  28.206   5.694  1.00  0.00    -0.250 OA
BRANCH  10  12
HETATM   12  C11 UNL     1       9.429  25.778   5.320  1.00  0.00     0.183 C 
HETATM   13  N1  UNL     1       9.283  25.539   3.990  1.00  0.00    -0.324 N 
HETATM   14  C5  UNL     1       7.947  25.552   3.274  1.00  0.00     0.047 C 
HETATM   15  C10 UNL     1      10.118  25.182   2.961  1.00  0.00     0.128 C 
HETATM   16  C6  UNL     1       7.967  26.124   1.915  1.00  0.00     0.033 C 
HETATM   17  C32 UNL     1       8.080  24.061   2.883  1.00  0.00    -0.007 C 
HETATM   18  C7  UNL     1       8.800  25.233   0.999  1.00  0.00     0.021 C 
HETATM   19  C8  UNL     1       9.364  24.280   2.021  1.00  0.00     0.031 C 
HETATM   20  C9  UNL     1       9.994  23.078   1.564  1.00  0.00     0.025 C 
HETATM   21  C33 UNL     1       8.383  23.178   4.031  1.00  0.00     0.018 C 
HETATM   22  C34 UNL     1       6.932  23.583   2.085  1.00  0.00     0.018 C 
BRANCH  14  23
HETATM   23  C4  UNL     1       6.815  25.863   4.112  1.00  0.00     0.032 C 
BRANCH  23  24
HETATM   24  C3  UNL     1       6.278  27.264   4.027  1.00  0.00     0.002 C 
BRANCH  24  25
HETATM   25  C2  UNL     1       5.751  27.869   5.307  1.00  0.00    -0.004 C 
HETATM   26  C1  UNL     1       5.889  26.897   6.471  1.00  0.00     0.005 C 
ENDBRANCH  24  25
ENDBRANCH  23  24
ENDBRANCH  14  23
BRANCH  15  27
HETATM   27  O1  UNL     1      11.361  25.552   2.767  1.00  0.00    -0.349 OA
ATOM     28  H1  UNL     1      11.943  25.820   3.469  1.00  0.00     0.219 HD
ENDBRANCH  15  27
ENDBRANCH  10  12
ENDBRANCH   8   9
BRANCH   8  29
HETATM   29  C31 UNL     1      10.152  25.168   9.098  1.00  0.00     0.291 C 
HETATM   30  N9  UNL     1       9.696  24.035   8.435  1.00  0.00    -0.055 NA
HETATM   31  O5  UNL     1      10.068  25.259  10.380  1.00  0.00    -0.269 OA
ENDBRANCH   8  29
ENDBRANCH   7   8
ENDBRANCH   1   7
BRANCH   3  32
HETATM   32  C18 UNL     1      13.982  24.095   4.562  1.00  0.00     0.120 C 
HETATM   33  N4  UNL     1      13.067  23.368   3.772  1.00  0.00    -0.082 NA
BRANCH  32  34
HETATM   34  N3  UNL     1      14.983  24.512   4.337  1.00  0.00    -0.387 N 
ATOM     35  H32 UNL     1      15.916  24.253   4.658  1.00  0.00     0.157 HD
ATOM     36  H31 UNL     1      14.981  25.364   3.777  1.00  0.00     0.157 HD
ENDBRANCH  32  34
ENDBRANCH   3  32
BRANCH   5  37
HETATM   37  C21 UNL     1      15.077  22.482   8.937  1.00  0.00     0.257 C 
HETATM   38  O3  UNL     1      15.185  21.498   9.540  1.00  0.00    -0.267 OA
HETATM   39  N5  UNL     1      16.630  23.154   9.021  1.00  0.00    -0.308 N 
HETATM   40  C22 UNL     1      17.327  22.241   8.340  1.00  0.00     0.124 A 
ATOM     41  H5  UNL     1      16.945  24.015   9.468  1.00  0.00     0.170 HD
HETATM   42  C23 UNL     1      16.967  21.072   7.738  1.00  0.00     0.086 A 
HETATM   43  N8  UNL     1      18.675  22.365   8.152  1.00  0.00    -0.285 N 
HETATM   44  C24 UNL     1      18.096  20.463   7.188  1.00  0.00     0.119 A 
HETATM   45  N7  UNL     1      19.098  21.314   7.460  1.00  0.00    -0.294 N 
ATOM     46  H7  UNL     1      20.065  21.170   7.171  1.00  0.00     0.187 HD
ATOM     47  H8  UNL     1      19.257  23.134   8.485  1.00  0.00     0.188 HD
BRANCH  44  48
HETATM   48  C25 UNL     1      18.131  19.249   6.428  1.00  0.00     0.271 C 
HETATM   49  O4  UNL     1      18.577  18.174   6.961  1.00  0.00    -0.266 OA
HETATM   50  N6  UNL     1      17.719  19.079   5.106  1.00  0.00    -0.347 N 
HETATM   51  C26 UNL     1      16.932  20.067   4.308  1.00  0.00     0.126 C 
HETATM   52  C29 UNL     1      18.016  18.027   4.144  1.00  0.00     0.126 C 
HETATM   53  C27 UNL     1      15.828  19.033   3.846  1.00  0.00     0.021 C 
HETATM   54  C28 UNL     1      16.641  17.805   3.534  1.00  0.00     0.021 C 
ENDBRANCH  44  48
ENDBRANCH   5  37
TORSDOF 13
ENDMDL
MODEL 2
REMARK VINA RESULT: -9.871232439      2.651      4.983
REMARK  13 active torsions:
REMARK  status: ('A' for Active; 'I' for Inactive)
REMARK    1  A    between atoms: C2_2  and  C3_3 
REMARK    2  A    between atoms: C3_3  and  C4_4 
REMARK    3  A    between atoms: C4_4  and  C5_5 
REMARK    4  A    between atoms: C10_10  and  O1_11 
REMARK    5  A    between atoms: C11_14  and  C12_15 
REMARK       I    between atoms: C12_15  and  N2_17 
REMARK    6  A    between atoms: N2_17  and  C13_18 
REMARK    7  A    between atoms: C13_18  and  C14_19 
REMARK    8  A    between atoms: C13_18  and  C31_49 
REMARK    9  A    between atoms: C14_19  and  C15_20 
REMARK   10  A    between atoms: C17_22  and  C18_23 
REMARK   11  A    between atoms: C18_23  and  N3_24 
REMARK   12  A    between atoms: C20_29  and  C21_30 
REMARK       I    between atoms: C21_30  and  N5_32 
REMARK   13  A    between atoms: C24_36  and  C25_37 
REMARK       I    between atoms: C25_37  and  N6_39 
ROOT
HETATM    1  C15 UNL     1       9.887  25.300   5.385  1.00  0.00    -0.050 A 
HETATM    2  C16 UNL     1       9.238  25.856   6.397  1.00  0.00     0.022 A 
HETATM    3  C17 UNL     1       9.485  25.705   7.696  1.00  0.00     0.006 A 
HETATM    4  C19 UNL     1      10.571  24.849   8.035  1.00  0.00     0.032 A 
HETATM    5  C20 UNL     1      11.284  24.217   7.041  1.00  0.00     0.033 A 
HETATM    6  C30 UNL     1      10.968  24.415   5.725  1.00  0.00     0.024 A 
ENDROOT
BRANCH   1   7
HETATM    7  C14 UNL     1       9.806  25.670   3.954  1.00  0.00     0.117 C 
BRANCH   7   8
HETATM    8  C13 UNL     1       9.498  24.598   3.032  1.00  0.00     0.157 C 
BRANCH   8   9
HETATM    9  N2  UNL     1       8.381  23.832   3.018  1.00  0.00    -0.365 NA
HETATM   10  C12 UNL     1       7.304  22.984   3.017  1.00  0.00     0.331 C 
HETATM   11  O2  UNL     1       7.238  21.739   3.238  1.00  0.00    -0.250 OA
BRANCH  10  12
HETATM   12  C11 UNL     1       6.124  23.850   2.625  1.00  0.00     0.183 C 
HETATM   13  N1  UNL     1       6.046  25.159   2.270  1.00  0.00    -0.324 N 
HETATM   14  C5  UNL     1       5.870  26.292   3.262  1.00  0.00     0.047 C 
HETATM   15  C10 UNL     1       6.022  25.853   1.087  1.00  0.00     0.128 C 
HETATM   16  C6  UNL     1       6.616  27.525   2.947  1.00  0.00     0.033 C 
HETATM   17  C32 UNL     1       4.512  26.697   2.645  1.00  0.00    -0.007 C 
HETATM   18  C7  UNL     1       6.059  28.145   1.669  1.00  0.00     0.021 C 
HETATM   19  C8  UNL     1       5.117  27.046   1.247  1.00  0.00     0.031 C 
HETATM   20  C9  UNL     1       4.153  27.324   0.226  1.00  0.00     0.025 C 
HETATM   21  C33 UNL     1       3.564  25.567   2.519  1.00  0.00     0.018 C 
HETATM   22  C34 UNL     1       3.914  27.869   3.316  1.00  0.00     0.018 C 
BRANCH  14  23
HETATM   23  C4  UNL     1       5.814  25.881   4.644  1.00  0.00     0.032 C 
BRANCH  23  24
HETATM   24  C3  UNL     1       6.169  26.919   5.671  1.00  0.00     0.002 C 
BRANCH  24  25
HETATM   25  C2  UNL     1       5.458  26.829   7.001  1.00  0.00    -0.004 C 
HETATM   26  C1  UNL     1       3.985  26.489   6.815  1.00  0.00     0.005 C 
ENDBRANCH  24  25
ENDBRANCH  23  24
ENDBRANCH  14  23
BRANCH  15  27
HETATM   27  O1  UNL     1       6.672  25.583  -0.020  1.00  0.00    -0.349 OA
ATOM     28  H1  UNL     1       7.461  25.055  -0.047  1.00  0.00     0.219 HD
ENDBRANCH  15  27
ENDBRANCH  10  12
ENDBRANCH   8   9
BRANCH   8  29
HETATM   29  C31 UNL     1       9.886  25.026   1.615  1.00  0.00     0.291 C 
HETATM   30  N9  UNL     1       9.433  26.154   0.941  1.00  0.00    -0.055 NA
HETATM   31  O5  UNL     1      10.729  24.224   1.064  1.00  0.00    -0.269 OA
ENDBRANCH   8  29
ENDBRANCH   7   8
ENDBRANCH   1   7
BRANCH   3  32
HETATM   32  C18 UNL     1       8.564  25.840   8.897  1.00  0.00     0.120 C 
HETATM   33  N4  UNL     1       8.494  27.161   9.385  1.00  0.00    -0.082 NA
BRANCH  32  34
HETATM   34  N3  UNL     1       8.151  24.887   9.281  1.00  0.00    -0.387 N 
ATOM     35  H32 UNL     1       8.470  24.253  10.014  1.00  0.00     0.157 HD
ATOM     36  H31 UNL     1       7.356  24.519   8.759  1.00  0.00     0.157 HD
ENDBRANCH  32  34
ENDBRANCH   3  32
BRANCH   5  37
HETATM   37  C21 UNL     1      12.439  23.468   7.379  1.00  0.00     0.257 C 
HETATM   38  O3  UNL     1      13.053  22.554   7.742  1.00  0.00    -0.267 OA
HETATM   39  N5  UNL     1      13.636  24.609   7.006  1.00  0.00    -0.308 N 
HETATM   40  C22 UNL     1      14.244  23.997   5.986  1.00  0.00     0.124 A 
ATOM     41  H5  UNL     1      13.836  25.510   7.439  1.00  0.00     0.170 HD
HETATM   42  C23 UNL     1      14.033  22.795   5.378  1.00  0.00     0.086 A 
HETATM   43  N8  UNL     1      15.313  24.562   5.350  1.00  0.00    -0.285 N 
HETATM   44  C24 UNL     1      14.983  22.608   4.372  1.00  0.00     0.119 A 
HETATM   45  N7  UNL     1      15.718  23.730   4.397  1.00  0.00    -0.294 N 
ATOM     46  H7  UNL     1      16.493  23.921   3.762  1.00  0.00     0.187 HD
ATOM     47  H8  UNL     1      15.729  25.467   5.568  1.00  0.00     0.188 HD
BRANCH  44  48
HETATM   48  C25 UNL     1      15.068  21.498   3.471  1.00  0.00     0.271 C 
HETATM   49  O4  UNL     1      14.579  21.594   2.292  1.00  0.00    -0.266 OA
HETATM   50  N6  UNL     1      15.646  20.254   3.729  1.00  0.00    -0.347 N 
HETATM   51  C26 UNL     1      16.507  19.924   4.904  1.00  0.00     0.126 C 
HETATM   52  C29 UNL     1      15.492  18.974   3.051  1.00  0.00     0.126 C 
HETATM   53  C27 UNL     1      17.680  19.294   4.050  1.00  0.00     0.021 C 
HETATM   54  C28 UNL     1      16.937  18.503   3.008  1.00  0.00     0.021 C 
ENDBRANCH  44  48
ENDBRANCH   5  37
TORSDOF 13
ENDMDL
MODEL 3
REMARK VINA RESULT: -9.698744387      1.250      2.876
REMARK  13 active torsions:
REMARK  status: ('A' for Active; 'I' for Inactive)
REMARK    1  A    between atoms: C2_2  and  C3_3 
REMARK    2  A    between atoms: C3_3  and  C4_4 
REMARK    3  A    between atoms: C4_4  and  C5_5 
REMARK    4  A    between atoms: C10_10  and  O1_11 
REMARK    5  A    between atoms: C11_14  and  C12_15 
REMARK       I    between atoms: C12_15  and  N2_17 
REMARK    6  A    between atoms: N2_17  and  C13_18 
REMARK    7  A    between atoms: C13_18  and  C14_19 
REMARK    8  A    between atoms: C13_18  and  C31_49 
REMARK    9  A    between atoms: C14_19  and  C15_20 
REMARK   10  A    between atoms: C17_22  and  C18_23 
REMARK   11  A    between atoms: C18_23  and  N3_24 
REMARK   12  A    between atoms: C20_29  and  C21_30 
REMARK       I    between atoms: C21_30  and  N5_32 
REMARK   13  A    between atoms: C24_36  and  C25_37 
REMARK       I    between atoms: C25_37  and  N6_39 
ROOT
HETATM    1  C15 UNL     1      12.963  25.205   8.051  1.00  0.00    -0.050 A 
HETATM    2  C16 UNL     1      13.085  25.122   6.734  1.00  0.00     0.022 A 
HETATM    3  C17 UNL     1      13.838  24.269   6.045  1.00  0.00     0.006 A 
HETATM    4  C19 UNL     1      14.597  23.339   6.811  1.00  0.00     0.032 A 
HETATM    5  C20 UNL     1      14.541  23.373   8.186  1.00  0.00     0.033 A 
HETATM    6  C30 UNL     1      13.748  24.285   8.827  1.00  0.00     0.024 A 
ENDROOT
BRANCH   1   7
HETATM    7  C14 UNL     1      11.934  25.949   8.813  1.00  0.00     0.117 C 
BRANCH   7   8
HETATM    8  C13 UNL     1      10.673  26.171   8.137  1.00  0.00     0.157 C 
BRANCH   8   9
HETATM    9  N2  UNL     1      10.219  25.533   7.032  1.00  0.00    -0.365 NA
HETATM   10  C12 UNL     1       9.811  24.817   5.936  1.00  0.00     0.331 C 
HETATM   11  O2  UNL     1      10.066  23.626   5.591  1.00  0.00    -0.250 OA
BRANCH  10  12
HETATM   12  C11 UNL     1       8.980  25.787   5.121  1.00  0.00     0.183 C 
HETATM   13  N1  UNL     1       7.737  25.677   4.583  1.00  0.00    -0.324 N 
HETATM   14  C5  UNL     1       7.464  25.109   3.204  1.00  0.00     0.047 C 
HETATM   15  C10 UNL     1       6.470  26.038   4.963  1.00  0.00     0.128 C 
HETATM   16  C6  UNL     1       6.242  24.290   3.093  1.00  0.00     0.033 C 
HETATM   17  C32 UNL     1       6.872  26.449   2.708  1.00  0.00    -0.007 C 
HETATM   18  C7  UNL     1       5.016  25.172   3.312  1.00  0.00     0.021 C 
HETATM   19  C8  UNL     1       5.697  26.447   3.737  1.00  0.00     0.031 C 
HETATM   20  C9  UNL     1       4.928  27.654   3.776  1.00  0.00     0.025 C 
HETATM   21  C33 UNL     1       7.759  27.608   2.952  1.00  0.00     0.018 C 
HETATM   22  C34 UNL     1       6.405  26.375   1.308  1.00  0.00     0.018 C 
BRANCH  14  23
HETATM   23  C4  UNL     1       8.635  24.659   2.493  1.00  0.00     0.032 C 
BRANCH  23  24
HETATM   24  C3  UNL     1       8.773  23.177   2.289  1.00  0.00     0.002 C 
BRANCH  24  25
HETATM   25  C2  UNL     1      10.178  22.622   2.264  1.00  0.00    -0.004 C 
HETATM   26  C1  UNL     1      11.211  23.742   2.278  1.00  0.00     0.005 C 
ENDBRANCH  24  25
ENDBRANCH  23  24
ENDBRANCH  14  23
BRANCH  15  27
HETATM   27  O1  UNL     1       5.956  26.028   6.170  1.00  0.00    -0.349 OA
ATOM     28  H1  UNL     1       6.010  25.281   6.755  1.00  0.00     0.219 HD
ENDBRANCH  15  27
ENDBRANCH  10  12
ENDBRANCH   8   9
BRANCH   8  29
HETATM   29  C31 UNL     1       9.563  26.320   9.179  1.00  0.00     0.291 C 
HETATM   30  N9  UNL     1       8.706  27.406   9.321  1.00  0.00    -0.055 NA
HETATM   31  O5  UNL     1       9.461  25.295   9.952  1.00  0.00    -0.269 OA
ENDBRANCH   8  29
ENDBRANCH   7   8
ENDBRANCH   1   7
BRANCH   3  32
HETATM   32  C18 UNL     1      14.449  24.390   4.660  1.00  0.00     0.120 C 
HETATM   33  N4  UNL     1      15.344  23.341   4.364  1.00  0.00    -0.082 NA
BRANCH  32  34
HETATM   34  N3  UNL     1      14.191  25.317   4.113  1.00  0.00    -0.387 N 
ATOM     35  H32 UNL     1      14.668  25.823   3.366  1.00  0.00     0.157 HD
ATOM     36  H31 UNL     1      13.373  25.815   4.466  1.00  0.00     0.157 HD
ENDBRANCH  32  34
ENDBRANCH   3  32
BRANCH   5  37
HETATM   37  C21 UNL     1      15.201  22.367   8.936  1.00  0.00     0.257 C 
HETATM   38  O3  UNL     1      15.319  21.374   9.522  1.00  0.00    -0.267 OA
HETATM   39  N5  UNL     1      16.763  23.024   8.979  1.00  0.00    -0.308 N 
HETATM   40  C22 UNL     1      17.428  22.115   8.262  1.00  0.00     0.124 A 
ATOM     41  H5  UNL     1      17.100  23.876   9.427  1.00  0.00     0.170 HD
HETATM   42  C23 UNL     1      17.037  20.958   7.656  1.00  0.00     0.086 A 
HETATM   43  N8  UNL     1      18.770  22.229   8.031  1.00  0.00    -0.285 N 
HETATM   44  C24 UNL     1      18.142  20.347   7.060  1.00  0.00     0.119 A 
HETATM   45  N7  UNL     1      19.160  21.184   7.311  1.00  0.00    -0.294 N 
ATOM     46  H7  UNL     1      20.116  21.036   6.988  1.00  0.00     0.187 HD
ATOM     47  H8  UNL     1      19.370  22.988   8.356  1.00  0.00     0.188 HD
BRANCH  44  48
HETATM   48  C25 UNL     1      18.139  19.143   6.282  1.00  0.00     0.271 C 
HETATM   49  O4  UNL     1      18.572  18.053   6.793  1.00  0.00    -0.266 OA
HETATM   50  N6  UNL     1      17.703  19.002   4.965  1.00  0.00    -0.347 N 
HETATM   51  C26 UNL     1      16.924  20.016   4.194  1.00  0.00     0.126 C 
HETATM   52  C29 UNL     1      17.964  17.958   3.983  1.00  0.00     0.126 C 
HETATM   53  C27 UNL     1      15.792  19.011   3.736  1.00  0.00     0.021 C 
HETATM   54  C28 UNL     1      16.575  17.772   3.393  1.00  0.00     0.021 C 
ENDBRANCH  44  48
ENDBRANCH   5  37
TORSDOF 13
ENDMDL
MODEL 4
REMARK VINA RESULT: -9.623576788      2.666      5.053
REMARK  13 active torsions:
REMARK  status: ('A' for Active; 'I' for Inactive)
REMARK    1  A    between atoms: C2_2  and  C3_3 
REMARK    2  A    between atoms: C3_3  and  C4_4 
REMARK    3  A    between atoms: C4_4  and  C5_5 
REMARK    4  A    between atoms: C10_10  and  O1_11 
REMARK    5  A    between atoms: C11_14  and  C12_15 
REMARK       I    between atoms: C12_15  and  N2_17 
REMARK    6  A    between atoms: N2_17  and  C13_18 
REMARK    7  A    between atoms: C13_18  and  C14_19 
REMARK    8  A    between atoms: C13_18  and  C31_49 
REMARK    9  A    between atoms: C14_19  and  C15_20 
REMARK   10  A    between atoms: C17_22  and  C18_23 
REMARK   11  A    between atoms: C18_23  and  N3_24 
REMARK   12  A    between atoms: C20_29  and  C21_30 
REMARK       I    between atoms: C21_30  and  N5_32 
REMARK   13  A    between atoms: C24_36  and  C25_37 
REMARK       I    between atoms: C25_37  and  N6_39 
ROOT
HETATM    1  C15 UNL     1       9.548  24.917   4.980  1.00  0.00    -0.050 A 
HETATM    2  C16 UNL     1       9.201  26.016   5.634  1.00  0.00     0.022 A 
HETATM    3  C17 UNL     1       9.744  26.498   6.749  1.00  0.00     0.006 A 
HETATM    4  C19 UNL     1      10.822  25.748   7.299  1.00  0.00     0.032 A 
HETATM    5  C20 UNL     1      11.231  24.583   6.689  1.00  0.00     0.033 A 
HETATM    6  C30 UNL     1      10.619  24.144   5.547  1.00  0.00     0.024 A 
ENDROOT
BRANCH   1   7
HETATM    7  C14 UNL     1       9.148  24.523   3.610  1.00  0.00     0.117 C 
BRANCH   7   8
HETATM    8  C13 UNL     1       8.559  23.209   3.468  1.00  0.00     0.157 C 
BRANCH   8   9
HETATM    9  N2  UNL     1       7.251  22.884   3.605  1.00  0.00    -0.365 NA
HETATM   10  C12 UNL     1       5.953  22.473   3.774  1.00  0.00     0.331 C 
HETATM   11  O2  UNL     1       5.487  21.408   4.272  1.00  0.00    -0.250 OA
BRANCH  10  12
HETATM   12  C11 UNL     1       5.112  23.577   3.167  1.00  0.00     0.183 C 
HETATM   13  N1  UNL     1       5.434  24.828   2.745  1.00  0.00    -0.324 N 
HETATM   14  C5  UNL     1       5.434  26.048   3.646  1.00  0.00     0.047 C 
HETATM   15  C10 UNL     1       5.756  25.403   1.542  1.00  0.00     0.128 C 
HETATM   16  C6  UNL     1       6.517  27.016   3.393  1.00  0.00     0.033 C 
HETATM   17  C32 UNL     1       4.330  26.735   2.810  1.00  0.00    -0.007 C 
HETATM   18  C7  UNL     1       6.324  27.649   2.017  1.00  0.00     0.021 C 
HETATM   19  C8  UNL     1       5.190  26.798   1.507  1.00  0.00     0.031 C 
HETATM   20  C9  UNL     1       4.483  27.227   0.339  1.00  0.00     0.025 C 
HETATM   21  C33 UNL     1       3.141  25.880   2.592  1.00  0.00     0.018 C 
HETATM   22  C34 UNL     1       3.981  28.073   3.328  1.00  0.00     0.018 C 
BRANCH  14  23
HETATM   23  C4  UNL     1       5.084  25.783   5.020  1.00  0.00     0.032 C 
BRANCH  23  24
HETATM   24  C3  UNL     1       5.721  26.661   6.060  1.00  0.00     0.002 C 
BRANCH  24  25
HETATM   25  C2  UNL     1       4.882  26.997   7.271  1.00  0.00    -0.004 C 
HETATM   26  C1  UNL     1       3.431  26.582   7.066  1.00  0.00     0.005 C 
ENDBRANCH  24  25
ENDBRANCH  23  24
ENDBRANCH  14  23
BRANCH  15  27
HETATM   27  O1  UNL     1       6.455  24.883   0.561  1.00  0.00    -0.349 OA
ATOM     28  H1  UNL     1       7.190  24.297   0.696  1.00  0.00     0.219 HD
ENDBRANCH  15  27
ENDBRANCH  10  12
ENDBRANCH   8   9
BRANCH   8  29
HETATM   29  C31 UNL     1       9.172  22.510   2.254  1.00  0.00     0.291 C 
HETATM   30  N9  UNL     1       8.764  21.299   1.706  1.00  0.00    -0.055 NA
HETATM   31  O5  UNL     1      10.143  23.176   1.731  1.00  0.00    -0.269 OA
ENDBRANCH   8  29
ENDBRANCH   7   8
ENDBRANCH   1   7
BRANCH   3  32
HETATM   32  C18 UNL     1       9.152  27.385   7.830  1.00  0.00     0.120 C 
HETATM   33  N4  UNL     1       9.283  28.759   7.540  1.00  0.00    -0.082 NA
BRANCH  32  34
HETATM   34  N3  UNL     1       8.787  26.851   8.728  1.00  0.00    -0.387 N 
ATOM     35  H32 UNL     1       8.349  25.937   8.846  1.00  0.00     0.157 HD
ATOM     36  H31 UNL     1       8.807  27.393   9.592  1.00  0.00     0.157 HD
ENDBRANCH  32  34
ENDBRANCH   3  32
BRANCH   5  37
HETATM   37  C21 UNL     1      12.382  23.910   7.171  1.00  0.00     0.257 C 
HETATM   38  O3  UNL     1      12.994  23.072   7.687  1.00  0.00    -0.267 OA
HETATM   39  N5  UNL     1      13.579  24.996   6.658  1.00  0.00    -0.308 N 
HETATM   40  C22 UNL     1      14.222  24.242   5.762  1.00  0.00     0.124 A 
ATOM     41  H5  UNL     1      13.758  25.955   6.952  1.00  0.00     0.170 HD
HETATM   42  C23 UNL     1      14.039  22.958   5.342  1.00  0.00     0.086 A 
HETATM   43  N8  UNL     1      15.304  24.716   5.075  1.00  0.00    -0.285 N 
HETATM   44  C24 UNL     1      15.019  22.631   4.403  1.00  0.00     0.119 A 
HETATM   45  N7  UNL     1      15.743  23.753   4.275  1.00  0.00    -0.294 N 
ATOM     46  H7  UNL     1      16.535  23.854   3.639  1.00  0.00     0.187 HD
ATOM     47  H8  UNL     1      15.705  25.650   5.163  1.00  0.00     0.188 HD
BRANCH  44  48
HETATM   48  C25 UNL     1      15.140  21.396   3.687  1.00  0.00     0.271 C 
HETATM   49  O4  UNL     1      14.668  21.297   2.501  1.00  0.00    -0.266 OA
HETATM   50  N6  UNL     1      15.739  20.221   4.142  1.00  0.00    -0.347 N 
HETATM   51  C26 UNL     1      16.589  20.097   5.364  1.00  0.00     0.126 C 
HETATM   52  C29 UNL     1      15.622  18.848   3.670  1.00  0.00     0.126 C 
HETATM   53  C27 UNL     1      17.787  19.368   4.633  1.00  0.00     0.021 C 
HETATM   54  C28 UNL     1      17.076  18.408   3.718  1.00  0.00     0.021 C 
ENDBRANCH  44  48
ENDBRANCH   5  37
TORSDOF 13
ENDMDL
MODEL 5
REMARK VINA RESULT: -9.559649309      2.474      3.767
REMARK  13 active torsions:
REMARK  status: ('A' for Active; 'I' for Inactive)
REMARK    1  A    between atoms: C2_2  and  C3_3 
REMARK    2  A    between atoms: C3_3  and  C4_4 
REMARK    3  A    between atoms: C4_4  and  C5_5 
REMARK    4  A    between atoms: C10_10  and  O1_11 
REMARK    5  A    between atoms: C11_14  and  C12_15 
REMARK       I    between atoms: C12_15  and  N2_17 
REMARK    6  A    between atoms: N2_17  and  C13_18 
REMARK    7  A    between atoms: C13_18  and  C14_19 
REMARK    8  A    between atoms: C13_18  and  C31_49 
REMARK    9  A    between atoms: C14_19  and  C15_20 
REMARK   10  A    between atoms: C17_22  and  C18_23 
REMARK   11  A    between atoms: C18_23  and  N3_24 
REMARK   12  A    between atoms: C20_29  and  C21_30 
REMARK       I    between atoms: C21_30  and  N5_32 
REMARK   13  A    between atoms: C24_36  and  C25_37 
REMARK       I    between atoms: C25_37  and  N6_39 
ROOT
HETATM    1  C15 UNL     1      10.656  25.154   7.012  1.00  0.00    -0.050 A 
HETATM    2  C16 UNL     1      11.035  25.457   5.780  1.00  0.00     0.022 A 
HETATM    3  C17 UNL     1      11.803  24.733   4.970  1.00  0.00     0.006 A 
HETATM    4  C19 UNL     1      12.267  23.490   5.487  1.00  0.00     0.032 A 
HETATM    5  C20 UNL     1      11.933  23.110   6.768  1.00  0.00     0.033 A 
HETATM    6  C30 UNL     1      11.144  23.912   7.547  1.00  0.00     0.024 A 
ENDROOT
BRANCH   1   7
HETATM    7  C14 UNL     1       9.592  25.804   7.811  1.00  0.00     0.117 C 
BRANCH   7   8
HETATM    8  C13 UNL     1       8.778  26.780   7.118  1.00  0.00     0.157 C 
BRANCH   8   9
HETATM    9  N2  UNL     1       7.455  26.687   6.840  1.00  0.00    -0.365 NA
HETATM   10  C12 UNL     1       6.103  26.571   6.646  1.00  0.00     0.331 C 
HETATM   11  O2  UNL     1       5.168  26.370   7.475  1.00  0.00    -0.250 OA
BRANCH  10  12
HETATM   12  C11 UNL     1       5.911  26.684   5.147  1.00  0.00     0.183 C 
HETATM   13  N1  UNL     1       5.407  25.811   4.235  1.00  0.00    -0.324 N 
HETATM   14  C5  UNL     1       6.241  24.768   3.516  1.00  0.00     0.047 C 
HETATM   15  C10 UNL     1       4.185  25.607   3.646  1.00  0.00     0.128 C 
HETATM   16  C6  UNL     1       5.574  23.472   3.297  1.00  0.00     0.033 C 
HETATM   17  C32 UNL     1       5.945  25.401   2.137  1.00  0.00    -0.007 C 
HETATM   18  C7  UNL     1       4.408  23.656   2.329  1.00  0.00     0.021 C 
HETATM   19  C8  UNL     1       4.404  25.160   2.226  1.00  0.00     0.031 C 
HETATM   20  C9  UNL     1       3.637  25.773   1.183  1.00  0.00     0.025 C 
HETATM   21  C33 UNL     1       6.229  26.853   2.084  1.00  0.00     0.018 C 
HETATM   22  C34 UNL     1       6.576  24.657   1.028  1.00  0.00     0.018 C 
BRANCH  14  23
HETATM   23  C4  UNL     1       7.634  24.747   3.891  1.00  0.00     0.032 C 
BRANCH  23  24
HETATM   24  C3  UNL     1       8.256  23.395   4.097  1.00  0.00     0.002 C 
BRANCH  24  25
HETATM   25  C2  UNL     1       9.251  22.939   3.055  1.00  0.00    -0.004 C 
HETATM   26  C1  UNL     1       8.697  21.779   2.237  1.00  0.00     0.005 C 
ENDBRANCH  24  25
ENDBRANCH  23  24
ENDBRANCH  14  23
BRANCH  15  27
HETATM   27  O1  UNL     1       2.998  25.741   4.187  1.00  0.00    -0.349 OA
ATOM     28  H1  UNL     1       2.823  26.303   4.933  1.00  0.00     0.219 HD
ENDBRANCH  15  27
ENDBRANCH  10  12
ENDBRANCH   8   9
BRANCH   8  29
HETATM   29  C31 UNL     1       9.134  28.180   7.619  1.00  0.00     0.291 C 
HETATM   30  N9  UNL     1      10.032  28.489   8.634  1.00  0.00    -0.055 NA
HETATM   31  O5  UNL     1       8.515  29.113   6.981  1.00  0.00    -0.269 OA
ENDBRANCH   8  29
ENDBRANCH   7   8
ENDBRANCH   1   7
BRANCH   3  32
HETATM   32  C18 UNL     1      12.697  25.158   3.818  1.00  0.00     0.120 C 
HETATM   33  N4  UNL     1      12.073  25.015   2.561  1.00  0.00    -0.082 NA
BRANCH  32  34
HETATM   34  N3  UNL     1      13.732  25.430   4.103  1.00  0.00    -0.387 N 
ATOM     35  H32 UNL     1      14.101  26.161   4.712  1.00  0.00     0.157 HD
ATOM     36  H31 UNL     1      14.465  24.921   3.608  1.00  0.00     0.157 HD
ENDBRANCH  32  34
ENDBRANCH   3  32
BRANCH   5  37
HETATM   37  C21 UNL     1      12.294  21.820   7.230  1.00  0.00     0.257 C 
HETATM   38  O3  UNL     1      12.236  20.667   7.338  1.00  0.00    -0.267 OA
HETATM   39  N5  UNL     1      13.631  22.226   8.189  1.00  0.00    -0.308 N 
HETATM   40  C22 UNL     1      14.610  21.625   7.509  1.00  0.00     0.124 A 
ATOM     41  H5  UNL     1      13.675  22.776   9.047  1.00  0.00     0.170 HD
HETATM   42  C23 UNL     1      14.610  20.869   6.374  1.00  0.00     0.086 A 
HETATM   43  N8  UNL     1      15.909  21.677   7.930  1.00  0.00    -0.285 N 
HETATM   44  C24 UNL     1      15.909  20.440   6.099  1.00  0.00     0.119 A 
HETATM   45  N7  UNL     1      16.652  20.983   7.076  1.00  0.00    -0.294 N 
ATOM     46  H7  UNL     1      17.664  20.877   7.152  1.00  0.00     0.187 HD
ATOM     47  H8  UNL     1      16.250  22.164   8.758  1.00  0.00     0.188 HD
BRANCH  44  48
HETATM   48  C25 UNL     1      16.336  19.670   4.968  1.00  0.00     0.271 C 
HETATM   49  O4  UNL     1      16.921  18.546   5.146  1.00  0.00    -0.266 OA
HETATM   50  N6  UNL     1      16.190  20.010   3.624  1.00  0.00    -0.347 N 
HETATM   51  C26 UNL     1      15.339  21.119   3.096  1.00  0.00     0.126 C 
HETATM   52  C29 UNL     1      16.866  19.507   2.435  1.00  0.00     0.126 C 
HETATM   53  C27 UNL     1      14.584  20.227   2.030  1.00  0.00     0.021 C 
HETATM   54  C28 UNL     1      15.691  19.368   1.480  1.00  0.00     0.021 C 
ENDBRANCH  44  48
ENDBRANCH   5  37
TORSDOF 13
ENDMDL
