MODEL 1
REMARK VINA RESULT: -9.490263595      0.000      0.000
REMARK  11 active torsions:
REMARK  status: ('A' for Active; 'I' for Inactive)
REMARK    1  A    between atoms: C2_2  and  N1_3 
REMARK       I    between atoms: N1_3  and  C3_5 
REMARK    2  A    between atoms: C3_5  and  C4_7 
REMARK    3  A    between atoms: C4_7  and  C5_8 
REMARK    4  A    between atoms: C8_11  and  C9_12 
REMARK       I    between atoms: C9_12  and  N2_14 
REMARK    5  A    between atoms: C21_29  and  C22_30 
REMARK    6  A    between atoms: C22_30  and  C23_31 
REMARK    7  A    between atoms: C22_30  and  N5_34 
REMARK    8  A    between atoms: C28_37  and  C29_38 
REMARK    9  A    between atoms: C29_38  and  C30_39 
REMARK   10  A    between atoms: C30_39  and  C31_40 
REMARK   11  A    between atoms: C31_40  and  N6_41 
ROOT
HETATM    1  C9  UNL     1       9.774  23.932   4.937  1.00  0.00     0.247 C 
HETATM    2  O2  UNL     1       9.496  24.583   5.980  1.00  0.00    -0.271 OA
HETATM    3  N2  UNL     1       8.893  24.095   3.867  1.00  0.00    -0.312 N 
HETATM    4  C10 UNL     1       9.362  23.082   2.792  1.00  0.00     0.167 C 
HETATM    5  C11 UNL     1       8.264  22.196   2.652  1.00  0.00    -0.048 C 
HETATM    6  C12 UNL     1       7.348  22.708   1.597  1.00  0.00     0.056 C 
HETATM    7  C13 UNL     1       6.049  23.256   2.122  1.00  0.00     0.126 C 
HETATM    8  N3  UNL     1       6.106  23.116   3.536  1.00  0.00    -0.387 N 
HETATM    9  C14 UNL     1       5.513  21.998   4.104  1.00  0.00     0.064 C 
HETATM   10  C15 UNL     1       5.500  20.678   3.433  1.00  0.00     0.102 C 
HETATM   11  C16 UNL     1       6.855  20.145   2.996  1.00  0.00     0.024 A 
HETATM   12  N4  UNL     1       7.061  18.833   2.867  1.00  0.00    -0.368 N 
ATOM     13  H4  UNL     1       6.362  18.111   3.044  1.00  0.00     0.165 HD
HETATM   14  C17 UNL     1       8.321  18.604   2.470  1.00  0.00     0.089 A 
HETATM   15  C18 UNL     1       8.961  19.813   2.337  1.00  0.00     0.030 A 
HETATM   16  C19 UNL     1       8.075  20.764   2.655  1.00  0.00    -0.008 A 
HETATM   17  C20 UNL     1       6.432  24.277   4.277  1.00  0.00     0.181 C 
HETATM   18  C21 UNL     1       7.790  24.954   3.845  1.00  0.00     0.055 C 
ENDROOT
BRANCH  18  19
HETATM   19  C22 UNL     1       7.678  26.414   3.863  1.00  0.00     0.039 C 
BRANCH  19  20
HETATM   20  C23 UNL     1       8.354  27.064   2.614  1.00  0.00     0.029 C 
HETATM   21  C24 UNL     1       8.934  25.995   1.720  1.00  0.00     0.016 C 
HETATM   22  C25 UNL     1       7.493  28.015   1.861  1.00  0.00     0.016 C 
ENDBRANCH  19  20
BRANCH  19  23
HETATM   23  N5  UNL     1       7.616  27.270   4.927  1.00  0.00    -0.362 N 
HETATM   24  C26 UNL     1       6.583  27.940   5.518  1.00  0.00     0.064 C 
HETATM   25  C27 UNL     1       6.646  28.221   6.995  1.00  0.00     0.049 C 
HETATM   26  C28 UNL     1       7.970  28.208   7.626  1.00  0.00    -0.008 C 
HETATM   27  C33 UNL     1       9.122  27.789   6.792  1.00  0.00     0.025 C 
HETATM   28  C34 UNL     1       8.810  27.965   5.356  1.00  0.00     0.128 C 
BRANCH  26  29
HETATM   29  C29 UNL     1       8.010  27.295   8.865  1.00  0.00     0.006 C 
BRANCH  29  30
HETATM   30  C30 UNL     1       8.465  25.903   8.534  1.00  0.00     0.020 C 
BRANCH  30  31
HETATM   31  C31 UNL     1       9.482  25.357   9.512  1.00  0.00     0.122 C 
BRANCH  31  32
HETATM   32  N6  UNL     1      10.795  25.203   8.968  1.00  0.00    -0.367 N 
HETATM   33  C32 UNL     1      11.717  26.093   8.912  1.00  0.00     0.196 C 
HETATM   34  N7  UNL     1      11.577  27.412   9.395  1.00  0.00    -0.067 NA
HETATM   35  N8  UNL     1      12.986  25.744   8.321  1.00  0.00    -0.067 NA
ATOM     36  H6  UNL     1      11.023  24.286   8.585  1.00  0.00     0.161 HD
ENDBRANCH  31  32
ENDBRANCH  30  31
ENDBRANCH  29  30
ENDBRANCH  26  29
ENDBRANCH  19  23
ENDBRANCH  18  19
BRANCH   1  37
HETATM   37  C8  UNL     1      11.001  23.135   5.088  1.00  0.00     0.177 C 
HETATM   38  C7  UNL     1      11.556  23.044   6.482  1.00  0.00     0.036 C 
HETATM   39  C6  UNL     1      12.926  22.398   6.407  1.00  0.00     0.017 C 
HETATM   40  C5  UNL     1      13.917  23.437   6.017  1.00  0.00     0.086 C 
HETATM   41  C35 UNL     1      13.264  24.302   4.997  1.00  0.00     0.223 C 
HETATM   42  N9  UNL     1      12.080  23.919   4.391  1.00  0.00    -0.347 N 
HETATM   43  O3  UNL     1      13.826  25.383   4.709  1.00  0.00    -0.273 OA
ATOM     44  H9  UNL     1      11.931  24.182   3.417  1.00  0.00     0.163 HD
BRANCH  40  45
HETATM   45  C4  UNL     1      15.255  22.958   5.593  1.00  0.00     0.117 C 
BRANCH  45  46
HETATM   46  C3  UNL     1      15.286  22.000   4.489  1.00  0.00     0.218 C 
HETATM   47  N1  UNL     1      16.028  20.798   4.640  1.00  0.00    -0.361 N 
ATOM     48  H1  UNL     1      16.525  20.622   5.513  1.00  0.00     0.162 HD
HETATM   49  O1  UNL     1      14.688  22.170   3.386  1.00  0.00    -0.274 OA
BRANCH  47  50
HETATM   50  C2  UNL     1      16.091  19.812   3.570  1.00  0.00     0.118 C 
HETATM   51  C1  UNL     1      15.842  18.445   4.148  1.00  0.00     0.026 C 
ENDBRANCH  47  50
ENDBRANCH  45  46
ENDBRANCH  40  45
ENDBRANCH   1  37
TORSDOF 11
ENDMDL
MODEL 2
REMARK VINA RESULT: -9.101376690      2.921      6.761
REMARK  11 active torsions:
REMARK  status: ('A' for Active; 'I' for Inactive)
REMARK    1  A    between atoms: C2_2  and  N1_3 
REMARK       I    between atoms: N1_3  and  C3_5 
REMARK    2  A    between atoms: C3_5  and  C4_7 
REMARK    3  A    between atoms: C4_7  and  C5_8 
REMARK    4  A    between atoms: C8_11  and  C9_12 
REMARK       I    between atoms: C9_12  and  N2_14 
REMARK    5  A    between atoms: C21_29  and  C22_30 
REMARK    6  A    between atoms: C22_30  and  C23_31 
REMARK    7  A    between atoms: C22_30  and  N5_34 
REMARK    8  A    between atoms: C28_37  and  C29_38 
REMARK    9  A    between atoms: C29_38  and  C30_39 
REMARK   10  A    between atoms: C30_39  and  C31_40 
REMARK   11  A    between atoms: C31_40  and  N6_41 
ROOT
HETATM    1  C9  UNL     1       7.588  23.098   3.565  1.00  0.00     0.247 C 
HETATM    2  O2  UNL     1       8.487  22.468   4.184  1.00  0.00    -0.271 OA
HETATM    3  N2  UNL     1       7.743  24.483   3.514  1.00  0.00    -0.312 N 
HETATM    4  C10 UNL     1       6.447  25.016   2.851  1.00  0.00     0.167 C 
HETATM    5  C11 UNL     1       5.853  25.821   3.856  1.00  0.00    -0.048 C 
HETATM    6  C12 UNL     1       6.350  27.218   3.726  1.00  0.00     0.056 C 
HETATM    7  C13 UNL     1       7.300  27.638   4.814  1.00  0.00     0.126 C 
HETATM    8  N3  UNL     1       7.444  26.509   5.668  1.00  0.00    -0.387 N 
HETATM    9  C14 UNL     1       6.650  26.447   6.804  1.00  0.00     0.064 C 
HETATM   10  C15 UNL     1       5.266  26.973   6.837  1.00  0.00     0.102 C 
HETATM   11  C16 UNL     1       4.334  26.450   5.756  1.00  0.00     0.024 A 
HETATM   12  N4  UNL     1       3.015  26.420   5.951  1.00  0.00    -0.368 N 
ATOM     13  H4  UNL     1       2.542  26.726   6.802  1.00  0.00     0.165 HD
HETATM   14  C17 UNL     1       2.402  25.926   4.866  1.00  0.00     0.089 A 
HETATM   15  C18 UNL     1       3.359  25.622   3.927  1.00  0.00     0.030 A 
HETATM   16  C19 UNL     1       4.546  25.939   4.459  1.00  0.00    -0.008 A 
HETATM   17  C20 UNL     1       8.613  25.729   5.500  1.00  0.00     0.181 C 
HETATM   18  C21 UNL     1       8.826  25.201   4.029  1.00  0.00     0.055 C 
ENDROOT
BRANCH  18  19
HETATM   19  C22 UNL     1      10.240  25.258   3.650  1.00  0.00     0.039 C 
BRANCH  19  20
HETATM   20  C23 UNL     1      10.430  25.165   2.102  1.00  0.00     0.029 C 
HETATM   21  C24 UNL     1      10.463  23.720   1.666  1.00  0.00     0.016 C 
HETATM   22  C25 UNL     1       9.464  25.967   1.304  1.00  0.00     0.016 C 
ENDBRANCH  19  20
BRANCH  19  23
HETATM   23  N5  UNL     1      11.343  24.837   4.337  1.00  0.00    -0.362 N 
HETATM   24  C26 UNL     1      12.649  25.239   4.328  1.00  0.00     0.064 C 
HETATM   25  C27 UNL     1      13.455  25.125   5.594  1.00  0.00     0.049 C 
HETATM   26  C28 UNL     1      12.986  24.174   6.607  1.00  0.00    -0.008 C 
HETATM   27  C33 UNL     1      11.688  23.502   6.365  1.00  0.00     0.025 C 
HETATM   28  C34 UNL     1      11.361  23.514   4.922  1.00  0.00     0.128 C 
BRANCH  26  29
HETATM   29  C29 UNL     1      12.855  24.828   7.995  1.00  0.00     0.006 C 
BRANCH  29  30
HETATM   30  C30 UNL     1      11.435  24.849   8.484  1.00  0.00     0.020 C 
BRANCH  30  31
HETATM   31  C31 UNL     1      11.079  26.115   9.232  1.00  0.00     0.122 C 
BRANCH  31  32
HETATM   32  N6  UNL     1      10.645  27.189   8.395  1.00  0.00    -0.367 N 
HETATM   33  C32 UNL     1       9.550  27.851   8.492  1.00  0.00     0.196 C 
HETATM   34  N7  UNL     1       8.566  27.616   9.476  1.00  0.00    -0.067 NA
HETATM   35  N8  UNL     1       9.289  28.907   7.546  1.00  0.00    -0.067 NA
ATOM     36  H6  UNL     1      11.274  27.458   7.639  1.00  0.00     0.161 HD
ENDBRANCH  31  32
ENDBRANCH  30  31
ENDBRANCH  29  30
ENDBRANCH  26  29
ENDBRANCH  19  23
ENDBRANCH  18  19
BRANCH   1  37
HETATM   37  C8  UNL     1       6.559  22.202   3.016  1.00  0.00     0.177 C 
HETATM   38  C7  UNL     1       5.663  21.537   4.024  1.00  0.00     0.036 C 
HETATM   39  C6  UNL     1       4.838  20.486   3.308  1.00  0.00     0.017 C 
HETATM   40  C5  UNL     1       5.668  19.261   3.151  1.00  0.00     0.086 C 
HETATM   41  C35 UNL     1       7.051  19.709   2.825  1.00  0.00     0.223 C 
HETATM   42  N9  UNL     1       7.307  21.019   2.461  1.00  0.00    -0.347 N 
HETATM   43  O3  UNL     1       7.966  18.857   2.890  1.00  0.00    -0.273 OA
ATOM     44  H9  UNL     1       8.043  21.194   1.778  1.00  0.00     0.163 HD
BRANCH  40  45
HETATM   45  C4  UNL     1       5.164  18.227   2.214  1.00  0.00     0.117 C 
BRANCH  45  46
HETATM   46  C3  UNL     1       4.653  16.996   2.816  1.00  0.00     0.218 C 
HETATM   47  N1  UNL     1       5.568  15.962   3.150  1.00  0.00    -0.361 N 
ATOM     48  H1  UNL     1       6.563  16.094   2.968  1.00  0.00     0.162 HD
HETATM   49  O1  UNL     1       3.431  16.782   3.062  1.00  0.00    -0.274 OA
BRANCH  47  50
HETATM   50  C2  UNL     1       5.110  14.717   3.750  1.00  0.00     0.118 C 
HETATM   51  C1  UNL     1       5.923  13.578   3.195  1.00  0.00     0.026 C 
ENDBRANCH  47  50
ENDBRANCH  45  46
ENDBRANCH  40  45
ENDBRANCH   1  37
TORSDOF 11
ENDMDL
MODEL 3
REMARK VINA RESULT: -8.822550751      1.927      6.366
REMARK  11 active torsions:
REMARK  status: ('A' for Active; 'I' for Inactive)
REMARK    1  A    between atoms: C2_2  and  N1_3 
REMARK       I    between atoms: N1_3  and  C3_5 
REMARK    2  A    between atoms: C3_5  and  C4_7 
REMARK    3  A    between atoms: C4_7  and  C5_8 
REMARK    4  A    between atoms: C8_11  and  C9_12 
REMARK       I    between atoms: C9_12  and  N2_14 
REMARK    5  A    between atoms: C21_29  and  C22_30 
REMARK    6  A    between atoms: C22_30  and  C23_31 
REMARK    7  A    between atoms: C22_30  and  N5_34 
REMARK    8  A    between atoms: C28_37  and  C29_38 
REMARK    9  A    between atoms: C29_38  and  C30_39 
REMARK   10  A    between atoms: C30_39  and  C31_40 
REMARK   11  A    between atoms: C31_40  and  N6_41 
ROOT
HETATM    1  C9  UNL     1       9.065  25.711   3.974  1.00  0.00     0.247 C 
HETATM    2  O2  UNL     1       8.785  26.546   3.073  1.00  0.00    -0.271 OA
HETATM    3  N2  UNL     1       8.262  25.755   5.114  1.00  0.00    -0.312 N 
HETATM    4  C10 UNL     1       8.908  24.759   6.109  1.00  0.00     0.167 C 
HETATM    5  C11 UNL     1       9.296  25.570   7.205  1.00  0.00    -0.048 C 
HETATM    6  C12 UNL     1       8.180  25.641   8.187  1.00  0.00     0.056 C 
HETATM    7  C13 UNL     1       7.487  26.975   8.237  1.00  0.00     0.126 C 
HETATM    8  N3  UNL     1       8.140  27.794   7.274  1.00  0.00    -0.387 N 
HETATM    9  C14 UNL     1       9.145  28.642   7.715  1.00  0.00     0.064 C 
HETATM   10  C15 UNL     1      10.058  28.283   8.824  1.00  0.00     0.102 C 
HETATM   11  C16 UNL     1      10.788  26.957   8.676  1.00  0.00     0.024 A 
HETATM   12  N4  UNL     1      11.958  26.753   9.284  1.00  0.00    -0.368 N 
ATOM     13  H4  UNL     1      12.441  27.436   9.868  1.00  0.00     0.165 HD
HETATM   14  C17 UNL     1      12.406  25.518   9.013  1.00  0.00     0.089 A 
HETATM   15  C18 UNL     1      11.493  24.895   8.197  1.00  0.00     0.030 A 
HETATM   16  C19 UNL     1      10.498  25.764   7.983  1.00  0.00    -0.008 A 
HETATM   17  C20 UNL     1       7.488  27.952   6.027  1.00  0.00     0.181 C 
HETATM   18  C21 UNL     1       7.157  26.592   5.299  1.00  0.00     0.055 C 
ENDROOT
BRANCH  18  19
HETATM   19  C22 UNL     1       5.845  26.650   4.650  1.00  0.00     0.039 C 
BRANCH  19  20
HETATM   20  C23 UNL     1       4.893  27.669   5.355  1.00  0.00     0.029 C 
HETATM   21  C24 UNL     1       3.997  28.334   4.339  1.00  0.00     0.016 C 
HETATM   22  C25 UNL     1       4.121  27.114   6.500  1.00  0.00     0.016 C 
ENDBRANCH  19  20
BRANCH  19  23
HETATM   23  N5  UNL     1       5.161  25.675   3.980  1.00  0.00    -0.362 N 
HETATM   24  C26 UNL     1       4.980  25.418   2.651  1.00  0.00     0.064 C 
HETATM   25  C27 UNL     1       4.811  23.992   2.200  1.00  0.00     0.049 C 
HETATM   26  C28 UNL     1       4.370  23.017   3.203  1.00  0.00    -0.008 C 
HETATM   27  C33 UNL     1       4.256  23.483   4.606  1.00  0.00     0.025 C 
HETATM   28  C34 UNL     1       4.101  24.955   4.650  1.00  0.00     0.128 C 
BRANCH  26  29
HETATM   29  C29 UNL     1       5.292  21.786   3.256  1.00  0.00     0.006 C 
BRANCH  29  30
HETATM   30  C30 UNL     1       6.696  22.141   3.656  1.00  0.00     0.020 C 
BRANCH  30  31
HETATM   31  C31 UNL     1       7.748  21.332   2.931  1.00  0.00     0.122 C 
BRANCH  31  32
HETATM   32  N6  UNL     1       7.494  19.926   2.906  1.00  0.00    -0.367 N 
HETATM   33  C32 UNL     1       8.252  19.012   2.418  1.00  0.00     0.196 C 
HETATM   34  N7  UNL     1       9.501  19.259   1.810  1.00  0.00    -0.067 NA
HETATM   35  N8  UNL     1       7.818  17.638   2.488  1.00  0.00    -0.067 NA
ATOM     36  H6  UNL     1       6.615  19.616   3.320  1.00  0.00     0.161 HD
ENDBRANCH  31  32
ENDBRANCH  30  31
ENDBRANCH  29  30
ENDBRANCH  26  29
ENDBRANCH  19  23
ENDBRANCH  18  19
BRANCH   1  37
HETATM   37  C8  UNL     1      10.200  24.852   3.604  1.00  0.00     0.177 C 
HETATM   38  C7  UNL     1      10.392  23.621   4.444  1.00  0.00     0.036 C 
HETATM   39  C6  UNL     1      11.725  22.997   4.076  1.00  0.00     0.017 C 
HETATM   40  C5  UNL     1      12.802  23.728   4.797  1.00  0.00     0.086 C 
HETATM   41  C35 UNL     1      12.439  25.172   4.779  1.00  0.00     0.223 C 
HETATM   42  N9  UNL     1      11.434  25.642   3.952  1.00  0.00    -0.347 N 
HETATM   43  O3  UNL     1      13.076  25.939   5.535  1.00  0.00    -0.273 OA
ATOM     44  H9  UNL     1      11.534  26.576   3.555  1.00  0.00     0.163 HD
BRANCH  40  45
HETATM   45  C4  UNL     1      14.194  23.480   4.348  1.00  0.00     0.117 C 
BRANCH  45  46
HETATM   46  C3  UNL     1      15.135  23.016   5.366  1.00  0.00     0.218 C 
HETATM   47  N1  UNL     1      15.258  23.750   6.576  1.00  0.00    -0.361 N 
ATOM     48  H1  UNL     1      14.690  24.586   6.716  1.00  0.00     0.162 HD
HETATM   49  O1  UNL     1      15.862  21.987   5.242  1.00  0.00    -0.274 OA
BRANCH  47  50
HETATM   50  C2  UNL     1      16.182  23.330   7.620  1.00  0.00     0.118 C 
HETATM   51  C1  UNL     1      15.395  22.948   8.846  1.00  0.00     0.026 C 
ENDBRANCH  47  50
ENDBRANCH  45  46
ENDBRANCH  40  45
ENDBRANCH   1  37
TORSDOF 11
ENDMDL
MODEL 4
REMARK VINA RESULT: -8.696122813      2.767      7.780
REMARK  11 active torsions:
REMARK  status: ('A' for Active; 'I' for Inactive)
REMARK    1  A    between atoms: C2_2  and  N1_3 
REMARK       I    between atoms: N1_3  and  C3_5 
REMARK    2  A    between atoms: C3_5  and  C4_7 
REMARK    3  A    between atoms: C4_7  and  C5_8 
REMARK    4  A    between atoms: C8_11  and  C9_12 
REMARK       I    between atoms: C9_12  and  N2_14 
REMARK    5  A    between atoms: C21_29  and  C22_30 
REMARK    6  A    between atoms: C22_30  and  C23_31 
REMARK    7  A    between atoms: C22_30  and  N5_34 
REMARK    8  A    between atoms: C28_37  and  C29_38 
REMARK    9  A    between atoms: C29_38  and  C30_39 
REMARK   10  A    between atoms: C30_39  and  C31_40 
REMARK   11  A    between atoms: C31_40  and  N6_41 
ROOT
HETATM    1  C9  UNL     1       7.915  23.188   3.663  1.00  0.00     0.247 C 
HETATM    2  O2  UNL     1       8.660  22.480   4.393  1.00  0.00    -0.271 OA
HETATM    3  N2  UNL     1       8.266  24.535   3.563  1.00  0.00    -0.312 N 
HETATM    4  C10 UNL     1       7.120  25.198   2.758  1.00  0.00     0.167 C 
HETATM    5  C11 UNL     1       6.561  26.134   3.665  1.00  0.00    -0.048 C 
HETATM    6  C12 UNL     1       7.258  27.441   3.518  1.00  0.00     0.056 C 
HETATM    7  C13 UNL     1       8.160  27.791   4.669  1.00  0.00     0.126 C 
HETATM    8  N3  UNL     1       8.070  26.705   5.584  1.00  0.00    -0.387 N 
HETATM    9  C14 UNL     1       7.181  26.818   6.643  1.00  0.00     0.064 C 
HETATM   10  C15 UNL     1       5.886  27.528   6.521  1.00  0.00     0.102 C 
HETATM   11  C16 UNL     1       4.987  27.074   5.383  1.00  0.00     0.024 A 
HETATM   12  N4  UNL     1       3.665  27.234   5.455  1.00  0.00    -0.368 N 
ATOM     13  H4  UNL     1       3.168  27.651   6.243  1.00  0.00     0.165 HD
HETATM   14  C17 UNL     1       3.084  26.765   4.341  1.00  0.00     0.089 A 
HETATM   15  C18 UNL     1       4.067  26.280   3.512  1.00  0.00     0.030 A 
HETATM   16  C19 UNL     1       5.236  26.463   4.137  1.00  0.00    -0.008 A 
HETATM   17  C20 UNL     1       9.129  25.766   5.562  1.00  0.00     0.181 C 
HETATM   18  C21 UNL     1       9.391  25.128   4.144  1.00  0.00     0.055 C 
ENDROOT
BRANCH  18  19
HETATM   19  C22 UNL     1      10.826  24.970   3.896  1.00  0.00     0.039 C 
BRANCH  19  20
HETATM   20  C23 UNL     1      11.129  24.700   2.388  1.00  0.00     0.029 C 
HETATM   21  C24 UNL     1      11.148  23.215   2.118  1.00  0.00     0.016 C 
HETATM   22  C25 UNL     1      10.252  25.429   1.433  1.00  0.00     0.016 C 
ENDBRANCH  19  20
BRANCH  19  23
HETATM   23  N5  UNL     1      11.804  24.487   4.719  1.00  0.00    -0.362 N 
HETATM   24  C26 UNL     1      11.816  23.498   5.662  1.00  0.00     0.064 C 
HETATM   25  C27 UNL     1      13.089  22.729   5.895  1.00  0.00     0.049 C 
HETATM   26  C28 UNL     1      14.344  23.363   5.479  1.00  0.00    -0.008 C 
HETATM   27  C33 UNL     1      14.251  24.647   4.743  1.00  0.00     0.025 C 
HETATM   28  C34 UNL     1      12.956  25.308   5.020  1.00  0.00     0.128 C 
BRANCH  26  29
HETATM   29  C29 UNL     1      15.188  22.439   4.582  1.00  0.00     0.006 C 
BRANCH  29  30
HETATM   30  C30 UNL     1      15.853  21.340   5.361  1.00  0.00     0.020 C 
BRANCH  30  31
HETATM   31  C31 UNL     1      15.693  19.976   4.728  1.00  0.00     0.122 C 
BRANCH  31  32
HETATM   32  N6  UNL     1      16.856  19.507   4.042  1.00  0.00    -0.367 N 
HETATM   33  C32 UNL     1      16.951  19.207   2.798  1.00  0.00     0.196 C 
HETATM   34  N7  UNL     1      15.886  19.298   1.877  1.00  0.00    -0.067 NA
HETATM   35  N8  UNL     1      18.219  18.748   2.288  1.00  0.00    -0.067 NA
ATOM     36  H6  UNL     1      17.701  19.399   4.602  1.00  0.00     0.161 HD
ENDBRANCH  31  32
ENDBRANCH  30  31
ENDBRANCH  29  30
ENDBRANCH  26  29
ENDBRANCH  19  23
ENDBRANCH  18  19
BRANCH   1  37
HETATM   37  C8  UNL     1       6.821  22.410   3.063  1.00  0.00     0.177 C 
HETATM   38  C7  UNL     1       5.815  21.843   4.025  1.00  0.00     0.036 C 
HETATM   39  C6  UNL     1       4.914  20.888   3.265  1.00  0.00     0.017 C 
HETATM   40  C5  UNL     1       5.615  19.582   3.137  1.00  0.00     0.086 C 
HETATM   41  C35 UNL     1       7.050  19.878   2.876  1.00  0.00     0.223 C 
HETATM   42  N9  UNL     1       7.462  21.154   2.534  1.00  0.00    -0.347 N 
HETATM   43  O3  UNL     1       7.865  18.933   2.977  1.00  0.00    -0.273 OA
ATOM     44  H9  UNL     1       8.244  21.250   1.886  1.00  0.00     0.163 HD
BRANCH  40  45
HETATM   45  C4  UNL     1       5.045  18.610   2.172  1.00  0.00     0.117 C 
BRANCH  45  46
HETATM   46  C3  UNL     1       4.669  17.302   2.707  1.00  0.00     0.218 C 
HETATM   47  N1  UNL     1       5.691  16.368   3.023  1.00  0.00    -0.361 N 
ATOM     48  H1  UNL     1       6.668  16.622   2.873  1.00  0.00     0.162 HD
HETATM   49  O1  UNL     1       3.475  16.937   2.912  1.00  0.00    -0.274 OA
BRANCH  47  50
HETATM   50  C2  UNL     1       5.369  15.052   3.558  1.00  0.00     0.118 C 
HETATM   51  C1  UNL     1       6.464  14.090   3.184  1.00  0.00     0.026 C 
ENDBRANCH  47  50
ENDBRANCH  45  46
ENDBRANCH  40  45
ENDBRANCH   1  37
TORSDOF 11
ENDMDL
MODEL 5
REMARK VINA RESULT: -8.661476950      3.130      6.925
REMARK  11 active torsions:
REMARK  status: ('A' for Active; 'I' for Inactive)
REMARK    1  A    between atoms: C2_2  and  N1_3 
REMARK       I    between atoms: N1_3  and  C3_5 
REMARK    2  A    between atoms: C3_5  and  C4_7 
REMARK    3  A    between atoms: C4_7  and  C5_8 
REMARK    4  A    between atoms: C8_11  and  C9_12 
REMARK       I    between atoms: C9_12  and  N2_14 
REMARK    5  A    between atoms: C21_29  and  C22_30 
REMARK    6  A    between atoms: C22_30  and  C23_31 
REMARK    7  A    between atoms: C22_30  and  N5_34 
REMARK    8  A    between atoms: C28_37  and  C29_38 
REMARK    9  A    between atoms: C29_38  and  C30_39 
REMARK   10  A    between atoms: C30_39  and  C31_40 
REMARK   11  A    between atoms: C31_40  and  N6_41 
ROOT
HETATM    1  C9  UNL     1       6.142  26.631   5.056  1.00  0.00     0.247 C 
HETATM    2  O2  UNL     1       6.840  27.104   4.119  1.00  0.00    -0.271 OA
HETATM    3  N2  UNL     1       4.971  25.978   4.671  1.00  0.00    -0.312 N 
HETATM    4  C10 UNL     1       4.236  25.644   5.994  1.00  0.00     0.167 C 
HETATM    5  C11 UNL     1       3.025  26.376   5.909  1.00  0.00    -0.048 C 
HETATM    6  C12 UNL     1       1.983  25.536   5.258  1.00  0.00     0.056 C 
HETATM    7  C13 UNL     1       1.627  25.969   3.863  1.00  0.00     0.126 C 
HETATM    8  N3  UNL     1       2.443  27.099   3.580  1.00  0.00    -0.387 N 
HETATM    9  C14 UNL     1       1.902  28.360   3.782  1.00  0.00     0.064 C 
HETATM   10  C15 UNL     1       0.944  28.648   4.875  1.00  0.00     0.102 C 
HETATM   11  C16 UNL     1       1.398  28.256   6.272  1.00  0.00     0.024 A 
HETATM   12  N4  UNL     1       0.915  28.884   7.345  1.00  0.00    -0.368 N 
ATOM     13  H4  UNL     1       0.236  29.645   7.321  1.00  0.00     0.165 HD
HETATM   14  C17 UNL     1       1.454  28.369   8.460  1.00  0.00     0.089 A 
HETATM   15  C18 UNL     1       2.322  27.367   8.098  1.00  0.00     0.030 A 
HETATM   16  C19 UNL     1       2.297  27.287   6.762  1.00  0.00    -0.008 A 
HETATM   17  C20 UNL     1       3.592  26.870   2.784  1.00  0.00     0.181 C 
HETATM   18  C21 UNL     1       4.556  25.759   3.354  1.00  0.00     0.055 C 
ENDROOT
BRANCH  18  19
HETATM   19  C22 UNL     1       5.100  24.932   2.275  1.00  0.00     0.039 C 
BRANCH  19  20
HETATM   20  C23 UNL     1       4.286  23.612   2.087  1.00  0.00     0.029 C 
HETATM   21  C24 UNL     1       3.917  23.031   3.430  1.00  0.00     0.016 C 
HETATM   22  C25 UNL     1       3.107  23.728   1.187  1.00  0.00     0.016 C 
ENDBRANCH  19  20
BRANCH  19  23
HETATM   23  N5  UNL     1       6.387  24.819   1.829  1.00  0.00    -0.362 N 
HETATM   24  C26 UNL     1       7.206  25.666   1.138  1.00  0.00     0.064 C 
HETATM   25  C27 UNL     1       8.690  25.605   1.381  1.00  0.00     0.049 C 
HETATM   26  C28 UNL     1       9.228  24.365   1.950  1.00  0.00    -0.008 C 
HETATM   27  C33 UNL     1       8.256  23.325   2.365  1.00  0.00     0.025 C 
HETATM   28  C34 UNL     1       6.971  23.507   1.655  1.00  0.00     0.128 C 
BRANCH  26  29
HETATM   29  C29 UNL     1      10.098  24.630   3.193  1.00  0.00     0.006 C 
BRANCH  29  30
HETATM   30  C30 UNL     1      10.549  23.359   3.855  1.00  0.00     0.020 C 
BRANCH  30  31
HETATM   31  C31 UNL     1      11.327  23.592   5.131  1.00  0.00     0.122 C 
BRANCH  31  32
HETATM   32  N6  UNL     1      12.740  23.427   4.996  1.00  0.00    -0.367 N 
HETATM   33  C32 UNL     1      13.619  24.355   4.881  1.00  0.00     0.196 C 
HETATM   34  N7  UNL     1      13.320  25.734   4.871  1.00  0.00    -0.067 NA
HETATM   35  N8  UNL     1      15.007  23.986   4.754  1.00  0.00    -0.067 NA
ATOM     36  H6  UNL     1      13.086  22.468   4.990  1.00  0.00     0.161 HD
ENDBRANCH  31  32
ENDBRANCH  30  31
ENDBRANCH  29  30
ENDBRANCH  26  29
ENDBRANCH  19  23
ENDBRANCH  18  19
BRANCH   1  37
HETATM   37  C8  UNL     1       6.745  26.875   6.375  1.00  0.00     0.177 C 
HETATM   38  C7  UNL     1       7.011  28.315   6.718  1.00  0.00     0.036 C 
HETATM   39  C6  UNL     1       7.838  28.356   7.989  1.00  0.00     0.017 C 
HETATM   40  C5  UNL     1       9.262  28.117   7.632  1.00  0.00     0.086 C 
HETATM   41  C35 UNL     1       9.278  27.072   6.571  1.00  0.00     0.223 C 
HETATM   42  N9  UNL     1       8.145  26.329   6.287  1.00  0.00    -0.347 N 
HETATM   43  O3  UNL     1      10.350  26.891   5.952  1.00  0.00    -0.273 OA
ATOM     44  H9  UNL     1       8.265  25.358   6.003  1.00  0.00     0.163 HD
BRANCH  40  45
HETATM   45  C4  UNL     1      10.190  27.815   8.749  1.00  0.00     0.117 C 
BRANCH  45  46
HETATM   46  C3  UNL     1      10.597  26.418   8.900  1.00  0.00     0.218 C 
HETATM   47  N1  UNL     1      11.828  25.995   8.332  1.00  0.00    -0.361 N 
ATOM     48  H1  UNL     1      12.407  26.668   7.830  1.00  0.00     0.162 HD
HETATM   49  O1  UNL     1       9.917  25.544   9.512  1.00  0.00    -0.274 OA
BRANCH  47  50
HETATM   50  C2  UNL     1      12.278  24.616   8.453  1.00  0.00     0.118 C 
HETATM   51  C1  UNL     1      13.783  24.585   8.407  1.00  0.00     0.026 C 
ENDBRANCH  47  50
ENDBRANCH  45  46
ENDBRANCH  40  45
ENDBRANCH   1  37
TORSDOF 11
ENDMDL
