MODEL 1
REMARK VINA RESULT: -5.997960718      0.000      0.000
REMARK  3 active torsions:
REMARK  status: ('A' for Active; 'I' for Inactive)
REMARK    1  A    between atoms: C3_3  and  C4_4 
REMARK    2  A    between atoms: C10_10  and  C11_11 
REMARK    3  A    between atoms: C13_20  and  N4_21 
ROOT
HETATM    1  C1  UNL     1      47.673  11.379  -0.539  1.00  0.00     0.013 C 
HETATM    2  C2  UNL     1      46.793  10.908   0.098  1.00  0.00    -0.106 C 
HETATM    3  C3  UNL     1      45.725  10.335   0.903  1.00  0.00     0.033 C 
HETATM    4  C6  UNL     1      45.676  11.055   2.265  1.00  0.00     0.023 C 
HETATM    5  C7  UNL     1      45.223  12.501   2.070  1.00  0.00     0.002 C 
HETATM    6  C8  UNL     1      43.894  12.608   1.412  1.00  0.00     0.001 C 
HETATM    7  C9  UNL     1      44.007  11.948   0.044  1.00  0.00     0.014 C 
HETATM    8  C10 UNL     1      44.356  10.483   0.332  1.00  0.00     0.074 C 
ENDROOT
BRANCH   3   9
HETATM    9  C4  UNL     1      45.971   8.889   1.201  1.00  0.00     0.019 C 
HETATM   10  C5  UNL     1      46.802   8.630   2.406  1.00  0.00     0.007 C 
ENDBRANCH   3   9
BRANCH   8  11
HETATM   11  C11 UNL     1      44.010   9.595  -0.785  1.00  0.00     0.102 C 
HETATM   12  N1  UNL     1      44.644   9.630  -1.922  1.00  0.00    -0.181 N 
HETATM   13  C12 UNL     1      44.345   8.794  -3.030  1.00  0.00     0.676 C 
ATOM     14  H1  UNL     1      45.404  10.302  -2.023  1.00  0.00     0.185 HD
HETATM   15  N2  UNL     1      45.000   8.857  -4.148  1.00  0.00    -0.235 N 
HETATM   16  N3  UNL     1      43.297   7.840  -2.948  1.00  0.00    -0.180 N 
ATOM     17  H22 UNL     1      45.753   9.543  -4.207  1.00  0.00     0.174 HD
ATOM     18  H21 UNL     1      44.785   8.256  -4.943  1.00  0.00     0.174 HD
HETATM   19  C13 UNL     1      42.319   8.070  -1.882  1.00  0.00     0.402 C 
ATOM     20  H3  UNL     1      43.229   7.047  -3.587  1.00  0.00     0.181 HD
HETATM   21  N5  UNL     1      42.959   8.635  -0.712  1.00  0.00    -0.335 N 
ATOM     22  H5  UNL     1      42.642   8.332   0.209  1.00  0.00     0.164 HD
BRANCH  19  23
HETATM   23  N4  UNL     1      41.280   8.900  -2.422  1.00  0.00    -0.040 N 
ATOM     24  H43 UNL     1      41.079   9.714  -1.843  1.00  0.00     0.279 HD
ATOM     25  H42 UNL     1      41.568   9.402  -3.262  1.00  0.00     0.279 HD
ATOM     26  H41 UNL     1      40.462   8.307  -2.574  1.00  0.00     0.279 HD
ENDBRANCH  19  23
ENDBRANCH   8  11
TORSDOF 3
ENDMDL
MODEL 2
REMARK VINA RESULT: -5.709291702      0.677      1.851
REMARK  3 active torsions:
REMARK  status: ('A' for Active; 'I' for Inactive)
REMARK    1  A    between atoms: C3_3  and  C4_4 
REMARK    2  A    between atoms: C10_10  and  C11_11 
REMARK    3  A    between atoms: C13_20  and  N4_21 
ROOT
HETATM    1  C1  UNL     1      47.786  11.481  -0.345  1.00  0.00     0.013 C 
HETATM    2  C2  UNL     1      46.822  11.016   0.163  1.00  0.00    -0.106 C 
HETATM    3  C3  UNL     1      45.650  10.447   0.810  1.00  0.00     0.033 C 
HETATM    4  C6  UNL     1      45.565  10.974   2.257  1.00  0.00     0.023 C 
HETATM    5  C7  UNL     1      45.260  12.471   2.245  1.00  0.00     0.002 C 
HETATM    6  C8  UNL     1      43.999  12.800   1.529  1.00  0.00     0.001 C 
HETATM    7  C9  UNL     1      44.153  12.327   0.090  1.00  0.00     0.014 C 
HETATM    8  C10 UNL     1      44.346  10.808   0.185  1.00  0.00     0.074 C 
ENDROOT
BRANCH   3   9
HETATM    9  C4  UNL     1      45.742   8.957   0.911  1.00  0.00     0.019 C 
HETATM   10  C5  UNL     1      46.624   8.456   1.998  1.00  0.00     0.007 C 
ENDBRANCH   3   9
BRANCH   8  11
HETATM   11  C11 UNL     1      44.005  10.122  -1.068  1.00  0.00     0.102 C 
HETATM   12  N1  UNL     1      42.874   9.497  -1.231  1.00  0.00    -0.181 N 
HETATM   13  C12 UNL     1      42.500   8.819  -2.422  1.00  0.00     0.676 C 
ATOM     14  H1  UNL     1      42.215   9.492  -0.453  1.00  0.00     0.185 HD
HETATM   15  N2  UNL     1      41.364   8.207  -2.548  1.00  0.00    -0.235 N 
HETATM   16  N3  UNL     1      43.377   8.791  -3.538  1.00  0.00    -0.180 N 
ATOM     17  H22 UNL     1      40.734   8.227  -1.746  1.00  0.00     0.174 HD
ATOM     18  H21 UNL     1      41.096   7.721  -3.403  1.00  0.00     0.174 HD
HETATM   19  C13 UNL     1      44.780   9.096  -3.244  1.00  0.00     0.402 C 
ATOM     20  H3  UNL     1      43.054   8.573  -4.481  1.00  0.00     0.181 HD
HETATM   21  N5  UNL     1      44.879  10.088  -2.193  1.00  0.00    -0.335 N 
ATOM     22  H5  UNL     1      45.610  10.796  -2.261  1.00  0.00     0.164 HD
BRANCH  19  23
HETATM   23  N4  UNL     1      45.433   7.858  -2.926  1.00  0.00    -0.040 N 
ATOM     24  H43 UNL     1      45.097   7.076  -3.487  1.00  0.00     0.279 HD
ATOM     25  H42 UNL     1      46.406   7.832  -3.231  1.00  0.00     0.279 HD
ATOM     26  H41 UNL     1      45.326   7.704  -1.923  1.00  0.00     0.279 HD
ENDBRANCH  19  23
ENDBRANCH   8  11
TORSDOF 3
ENDMDL
MODEL 3
REMARK VINA RESULT: -5.705805130      3.127      4.981
REMARK  3 active torsions:
REMARK  status: ('A' for Active; 'I' for Inactive)
REMARK    1  A    between atoms: C3_3  and  C4_4 
REMARK    2  A    between atoms: C10_10  and  C11_11 
REMARK    3  A    between atoms: C13_20  and  N4_21 
ROOT
HETATM    1  C1  UNL     1      47.146  11.715  -1.331  1.00  0.00     0.013 C 
HETATM    2  C2  UNL     1      46.426  11.262  -0.507  1.00  0.00    -0.106 C 
HETATM    3  C3  UNL     1      45.527  10.728   0.504  1.00  0.00     0.033 C 
HETATM    4  C6  UNL     1      44.116  11.309   0.285  1.00  0.00     0.023 C 
HETATM    5  C7  UNL     1      43.531  10.767  -1.019  1.00  0.00     0.002 C 
HETATM    6  C8  UNL     1      43.459   9.282  -1.048  1.00  0.00     0.001 C 
HETATM    7  C9  UNL     1      44.879   8.752  -0.899  1.00  0.00     0.014 C 
HETATM    8  C10 UNL     1      45.351   9.249   0.474  1.00  0.00     0.074 C 
ENDROOT
BRANCH   3   9
HETATM    9  C4  UNL     1      45.939  11.138   1.883  1.00  0.00     0.019 C 
HETATM   10  C5  UNL     1      45.232  12.330   2.421  1.00  0.00     0.007 C 
ENDBRANCH   3   9
BRANCH   8  11
HETATM   11  C11 UNL     1      46.456   8.443   1.010  1.00  0.00     0.102 C 
HETATM   12  N1  UNL     1      46.373   7.827   2.155  1.00  0.00    -0.181 N 
HETATM   13  C12 UNL     1      47.413   7.038   2.714  1.00  0.00     0.676 C 
ATOM     14  H1  UNL     1      45.507   7.918   2.684  1.00  0.00     0.185 HD
HETATM   15  N2  UNL     1      47.296   6.439   3.857  1.00  0.00    -0.235 N 
HETATM   16  N3  UNL     1      48.643   6.877   2.022  1.00  0.00    -0.180 N 
ATOM     17  H22 UNL     1      46.412   6.555   4.354  1.00  0.00     0.174 HD
ATOM     18  H21 UNL     1      48.043   5.872   4.258  1.00  0.00     0.174 HD
HETATM   19  C13 UNL     1      48.918   7.874   0.985  1.00  0.00     0.402 C 
ATOM     20  H3  UNL     1      49.292   6.118   2.234  1.00  0.00     0.181 HD
HETATM   21  N5  UNL     1      47.693   8.276   0.324  1.00  0.00    -0.335 N 
ATOM     22  H5  UNL     1      47.718   8.448  -0.681  1.00  0.00     0.164 HD
BRANCH  19  23
HETATM   23  N4  UNL     1      49.616   8.962   1.607  1.00  0.00    -0.040 N 
ATOM     24  H43 UNL     1      50.047   9.595   0.933  1.00  0.00     0.279 HD
ATOM     25  H42 UNL     1      48.990   9.639   2.044  1.00  0.00     0.279 HD
ATOM     26  H41 UNL     1      50.288   8.561   2.263  1.00  0.00     0.279 HD
ENDBRANCH  19  23
ENDBRANCH   8  11
TORSDOF 3
ENDMDL
MODEL 4
REMARK VINA RESULT: -5.692576462      3.290      4.936
REMARK  3 active torsions:
REMARK  status: ('A' for Active; 'I' for Inactive)
REMARK    1  A    between atoms: C3_3  and  C4_4 
REMARK    2  A    between atoms: C10_10  and  C11_11 
REMARK    3  A    between atoms: C13_20  and  N4_21 
ROOT
HETATM    1  C1  UNL     1      47.206  11.754  -1.059  1.00  0.00     0.013 C 
HETATM    2  C2  UNL     1      46.469  11.336  -0.230  1.00  0.00    -0.106 C 
HETATM    3  C3  UNL     1      45.547  10.843   0.781  1.00  0.00     0.033 C 
HETATM    4  C6  UNL     1      44.111  11.254   0.401  1.00  0.00     0.023 C 
HETATM    5  C7  UNL     1      43.675  10.504  -0.858  1.00  0.00     0.002 C 
HETATM    6  C8  UNL     1      43.737   9.027  -0.703  1.00  0.00     0.001 C 
HETATM    7  C9  UNL     1      45.183   8.659  -0.398  1.00  0.00     0.014 C 
HETATM    8  C10 UNL     1      45.505   9.361   0.928  1.00  0.00     0.074 C 
ENDROOT
BRANCH   3   9
HETATM    9  C4  UNL     1      45.817  11.455   2.120  1.00  0.00     0.019 C 
HETATM   10  C5  UNL     1      45.072  12.710   2.398  1.00  0.00     0.007 C 
ENDBRANCH   3   9
BRANCH   8  11
HETATM   11  C11 UNL     1      46.633   8.736   1.631  1.00  0.00     0.102 C 
HETATM   12  N1  UNL     1      47.867   8.895   1.242  1.00  0.00    -0.181 N 
HETATM   13  C12 UNL     1      48.989   8.312   1.888  1.00  0.00     0.676 C 
ATOM     14  H1  UNL     1      48.037   9.474   0.420  1.00  0.00     0.185 HD
HETATM   15  N2  UNL     1      50.203   8.492   1.472  1.00  0.00    -0.235 N 
HETATM   16  N3  UNL     1      48.812   7.494   3.036  1.00  0.00    -0.180 N 
ATOM     17  H22 UNL     1      50.330   9.078   0.647  1.00  0.00     0.174 HD
ATOM     18  H21 UNL     1      51.009   8.073   1.936  1.00  0.00     0.174 HD
HETATM   19  C13 UNL     1      47.462   6.961   3.227  1.00  0.00     0.402 C 
ATOM     20  H3  UNL     1      49.575   7.292   3.684  1.00  0.00     0.181 HD
HETATM   21  N5  UNL     1      46.466   7.915   2.783  1.00  0.00    -0.335 N 
ATOM     22  H5  UNL     1      45.604   8.002   3.320  1.00  0.00     0.164 HD
BRANCH  19  23
HETATM   23  N4  UNL     1      47.394   5.702   2.541  1.00  0.00    -0.040 N 
ATOM     24  H43 UNL     1      47.031   5.785   1.592  1.00  0.00     0.279 HD
ATOM     25  H42 UNL     1      48.313   5.330   2.300  1.00  0.00     0.279 HD
ATOM     26  H41 UNL     1      46.847   5.065   3.122  1.00  0.00     0.279 HD
ENDBRANCH  19  23
ENDBRANCH   8  11
TORSDOF 3
ENDMDL
MODEL 5
REMARK VINA RESULT: -5.673458968      2.703      4.396
REMARK  3 active torsions:
REMARK  status: ('A' for Active; 'I' for Inactive)
REMARK    1  A    between atoms: C3_3  and  C4_4 
REMARK    2  A    between atoms: C10_10  and  C11_11 
REMARK    3  A    between atoms: C13_20  and  N4_21 
ROOT
HETATM    1  C1  UNL     1      44.290  12.011   1.877  1.00  0.00     0.013 C 
HETATM    2  C2  UNL     1      44.327  11.377   0.877  1.00  0.00    -0.106 C 
HETATM    3  C3  UNL     1      44.350  10.608  -0.358  1.00  0.00     0.033 C 
HETATM    4  C6  UNL     1      43.585  11.383  -1.450  1.00  0.00     0.023 C 
HETATM    5  C7  UNL     1      44.353  12.651  -1.819  1.00  0.00     0.002 C 
HETATM    6  C8  UNL     1      45.735  12.374  -2.292  1.00  0.00     0.001 C 
HETATM    7  C9  UNL     1      46.475  11.673  -1.160  1.00  0.00     0.014 C 
HETATM    8  C10 UNL     1      45.706  10.367  -0.926  1.00  0.00     0.074 C 
ENDROOT
BRANCH   3   9
HETATM    9  C4  UNL     1      43.648   9.296  -0.205  1.00  0.00     0.019 C 
HETATM   10  C5  UNL     1      42.871   8.857  -1.394  1.00  0.00     0.007 C 
ENDBRANCH   3   9
BRANCH   8  11
HETATM   11  C11 UNL     1      46.527   9.347  -0.260  1.00  0.00     0.102 C 
HETATM   12  N1  UNL     1      46.750   8.180  -0.792  1.00  0.00    -0.181 N 
HETATM   13  C12 UNL     1      47.536   7.163  -0.187  1.00  0.00     0.676 C 
ATOM     14  H1  UNL     1      46.334   7.983  -1.702  1.00  0.00     0.185 HD
HETATM   15  N2  UNL     1      47.737   6.011  -0.747  1.00  0.00    -0.235 N 
HETATM   16  N3  UNL     1      48.139   7.380   1.080  1.00  0.00    -0.180 N 
ATOM     17  H22 UNL     1      47.303   5.855  -1.657  1.00  0.00     0.174 HD
ATOM     18  H21 UNL     1      48.301   5.281  -0.312  1.00  0.00     0.174 HD
HETATM   19  C13 UNL     1      47.568   8.473   1.871  1.00  0.00     0.402 C 
ATOM     20  H3  UNL     1      48.919   6.814   1.417  1.00  0.00     0.181 HD
HETATM   21  N5  UNL     1      47.136   9.556   1.011  1.00  0.00    -0.335 N 
ATOM     22  H5  UNL     1      47.274  10.514   1.332  1.00  0.00     0.164 HD
BRANCH  19  23
HETATM   23  N4  UNL     1      46.511   7.920   2.669  1.00  0.00    -0.040 N 
ATOM     24  H43 UNL     1      45.952   7.230   2.167  1.00  0.00     0.279 HD
ATOM     25  H42 UNL     1      46.851   7.303   3.408  1.00  0.00     0.279 HD
ATOM     26  H41 UNL     1      45.956   8.699   3.026  1.00  0.00     0.279 HD
ENDBRANCH  19  23
ENDBRANCH   8  11
TORSDOF 3
ENDMDL
