MODEL 1
REMARK VINA RESULT: -5.355864103      0.000      0.000
REMARK  6 active torsions:
REMARK  status: ('A' for Active; 'I' for Inactive)
REMARK    1  A    between atoms: C2_2  and  C4_4 
REMARK    2  A    between atoms: C10_10  and  C11_11 
REMARK    3  A    between atoms: C10_10  and  C12_14 
REMARK    4  A    between atoms: C11_11  and  O1_12 
REMARK    5  A    between atoms: C12_14  and  O2_15 
REMARK    6  A    between atoms: C16_20  and  O3_21 
ROOT
HETATM    1  C4  UNL     1      43.802  12.614   0.038  1.00  0.00     0.018 C 
HETATM    2  C5  UNL     1      44.056  11.980   1.353  1.00  0.00     0.012 C 
HETATM    3  C6  UNL     1      45.461  11.611   1.646  1.00  0.00    -0.014 C 
HETATM    4  C7  UNL     1      46.114  12.587   2.635  1.00  0.00     0.010 C 
HETATM    5  C8  UNL     1      46.361  11.519   0.471  1.00  0.00    -0.003 C 
HETATM    6  C9  UNL     1      47.289  10.339   0.669  1.00  0.00     0.019 C 
HETATM    7  C10 UNL     1      46.673   9.169  -0.060  1.00  0.00     0.006 C 
HETATM    8  C13 UNL     1      45.413   9.690  -0.650  1.00  0.00     0.001 C 
HETATM    9  C14 UNL     1      44.914   8.987  -1.854  1.00  0.00     0.011 C 
HETATM   10  C15 UNL     1      45.665  11.153  -0.817  1.00  0.00     0.024 C 
HETATM   11  C16 UNL     1      44.485  11.986  -1.127  1.00  0.00     0.127 C 
ENDROOT
BRANCH   7  12
HETATM   12  C11 UNL     1      47.663   8.618  -1.033  1.00  0.00     0.176 C 
BRANCH  12  13
HETATM   13  O1  UNL     1      47.923   7.271  -0.885  1.00  0.00    -0.400 OA
ATOM     14  H1  UNL     1      47.187   6.703  -1.078  1.00  0.00     0.209 HD
ENDBRANCH  12  13
ENDBRANCH   7  12
BRANCH   7  15
HETATM   15  C12 UNL     1      46.309   8.042   0.901  1.00  0.00     0.176 C 
BRANCH  15  16
HETATM   16  O2  UNL     1      47.144   7.967   1.981  1.00  0.00    -0.400 OA
ATOM     17  H2  UNL     1      47.183   8.775   2.481  1.00  0.00     0.209 HD
ENDBRANCH  15  16
ENDBRANCH   7  15
BRANCH  11  18
HETATM   18  O3  UNL     1      43.592  11.216  -1.900  1.00  0.00    -0.395 OA
ATOM     19  H3  UNL     1      44.010  10.434  -2.241  1.00  0.00     0.210 HD
ENDBRANCH  11  18
BRANCH   1  20
HETATM   20  C2  UNL     1      44.036  14.133   0.074  1.00  0.00    -0.016 C 
HETATM   21  C1  UNL     1      43.487  14.622   1.412  1.00  0.00     0.010 C 
HETATM   22  C3  UNL     1      43.148  14.725  -1.002  1.00  0.00     0.010 C 
ENDBRANCH   1  20
TORSDOF 6
ENDMDL
MODEL 2
REMARK VINA RESULT: -5.261637624      2.145      3.289
REMARK  6 active torsions:
REMARK  status: ('A' for Active; 'I' for Inactive)
REMARK    1  A    between atoms: C2_2  and  C4_4 
REMARK    2  A    between atoms: C10_10  and  C11_11 
REMARK    3  A    between atoms: C10_10  and  C12_14 
REMARK    4  A    between atoms: C11_11  and  O1_12 
REMARK    5  A    between atoms: C12_14  and  O2_15 
REMARK    6  A    between atoms: C16_20  and  O3_21 
ROOT
HETATM    1  C4  UNL     1      43.849   9.227  -1.883  1.00  0.00     0.018 C 
HETATM    2  C5  UNL     1      43.820   9.302  -0.404  1.00  0.00     0.012 C 
HETATM    3  C6  UNL     1      44.772  10.248   0.226  1.00  0.00    -0.014 C 
HETATM    4  C7  UNL     1      44.071  11.521   0.720  1.00  0.00     0.010 C 
HETATM    5  C8  UNL     1      45.907  10.681  -0.624  1.00  0.00    -0.003 C 
HETATM    6  C9  UNL     1      47.151  10.757   0.237  1.00  0.00     0.019 C 
HETATM    7  C10 UNL     1      47.883   9.448   0.067  1.00  0.00     0.006 C 
HETATM    8  C13 UNL     1      47.053   8.651  -0.873  1.00  0.00     0.001 C 
HETATM    9  C14 UNL     1      47.766   7.618  -1.661  1.00  0.00     0.011 C 
HETATM   10  C15 UNL     1      46.317   9.675  -1.672  1.00  0.00     0.024 C 
HETATM   11  C16 UNL     1      45.203   9.177  -2.503  1.00  0.00     0.127 C 
ENDROOT
BRANCH   7  12
HETATM   12  C11 UNL     1      49.282   9.721  -0.379  1.00  0.00     0.176 C 
BRANCH  12  13
HETATM   13  O1  UNL     1      50.174   9.960   0.647  1.00  0.00    -0.400 OA
ATOM     14  H1  UNL     1      50.892  10.539   0.419  1.00  0.00     0.209 HD
ENDBRANCH  12  13
ENDBRANCH   7  12
BRANCH   7  15
HETATM   15  C12 UNL     1      47.969   8.681   1.382  1.00  0.00     0.176 C 
BRANCH  15  16
HETATM   16  O2  UNL     1      47.743   9.468   2.478  1.00  0.00    -0.400 OA
ATOM     17  H2  UNL     1      47.488   8.972   3.247  1.00  0.00     0.209 HD
ENDBRANCH  15  16
ENDBRANCH   7  15
BRANCH  11  18
HETATM   18  O3  UNL     1      45.526   7.877  -2.940  1.00  0.00    -0.395 OA
ATOM     19  H3  UNL     1      45.014   7.626  -3.700  1.00  0.00     0.210 HD
ENDBRANCH  11  18
BRANCH   1  20
HETATM   20  C2  UNL     1      42.973  10.309  -2.534  1.00  0.00    -0.016 C 
HETATM   21  C1  UNL     1      41.644   9.641  -2.874  1.00  0.00     0.010 C 
HETATM   22  C3  UNL     1      43.635  10.655  -3.854  1.00  0.00     0.010 C 
ENDBRANCH   1  20
TORSDOF 6
ENDMDL
MODEL 3
REMARK VINA RESULT: -4.918760688      1.575      2.149
REMARK  6 active torsions:
REMARK  status: ('A' for Active; 'I' for Inactive)
REMARK    1  A    between atoms: C2_2  and  C4_4 
REMARK    2  A    between atoms: C10_10  and  C11_11 
REMARK    3  A    between atoms: C10_10  and  C12_14 
REMARK    4  A    between atoms: C11_11  and  O1_12 
REMARK    5  A    between atoms: C12_14  and  O2_15 
REMARK    6  A    between atoms: C16_20  and  O3_21 
ROOT
HETATM    1  C4  UNL     1      44.346  11.829  -1.912  1.00  0.00     0.018 C 
HETATM    2  C5  UNL     1      43.729  11.300  -0.674  1.00  0.00     0.012 C 
HETATM    3  C6  UNL     1      44.559  11.359   0.553  1.00  0.00    -0.014 C 
HETATM    4  C7  UNL     1      44.109  12.485   1.495  1.00  0.00     0.010 C 
HETATM    5  C8  UNL     1      46.016  11.532   0.337  1.00  0.00    -0.003 C 
HETATM    6  C9  UNL     1      46.756  10.676   1.344  1.00  0.00     0.019 C 
HETATM    7  C10 UNL     1      47.088   9.375   0.653  1.00  0.00     0.006 C 
HETATM    8  C13 UNL     1      46.535   9.504  -0.719  1.00  0.00     0.001 C 
HETATM    9  C14 UNL     1      47.185   8.683  -1.767  1.00  0.00     0.011 C 
HETATM   10  C15 UNL     1      46.520  10.976  -0.972  1.00  0.00     0.024 C 
HETATM   11  C16 UNL     1      45.760  11.427  -2.155  1.00  0.00     0.127 C 
ENDROOT
BRANCH   7  12
HETATM   12  C11 UNL     1      48.560   9.137   0.736  1.00  0.00     0.176 C 
BRANCH  12  13
HETATM   13  O1  UNL     1      49.044   8.979   2.019  1.00  0.00    -0.400 OA
ATOM     14  H1  UNL     1      49.602   8.220   2.140  1.00  0.00     0.209 HD
ENDBRANCH  12  13
ENDBRANCH   7  12
BRANCH   7  15
HETATM   15  C12 UNL     1      46.400   8.193   1.327  1.00  0.00     0.176 C 
BRANCH  15  16
HETATM   16  O2  UNL     1      47.175   7.066   1.355  1.00  0.00    -0.400 OA
ATOM     17  H2  UNL     1      47.894   7.123   1.974  1.00  0.00     0.209 HD
ENDBRANCH  15  16
ENDBRANCH   7  15
BRANCH  11  18
HETATM   18  O3  UNL     1      45.852  10.428  -3.146  1.00  0.00    -0.395 OA
ATOM     19  H3  UNL     1      45.959  10.803  -4.012  1.00  0.00     0.210 HD
ENDBRANCH  11  18
BRANCH   1  20
HETATM   20  C2  UNL     1      44.165  13.350  -2.043  1.00  0.00    -0.016 C 
HETATM   21  C1  UNL     1      42.849  13.566  -2.785  1.00  0.00     0.010 C 
HETATM   22  C3  UNL     1      45.268  13.831  -2.966  1.00  0.00     0.010 C 
ENDBRANCH   1  20
TORSDOF 6
ENDMDL
MODEL 4
REMARK VINA RESULT: -4.569201568      1.994      5.048
REMARK  6 active torsions:
REMARK  status: ('A' for Active; 'I' for Inactive)
REMARK    1  A    between atoms: C2_2  and  C4_4 
REMARK    2  A    between atoms: C10_10  and  C11_11 
REMARK    3  A    between atoms: C10_10  and  C12_14 
REMARK    4  A    between atoms: C11_11  and  O1_12 
REMARK    5  A    between atoms: C12_14  and  O2_15 
REMARK    6  A    between atoms: C16_20  and  O3_21 
ROOT
HETATM    1  C4  UNL     1      47.790   9.418   0.111  1.00  0.00     0.018 C 
HETATM    2  C5  UNL     1      47.478  10.866   0.084  1.00  0.00     0.012 C 
HETATM    3  C6  UNL     1      46.077  11.244   0.392  1.00  0.00    -0.014 C 
HETATM    4  C7  UNL     1      45.941  11.827   1.805  1.00  0.00     0.010 C 
HETATM    5  C8  UNL     1      45.076  10.157   0.272  1.00  0.00    -0.003 C 
HETATM    6  C9  UNL     1      43.813  10.733  -0.334  1.00  0.00     0.019 C 
HETATM    7  C10 UNL     1      43.877  10.461  -1.818  1.00  0.00     0.006 C 
HETATM    8  C13 UNL     1      45.162   9.749  -2.035  1.00  0.00     0.001 C 
HETATM    9  C14 UNL     1      45.230   8.868  -3.224  1.00  0.00     0.011 C 
HETATM   10  C15 UNL     1      45.439   9.086  -0.726  1.00  0.00     0.024 C 
HETATM   11  C16 UNL     1      46.795   8.528  -0.551  1.00  0.00     0.127 C 
ENDROOT
BRANCH   7  12
HETATM   12  C11 UNL     1      42.649   9.720  -2.236  1.00  0.00     0.176 C 
BRANCH  12  13
HETATM   13  O1  UNL     1      41.847  10.397  -3.132  1.00  0.00    -0.400 OA
ATOM     14  H1  UNL     1      42.141  10.357  -4.034  1.00  0.00     0.209 HD
ENDBRANCH  12  13
ENDBRANCH   7  12
BRANCH   7  15
HETATM   15  C12 UNL     1      43.917  11.756  -2.622  1.00  0.00     0.176 C 
BRANCH  15  16
HETATM   16  O2  UNL     1      43.249  12.785  -2.017  1.00  0.00    -0.400 OA
ATOM     17  H2  UNL     1      42.877  13.403  -2.635  1.00  0.00     0.209 HD
ENDBRANCH  15  16
ENDBRANCH   7  15
BRANCH  11  18
HETATM   18  O3  UNL     1      47.254   8.082  -1.807  1.00  0.00    -0.395 OA
ATOM     19  H3  UNL     1      47.580   7.191  -1.764  1.00  0.00     0.210 HD
ENDBRANCH  11  18
BRANCH   1  20
HETATM   20  C2  UNL     1      48.126   8.927   1.528  1.00  0.00    -0.016 C 
HETATM   21  C1  UNL     1      49.613   8.584   1.524  1.00  0.00     0.010 C 
HETATM   22  C3  UNL     1      47.380   7.620   1.713  1.00  0.00     0.010 C 
ENDBRANCH   1  20
TORSDOF 6
ENDMDL
MODEL 5
REMARK VINA RESULT: -4.553016554      1.919      3.656
REMARK  6 active torsions:
REMARK  status: ('A' for Active; 'I' for Inactive)
REMARK    1  A    between atoms: C2_2  and  C4_4 
REMARK    2  A    between atoms: C10_10  and  C11_11 
REMARK    3  A    between atoms: C10_10  and  C12_14 
REMARK    4  A    between atoms: C11_11  and  O1_12 
REMARK    5  A    between atoms: C12_14  and  O2_15 
REMARK    6  A    between atoms: C16_20  and  O3_21 
ROOT
HETATM    1  C4  UNL     1      45.886  11.509  -0.023  1.00  0.00     0.018 C 
HETATM    2  C5  UNL     1      46.605  11.504  -1.319  1.00  0.00     0.012 C 
HETATM    3  C6  UNL     1      46.557  10.241  -2.093  1.00  0.00    -0.014 C 
HETATM    4  C7  UNL     1      45.592  10.337  -3.284  1.00  0.00     0.010 C 
HETATM    5  C8  UNL     1      46.180   9.029  -1.327  1.00  0.00    -0.003 C 
HETATM    6  C9  UNL     1      47.026   7.871  -1.813  1.00  0.00     0.019 C 
HETATM    7  C10 UNL     1      48.202   7.762  -0.872  1.00  0.00     0.006 C 
HETATM    8  C13 UNL     1      48.016   8.851   0.121  1.00  0.00     0.001 C 
HETATM    9  C14 UNL     1      48.644   8.643   1.446  1.00  0.00     0.011 C 
HETATM   10  C15 UNL     1      46.541   9.083   0.137  1.00  0.00     0.024 C 
HETATM   11  C16 UNL     1      46.080  10.303   0.830  1.00  0.00     0.127 C 
ENDROOT
BRANCH   7  12
HETATM   12  C11 UNL     1      48.258   6.379  -0.312  1.00  0.00     0.176 C 
BRANCH  12  13
HETATM   13  O1  UNL     1      47.864   5.388  -1.188  1.00  0.00    -0.400 OA
ATOM     14  H1  UNL     1      48.565   5.028  -1.718  1.00  0.00     0.209 HD
ENDBRANCH  12  13
ENDBRANCH   7  12
BRANCH   7  15
HETATM   15  C12 UNL     1      49.521   8.010  -1.596  1.00  0.00     0.176 C 
BRANCH  15  16
HETATM   16  O2  UNL     1      50.384   6.952  -1.515  1.00  0.00    -0.400 OA
ATOM     17  H2  UNL     1      50.803   6.748  -2.344  1.00  0.00     0.209 HD
ENDBRANCH  15  16
ENDBRANCH   7  15
BRANCH  11  18
HETATM   18  O3  UNL     1      46.960  10.562   1.901  1.00  0.00    -0.395 OA
ATOM     19  H3  UNL     1      46.705  10.091   2.685  1.00  0.00     0.210 HD
ENDBRANCH  11  18
BRANCH   1  20
HETATM   20  C2  UNL     1      44.395  11.843  -0.191  1.00  0.00    -0.016 C 
HETATM   21  C1  UNL     1      44.326  13.043  -1.132  1.00  0.00     0.010 C 
HETATM   22  C3  UNL     1      43.913  12.325   1.163  1.00  0.00     0.010 C 
ENDBRANCH   1  20
TORSDOF 6
ENDMDL
