MODEL 1
REMARK VINA RESULT: -6.266419298      0.000      0.000
REMARK  1 active torsions:
REMARK  status: ('A' for Active; 'I' for Inactive)
REMARK    1  A    between atoms: N1_2  and  C2_5 
ROOT
HETATM    1  C2  UNL     1      44.798  14.872   2.394  1.00  0.00     0.190 C 
HETATM    2  C3  UNL     1      45.439  14.186   3.548  1.00  0.00     0.033 C 
HETATM    3  C4  UNL     1      46.160  12.932   3.140  1.00  0.00     0.002 C 
HETATM    4  C5  UNL     1      45.366  12.066   2.199  1.00  0.00     0.007 C 
HETATM    5  C6  UNL     1      45.018  12.901   0.987  1.00  0.00     0.022 C 
HETATM    6  C7  UNL     1      44.027  13.937   1.465  1.00  0.00     0.024 C 
HETATM    7  C8  UNL     1      43.490  14.806   0.359  1.00  0.00     0.028 C 
HETATM    8  C9  UNL     1      43.584  14.180  -1.005  1.00  0.00     0.118 C 
HETATM    9  C10 UNL     1      42.603  14.807  -1.875  1.00  0.00     0.066 C 
HETATM   10  N2  UNL     1      41.818  15.329  -2.566  1.00  0.00    -0.197 NA
HETATM   11  C11 UNL     1      43.454  12.674  -0.977  1.00  0.00     0.132 C 
HETATM   12  N3  UNL     1      43.767  12.223  -2.329  1.00  0.00    -0.335 N 
ATOM     13  H3  UNL     1      43.113  11.900  -3.041  1.00  0.00     0.164 HD
HETATM   14  C12 UNL     1      45.185  12.329  -2.438  1.00  0.00     0.317 C 
HETATM   15  O1  UNL     1      45.862  12.595  -3.491  1.00  0.00    -0.247 OA
HETATM   16  N4  UNL     1      45.730  12.085  -1.146  1.00  0.00    -0.332 N 
ATOM     17  H4  UNL     1      46.712  11.923  -0.924  1.00  0.00     0.165 HD
HETATM   18  C13 UNL     1      44.605  12.112  -0.189  1.00  0.00     0.056 C 
HETATM   19  C14 UNL     1      44.269  10.656   0.101  1.00  0.00     0.041 C 
ENDROOT
BRANCH   1  20
HETATM   20  N1  UNL     1      43.913  15.935   2.786  1.00  0.00    -0.074 N 
HETATM   21  C1  UNL     1      44.081  16.324   4.183  1.00  0.00     0.267 C 
ATOM     22  H12 UNL     1      42.942  15.694   2.589  1.00  0.00     0.277 HD
ATOM     23  H11 UNL     1      44.013  16.740   2.168  1.00  0.00     0.277 HD
ENDBRANCH   1  20
TORSDOF 1
ENDMDL
MODEL 2
REMARK VINA RESULT: -5.990891228      2.557      4.416
REMARK  1 active torsions:
REMARK  status: ('A' for Active; 'I' for Inactive)
REMARK    1  A    between atoms: N1_2  and  C2_5 
ROOT
HETATM    1  C2  UNL     1      45.021  12.747   1.970  1.00  0.00     0.190 C 
HETATM    2  C3  UNL     1      44.462  14.113   1.782  1.00  0.00     0.033 C 
HETATM    3  C4  UNL     1      43.489  14.182   0.639  1.00  0.00     0.002 C 
HETATM    4  C5  UNL     1      43.973  13.478  -0.600  1.00  0.00     0.007 C 
HETATM    5  C6  UNL     1      44.263  12.040  -0.230  1.00  0.00     0.022 C 
HETATM    6  C7  UNL     1      45.474  12.078   0.674  1.00  0.00     0.024 C 
HETATM    7  C8  UNL     1      45.970  10.712   1.068  1.00  0.00     0.028 C 
HETATM    8  C9  UNL     1      45.564   9.621   0.115  1.00  0.00     0.118 C 
HETATM    9  C10 UNL     1      46.489   8.510   0.258  1.00  0.00     0.066 C 
HETATM   10  N2  UNL     1      47.234   7.618   0.392  1.00  0.00    -0.197 NA
HETATM   11  C11 UNL     1      45.446  10.096  -1.315  1.00  0.00     0.132 C 
HETATM   12  N3  UNL     1      44.858   8.985  -2.056  1.00  0.00    -0.335 N 
ATOM     13  H3  UNL     1      45.332   8.344  -2.692  1.00  0.00     0.164 HD
HETATM   14  C12 UNL     1      43.478   8.988  -1.697  1.00  0.00     0.317 C 
HETATM   15  O1  UNL     1      42.699   7.976  -1.607  1.00  0.00    -0.247 OA
HETATM   16  N4  UNL     1      43.106  10.339  -1.451  1.00  0.00    -0.332 N 
ATOM     17  H4  UNL     1      42.157  10.696  -1.341  1.00  0.00     0.165 HD
HETATM   18  C13 UNL     1      44.354  11.127  -1.385  1.00  0.00     0.056 C 
HETATM   19  C14 UNL     1      44.485  11.815  -2.737  1.00  0.00     0.041 C 
ENDROOT
BRANCH   1  20
HETATM   20  N1  UNL     1      46.119  12.706   2.897  1.00  0.00    -0.074 N 
HETATM   21  C1  UNL     1      46.237  13.928   3.688  1.00  0.00     0.267 C 
ATOM     22  H12 UNL     1      46.995  12.497   2.417  1.00  0.00     0.277 HD
ATOM     23  H11 UNL     1      46.059  11.885   3.498  1.00  0.00     0.277 HD
ENDBRANCH   1  20
TORSDOF 1
ENDMDL
MODEL 3
REMARK VINA RESULT: -5.530430228      1.505      1.701
REMARK  1 active torsions:
REMARK  status: ('A' for Active; 'I' for Inactive)
REMARK    1  A    between atoms: N1_2  and  C2_5 
ROOT
HETATM    1  C2  UNL     1      44.429  13.979   1.242  1.00  0.00     0.190 C 
HETATM    2  C3  UNL     1      45.008  13.592   2.557  1.00  0.00     0.033 C 
HETATM    3  C4  UNL     1      45.885  12.375   2.460  1.00  0.00     0.002 C 
HETATM    4  C5  UNL     1      45.280  11.267   1.639  1.00  0.00     0.007 C 
HETATM    5  C6  UNL     1      44.982  11.823   0.264  1.00  0.00     0.022 C 
HETATM    6  C7  UNL     1      43.852  12.809   0.449  1.00  0.00     0.024 C 
HETATM    7  C8  UNL     1      43.352  13.395  -0.845  1.00  0.00     0.028 C 
HETATM    8  C9  UNL     1      43.647  12.546  -2.051  1.00  0.00     0.118 C 
HETATM    9  C10 UNL     1      42.708  12.888  -3.104  1.00  0.00     0.066 C 
HETATM   10  N2  UNL     1      41.952  13.183  -3.946  1.00  0.00    -0.197 NA
HETATM   11  C11 UNL     1      43.661  11.065  -1.745  1.00  0.00     0.132 C 
HETATM   12  N3  UNL     1      44.154  10.414  -2.953  1.00  0.00    -0.335 N 
ATOM     13  H3  UNL     1      43.612   9.895  -3.643  1.00  0.00     0.164 HD
HETATM   14  C12 UNL     1      45.559  10.660  -2.960  1.00  0.00     0.317 C 
HETATM   15  O1  UNL     1      46.314  10.804  -3.984  1.00  0.00    -0.247 OA
HETATM   16  N4  UNL     1      45.987  10.718  -1.605  1.00  0.00    -0.332 N 
ATOM     17  H4  UNL     1      46.952  10.712  -1.274  1.00  0.00     0.165 HD
HETATM   18  C13 UNL     1      44.771  10.791  -0.769  1.00  0.00     0.056 C 
HETATM   19  C14 UNL     1      44.548   9.383  -0.233  1.00  0.00     0.041 C 
ENDROOT
BRANCH   1  20
HETATM   20  N1  UNL     1      43.410  14.988   1.347  1.00  0.00    -0.074 N 
HETATM   21  C1  UNL     1      43.491  15.747   2.592  1.00  0.00     0.267 C 
ATOM     22  H12 UNL     1      42.481  14.584   1.225  1.00  0.00     0.277 HD
ATOM     23  H11 UNL     1      43.427  15.610   0.538  1.00  0.00     0.277 HD
ENDBRANCH   1  20
TORSDOF 1
ENDMDL
MODEL 4
REMARK VINA RESULT: -5.479645122      3.348      5.221
REMARK  1 active torsions:
REMARK  status: ('A' for Active; 'I' for Inactive)
REMARK    1  A    between atoms: N1_2  and  C2_5 
ROOT
HETATM    1  C2  UNL     1      46.060  10.427   0.990  1.00  0.00     0.190 C 
HETATM    2  C3  UNL     1      45.607  11.545   1.861  1.00  0.00     0.033 C 
HETATM    3  C4  UNL     1      44.246  12.053   1.479  1.00  0.00     0.002 C 
HETATM    4  C5  UNL     1      44.075  12.245  -0.005  1.00  0.00     0.007 C 
HETATM    5  C6  UNL     1      44.359  10.920  -0.676  1.00  0.00     0.022 C 
HETATM    6  C7  UNL     1      45.840  10.673  -0.501  1.00  0.00     0.024 C 
HETATM    7  C8  UNL     1      46.326   9.431  -1.199  1.00  0.00     0.028 C 
HETATM    8  C9  UNL     1      45.446   8.989  -2.336  1.00  0.00     0.118 C 
HETATM    9  C10 UNL     1      46.231   8.170  -3.243  1.00  0.00     0.066 C 
HETATM   10  N2  UNL     1      46.872   7.503  -3.957  1.00  0.00    -0.197 NA
HETATM   11  C11 UNL     1      44.763  10.141  -3.040  1.00  0.00     0.132 C 
HETATM   12  N3  UNL     1      43.810   9.534  -3.963  1.00  0.00    -0.335 N 
ATOM     13  H3  UNL     1      43.897   9.445  -4.974  1.00  0.00     0.164 HD
HETATM   14  C12 UNL     1      42.730   9.092  -3.143  1.00  0.00     0.317 C 
HETATM   15  O1  UNL     1      41.976   8.076  -3.339  1.00  0.00    -0.247 OA
HETATM   16  N4  UNL     1      42.631   9.993  -2.047  1.00  0.00    -0.332 N 
ATOM     17  H4  UNL     1      41.863  10.053  -1.379  1.00  0.00     0.165 HD
HETATM   18  C13 UNL     1      43.852  10.825  -2.059  1.00  0.00     0.056 C 
HETATM   19  C14 UNL     1      43.448  12.152  -2.686  1.00  0.00     0.041 C 
ENDROOT
BRANCH   1  20
HETATM   20  N1  UNL     1      47.443  10.083   1.182  1.00  0.00    -0.074 N 
HETATM   21  C1  UNL     1      47.623   8.944   2.078  1.00  0.00     0.267 C 
ATOM     22  H12 UNL     1      47.979  10.889   1.505  1.00  0.00     0.277 HD
ATOM     23  H11 UNL     1      47.907   9.922   0.289  1.00  0.00     0.277 HD
ENDBRANCH   1  20
TORSDOF 1
ENDMDL
MODEL 5
REMARK VINA RESULT: -5.447929802      1.691      2.494
REMARK  1 active torsions:
REMARK  status: ('A' for Active; 'I' for Inactive)
REMARK    1  A    between atoms: N1_2  and  C2_5 
ROOT
HETATM    1  C2  UNL     1      44.029  13.808   0.823  1.00  0.00     0.190 C 
HETATM    2  C3  UNL     1      44.114  12.538   1.594  1.00  0.00     0.033 C 
HETATM    3  C4  UNL     1      44.551  11.380   0.743  1.00  0.00     0.002 C 
HETATM    4  C5  UNL     1      43.845  11.313  -0.585  1.00  0.00     0.007 C 
HETATM    5  C6  UNL     1      44.087  12.625  -1.300  1.00  0.00     0.022 C 
HETATM    6  C7  UNL     1      43.322  13.671  -0.523  1.00  0.00     0.024 C 
HETATM    7  C8  UNL     1      43.368  15.037  -1.154  1.00  0.00     0.028 C 
HETATM    8  C9  UNL     1      43.663  15.016  -2.629  1.00  0.00     0.118 C 
HETATM    9  C10 UNL     1      43.170  16.247  -3.221  1.00  0.00     0.066 C 
HETATM   10  N2  UNL     1      42.778  17.248  -3.681  1.00  0.00    -0.197 NA
HETATM   11  C11 UNL     1      43.127  13.784  -3.323  1.00  0.00     0.132 C 
HETATM   12  N3  UNL     1      43.667  13.824  -4.678  1.00  0.00    -0.335 N 
ATOM     13  H3  UNL     1      43.174  14.075  -5.534  1.00  0.00     0.164 HD
HETATM   14  C12 UNL     1      45.033  13.437  -4.545  1.00  0.00     0.317 C 
HETATM   15  O1  UNL     1      46.021  13.830  -5.258  1.00  0.00    -0.247 OA
HETATM   16  N4  UNL     1      45.112  12.521  -3.460  1.00  0.00    -0.332 N 
ATOM     17  H4  UNL     1      45.911  11.936  -3.217  1.00  0.00     0.165 HD
HETATM   18  C13 UNL     1      43.817  12.577  -2.750  1.00  0.00     0.056 C 
HETATM   19  C14 UNL     1      43.032  11.359  -3.217  1.00  0.00     0.041 C 
ENDROOT
BRANCH   1  20
HETATM   20  N1  UNL     1      43.393  14.872   1.551  1.00  0.00    -0.074 N 
HETATM   21  C1  UNL     1      44.216  15.379   2.645  1.00  0.00     0.267 C 
ATOM     22  H12 UNL     1      42.474  14.586   1.888  1.00  0.00     0.277 HD
ATOM     23  H11 UNL     1      43.112  15.626   0.925  1.00  0.00     0.277 HD
ENDBRANCH   1  20
TORSDOF 1
ENDMDL
