MODEL 1
REMARK VINA RESULT: -6.796516417      0.000      0.000
REMARK  4 active torsions:
REMARK  status: ('A' for Active; 'I' for Inactive)
REMARK    1  A    between atoms: C3_5  and  N2_6 
REMARK    2  A    between atoms: N2_6  and  C4_8 
REMARK    3  A    between atoms: C7_13  and  N4_14 
REMARK    4  A    between atoms: N4_14  and  C8_16 
ROOT
HETATM    1  C4  UNL     1       9.294  45.451  19.369  1.00  0.00     0.698 A 
HETATM    2  N3  UNL     1       8.768  45.694  18.154  1.00  0.00    -0.201 N 
ATOM      3  H3  UNL     1       7.797  46.000  18.093  1.00  0.00     0.183 HD
HETATM    4  C5  UNL     1       9.476  45.548  17.012  1.00  0.00     0.110 A 
HETATM    5  C6  UNL     1      10.784  45.132  17.145  1.00  0.00     0.066 A 
HETATM    6  C7  UNL     1      11.332  44.881  18.386  1.00  0.00     0.122 A 
HETATM    7  N6  UNL     1      10.571  45.046  19.484  1.00  0.00    -0.176 N 
ATOM      8  H6  UNL     1      10.964  44.864  20.407  1.00  0.00     0.186 HD
ENDROOT
BRANCH   1   9
HETATM    9  N2  UNL     1       8.566  45.607  20.447  1.00  0.00    -0.021 N 
ATOM     10  H2  UNL     1       7.920  44.876  20.748  1.00  0.00     0.203 HD
BRANCH   9  11
HETATM   11  C3  UNL     1       8.693  46.813  21.189  1.00  0.00     0.712 A 
HETATM   12  N1  UNL     1       9.467  47.882  20.927  1.00  0.00    -0.178 N 
HETATM   13  C2  UNL     1       9.306  48.825  21.868  1.00  0.00     0.108 A 
ATOM     14  H1  UNL     1      10.091  47.964  20.124  1.00  0.00     0.185 HD
HETATM   15  C1  UNL     1       9.986  50.167  21.944  1.00  0.00     0.091 C 
HETATM   16  N8  UNL     1       8.410  48.338  22.739  1.00  0.00    -0.275 N 
HETATM   17  N7  UNL     1       8.050  47.136  22.323  1.00  0.00    -0.130 N 
ATOM     18  H8  UNL     1       8.068  48.812  23.574  1.00  0.00     0.189 HD
ATOM     19  H7  UNL     1       7.376  46.535  22.799  1.00  0.00     0.205 HD
ENDBRANCH   9  11
ENDBRANCH   1   9
BRANCH   6  20
HETATM   20  N4  UNL     1      12.546  44.492  18.560  1.00  0.00    -0.341 N 
ATOM     21  H4  UNL     1      12.742  43.538  18.862  1.00  0.00     0.167 HD
BRANCH  20  22
HETATM   22  C8  UNL     1      13.613  45.407  18.326  1.00  0.00     0.049 A 
HETATM   23  C9  UNL     1      13.664  46.091  17.123  1.00  0.00     0.032 A 
HETATM   24  C10 UNL     1      14.677  46.965  16.890  1.00  0.00     0.019 A 
HETATM   25  C11 UNL     1      15.645  47.160  17.865  1.00  0.00     0.088 A 
HETATM   26  N5  UNL     1      15.617  46.511  19.039  1.00  0.00    -0.373 N 
HETATM   27  C12 UNL     1      14.603  45.644  19.255  1.00  0.00     0.117 A 
ATOM     28  H5  UNL     1      16.336  46.667  19.745  1.00  0.00     0.164 HD
ENDBRANCH  20  22
ENDBRANCH   6  20
TORSDOF 4
ENDMDL
MODEL 2
REMARK VINA RESULT: -6.532022142      3.263      6.068
REMARK  4 active torsions:
REMARK  status: ('A' for Active; 'I' for Inactive)
REMARK    1  A    between atoms: C3_5  and  N2_6 
REMARK    2  A    between atoms: N2_6  and  C4_8 
REMARK    3  A    between atoms: C7_13  and  N4_14 
REMARK    4  A    between atoms: N4_14  and  C8_16 
ROOT
HETATM    1  C4  UNL     1      14.618  47.819  17.086  1.00  0.00     0.698 A 
HETATM    2  N3  UNL     1      14.320  47.351  15.860  1.00  0.00    -0.201 N 
ATOM      3  H3  UNL     1      14.695  47.837  15.046  1.00  0.00     0.183 HD
HETATM    4  C5  UNL     1      13.542  46.263  15.666  1.00  0.00     0.110 A 
HETATM    5  C6  UNL     1      13.057  45.640  16.797  1.00  0.00     0.066 A 
HETATM    6  C7  UNL     1      13.359  46.112  18.058  1.00  0.00     0.122 A 
HETATM    7  N6  UNL     1      14.140  47.201  18.180  1.00  0.00    -0.176 N 
ATOM      8  H6  UNL     1      14.370  47.559  19.107  1.00  0.00     0.186 HD
ENDROOT
BRANCH   1   9
HETATM    9  N2  UNL     1      15.377  48.878  17.222  1.00  0.00    -0.021 N 
ATOM     10  H2  UNL     1      16.387  48.783  17.332  1.00  0.00     0.203 HD
BRANCH   9  11
HETATM   11  C3  UNL     1      14.767  50.163  17.213  1.00  0.00     0.712 A 
HETATM   12  N1  UNL     1      14.090  50.763  16.218  1.00  0.00    -0.178 N 
HETATM   13  C2  UNL     1      13.665  51.977  16.599  1.00  0.00     0.108 A 
ATOM     14  H1  UNL     1      13.923  50.352  15.299  1.00  0.00     0.185 HD
HETATM   15  C1  UNL     1      12.875  52.968  15.784  1.00  0.00     0.091 C 
HETATM   16  N8  UNL     1      14.084  52.143  17.861  1.00  0.00    -0.275 N 
HETATM   17  N7  UNL     1      14.741  51.052  18.219  1.00  0.00    -0.130 N 
ATOM     18  H8  UNL     1      13.925  52.965  18.444  1.00  0.00     0.189 HD
ATOM     19  H7  UNL     1      15.169  50.906  19.134  1.00  0.00     0.205 HD
ENDBRANCH   9  11
ENDBRANCH   1   9
BRANCH   6  20
HETATM   20  N4  UNL     1      12.931  45.564  19.140  1.00  0.00    -0.341 N 
ATOM     21  H4  UNL     1      13.470  44.824  19.590  1.00  0.00     0.167 HD
BRANCH  20  22
HETATM   22  C8  UNL     1      11.698  46.000  19.705  1.00  0.00     0.049 A 
HETATM   23  C9  UNL     1      11.717  46.929  20.732  1.00  0.00     0.032 A 
HETATM   24  C10 UNL     1      10.548  47.351  21.277  1.00  0.00     0.019 A 
HETATM   25  C11 UNL     1       9.349  46.845  20.794  1.00  0.00     0.088 A 
HETATM   26  N5  UNL     1       9.304  45.945  19.799  1.00  0.00    -0.373 N 
HETATM   27  C12 UNL     1      10.477  45.534  19.268  1.00  0.00     0.117 A 
ATOM     28  H5  UNL     1       8.415  45.583  19.455  1.00  0.00     0.164 HD
ENDBRANCH  20  22
ENDBRANCH   6  20
TORSDOF 4
ENDMDL
MODEL 3
REMARK VINA RESULT: -6.519172813      1.044      5.886
REMARK  4 active torsions:
REMARK  status: ('A' for Active; 'I' for Inactive)
REMARK    1  A    between atoms: C3_5  and  N2_6 
REMARK    2  A    between atoms: N2_6  and  C4_8 
REMARK    3  A    between atoms: C7_13  and  N4_14 
REMARK    4  A    between atoms: N4_14  and  C8_16 
ROOT
HETATM    1  C4  UNL     1      11.616  44.888  18.232  1.00  0.00     0.698 A 
HETATM    2  N3  UNL     1      11.131  45.143  17.003  1.00  0.00    -0.201 N 
ATOM      3  H3  UNL     1      11.756  45.054  16.202  1.00  0.00     0.183 HD
HETATM    4  C5  UNL     1       9.849  45.514  16.788  1.00  0.00     0.110 A 
HETATM    5  C6  UNL     1       9.043  45.623  17.902  1.00  0.00     0.066 A 
HETATM    6  C7  UNL     1       9.531  45.362  19.166  1.00  0.00     0.122 A 
HETATM    7  N6  UNL     1      10.818  44.997  19.309  1.00  0.00    -0.176 N 
ATOM      8  H6  UNL     1      11.190  44.801  20.238  1.00  0.00     0.186 HD
ENDROOT
BRANCH   1   9
HETATM    9  N2  UNL     1      12.867  44.531  18.388  1.00  0.00    -0.021 N 
ATOM     10  H2  UNL     1      13.108  43.564  18.604  1.00  0.00     0.203 HD
BRANCH   9  11
HETATM   11  C3  UNL     1      13.882  45.518  18.250  1.00  0.00     0.712 A 
HETATM   12  N1  UNL     1      14.202  46.246  17.165  1.00  0.00    -0.178 N 
HETATM   13  C2  UNL     1      15.221  47.075  17.435  1.00  0.00     0.108 A 
ATOM     14  H1  UNL     1      13.734  46.177  16.261  1.00  0.00     0.185 HD
HETATM   15  C1  UNL     1      15.879  48.054  16.497  1.00  0.00     0.091 C 
HETATM   16  N8  UNL     1      15.548  46.864  18.718  1.00  0.00    -0.275 N 
HETATM   17  N7  UNL     1      14.741  45.932  19.196  1.00  0.00    -0.130 N 
ATOM     18  H8  UNL     1      16.289  47.338  19.235  1.00  0.00     0.189 HD
ATOM     19  H7  UNL     1      14.767  45.576  20.152  1.00  0.00     0.205 HD
ENDBRANCH   9  11
ENDBRANCH   1   9
BRANCH   6  20
HETATM   20  N4  UNL     1       8.817  45.449  20.232  1.00  0.00    -0.341 N 
ATOM     21  H4  UNL     1       8.185  44.692  20.491  1.00  0.00     0.167 HD
BRANCH  20  22
HETATM   22  C8  UNL     1       8.918  46.612  21.049  1.00  0.00     0.049 A 
HETATM   23  C9  UNL     1      10.000  47.461  20.883  1.00  0.00     0.032 A 
HETATM   24  C10 UNL     1      10.105  48.573  21.655  1.00  0.00     0.019 A 
HETATM   25  C11 UNL     1       9.125  48.841  22.600  1.00  0.00     0.088 A 
HETATM   26  N5  UNL     1       8.067  48.035  22.779  1.00  0.00    -0.373 N 
HETATM   27  C12 UNL     1       7.977  46.932  22.003  1.00  0.00     0.117 A 
ATOM     28  H5  UNL     1       7.355  48.247  23.477  1.00  0.00     0.164 HD
ENDBRANCH  20  22
ENDBRANCH   6  20
TORSDOF 4
ENDMDL
MODEL 4
REMARK VINA RESULT: -6.449596555      1.756      6.476
REMARK  4 active torsions:
REMARK  status: ('A' for Active; 'I' for Inactive)
REMARK    1  A    between atoms: C3_5  and  N2_6 
REMARK    2  A    between atoms: N2_6  and  C4_8 
REMARK    3  A    between atoms: C7_13  and  N4_14 
REMARK    4  A    between atoms: N4_14  and  C8_16 
ROOT
HETATM    1  C4  UNL     1      12.970  46.091  18.419  1.00  0.00     0.698 A 
HETATM    2  N3  UNL     1      11.952  45.447  17.819  1.00  0.00    -0.201 N 
ATOM      3  H3  UNL     1      12.091  45.082  16.877  1.00  0.00     0.183 HD
HETATM    4  C5  UNL     1      10.753  45.264  18.415  1.00  0.00     0.110 A 
HETATM    5  C6  UNL     1      10.613  45.775  19.689  1.00  0.00     0.066 A 
HETATM    6  C7  UNL     1      11.651  46.437  20.312  1.00  0.00     0.122 A 
HETATM    7  N6  UNL     1      12.819  46.583  19.661  1.00  0.00    -0.176 N 
ATOM      8  H6  UNL     1      13.594  47.070  20.111  1.00  0.00     0.186 HD
ENDROOT
BRANCH   1   9
HETATM    9  N2  UNL     1      14.114  46.242  17.798  1.00  0.00    -0.021 N 
ATOM     10  H2  UNL     1      14.160  46.208  16.779  1.00  0.00     0.203 HD
BRANCH   9  11
HETATM   11  C3  UNL     1      15.289  46.455  18.570  1.00  0.00     0.712 A 
HETATM   12  N1  UNL     1      15.743  45.745  19.619  1.00  0.00    -0.178 N 
HETATM   13  C2  UNL     1      16.892  46.262  20.079  1.00  0.00     0.108 A 
ATOM     14  H1  UNL     1      15.277  44.926  20.011  1.00  0.00     0.185 HD
HETATM   15  C1  UNL     1      17.721  45.768  21.236  1.00  0.00     0.091 C 
HETATM   16  N8  UNL     1      17.166  47.320  19.301  1.00  0.00    -0.275 N 
HETATM   17  N7  UNL     1      16.202  47.425  18.402  1.00  0.00    -0.130 N 
ATOM     18  H8  UNL     1      17.975  47.934  19.388  1.00  0.00     0.189 HD
ATOM     19  H7  UNL     1      16.157  48.145  17.680  1.00  0.00     0.205 HD
ENDBRANCH   9  11
ENDBRANCH   1   9
BRANCH   6  20
HETATM   20  N4  UNL     1      11.567  46.929  21.497  1.00  0.00    -0.341 N 
ATOM     21  H4  UNL     1      12.311  46.767  22.176  1.00  0.00     0.167 HD
BRANCH  20  22
HETATM   22  C8  UNL     1      10.425  47.702  21.855  1.00  0.00     0.049 A 
HETATM   23  C9  UNL     1      10.436  49.068  21.626  1.00  0.00     0.032 A 
HETATM   24  C10 UNL     1       9.353  49.814  21.962  1.00  0.00     0.019 A 
HETATM   25  C11 UNL     1       8.249  49.194  22.530  1.00  0.00     0.088 A 
HETATM   26  N5  UNL     1       8.213  47.872  22.761  1.00  0.00    -0.373 N 
HETATM   27  C12 UNL     1       9.300  47.144  22.421  1.00  0.00     0.117 A 
ATOM     28  H5  UNL     1       7.393  47.432  23.178  1.00  0.00     0.164 HD
ENDBRANCH  20  22
ENDBRANCH   6  20
TORSDOF 4
ENDMDL
MODEL 5
REMARK VINA RESULT: -6.443107432      2.180      3.992
REMARK  4 active torsions:
REMARK  status: ('A' for Active; 'I' for Inactive)
REMARK    1  A    between atoms: C3_5  and  N2_6 
REMARK    2  A    between atoms: N2_6  and  C4_8 
REMARK    3  A    between atoms: C7_13  and  N4_14 
REMARK    4  A    between atoms: N4_14  and  C8_16 
ROOT
HETATM    1  C4  UNL     1       9.632  45.434  19.213  1.00  0.00     0.698 A 
HETATM    2  N3  UNL     1      10.936  45.437  19.546  1.00  0.00    -0.201 N 
ATOM      3  H3  UNL     1      11.191  45.551  20.527  1.00  0.00     0.183 HD
HETATM    4  C5  UNL     1      11.922  45.295  18.632  1.00  0.00     0.110 A 
HETATM    5  C6  UNL     1      11.529  45.144  17.319  1.00  0.00     0.066 A 
HETATM    6  C7  UNL     1      10.195  45.139  16.968  1.00  0.00     0.122 A 
HETATM    7  N6  UNL     1       9.264  45.285  17.928  1.00  0.00    -0.176 N 
ATOM      8  H6  UNL     1       8.274  45.282  17.682  1.00  0.00     0.186 HD
ENDROOT
BRANCH   1   9
HETATM    9  N2  UNL     1       8.714  45.575  20.137  1.00  0.00    -0.021 N 
ATOM     10  H2  UNL     1       7.974  44.880  20.244  1.00  0.00     0.203 HD
BRANCH   9  11
HETATM   11  C3  UNL     1       8.768  46.713  20.987  1.00  0.00     0.712 A 
HETATM   12  N1  UNL     1       9.465  47.852  20.821  1.00  0.00    -0.178 N 
HETATM   13  C2  UNL     1       9.252  48.692  21.845  1.00  0.00     0.108 A 
ATOM     14  H1  UNL     1      10.073  48.050  20.025  1.00  0.00     0.185 HD
HETATM   15  C1  UNL     1       9.841  50.064  22.042  1.00  0.00     0.091 C 
HETATM   16  N8  UNL     1       8.402  48.067  22.672  1.00  0.00    -0.275 N 
HETATM   17  N7  UNL     1       8.119  46.886  22.150  1.00  0.00    -0.130 N 
ATOM     18  H8  UNL     1       8.038  48.437  23.550  1.00  0.00     0.189 HD
ATOM     19  H7  UNL     1       7.492  46.199  22.571  1.00  0.00     0.205 HD
ENDBRANCH   9  11
ENDBRANCH   1   9
BRANCH   6  20
HETATM   20  N4  UNL     1       9.781  45.001  15.758  1.00  0.00    -0.341 N 
ATOM     21  H4  UNL     1       9.576  44.073  15.387  1.00  0.00     0.167 HD
BRANCH  20  22
HETATM   22  C8  UNL     1       9.613  46.154  14.940  1.00  0.00     0.049 A 
HETATM   23  C9  UNL     1      10.735  46.798  14.442  1.00  0.00     0.032 A 
HETATM   24  C10 UNL     1      10.587  47.898  13.661  1.00  0.00     0.019 A 
HETATM   25  C11 UNL     1       9.311  48.362  13.372  1.00  0.00     0.088 A 
HETATM   26  N5  UNL     1       8.208  47.755  13.841  1.00  0.00    -0.373 N 
HETATM   27  C12 UNL     1       8.374  46.662  14.617  1.00  0.00     0.117 A 
ATOM     28  H5  UNL     1       7.278  48.108  13.618  1.00  0.00     0.164 HD
ENDBRANCH  20  22
ENDBRANCH   6  20
TORSDOF 4
ENDMDL
