MODEL 1
REMARK VINA RESULT: -6.874719409      0.000      0.000
REMARK  3 active torsions:
REMARK  status: ('A' for Active; 'I' for Inactive)
REMARK    1  A    between atoms: C3_5  and  N2_6 
REMARK    2  A    between atoms: N7_19  and  C6_21 
REMARK    3  A    between atoms: C6_21  and  C7_22 
ROOT
HETATM    1  C1  UNL     1      13.253  47.020  15.757  1.00  0.00     0.070 C 
HETATM    2  C2  UNL     1      14.571  47.508  16.167  1.00  0.00     0.040 A 
HETATM    3  N1  UNL     1      15.304  48.356  15.381  1.00  0.00    -0.195 N 
ATOM      4  H1  UNL     1      14.897  48.640  14.490  1.00  0.00     0.184 HD
HETATM    5  C3  UNL     1      16.494  48.834  15.684  1.00  0.00     0.677 A 
HETATM    6  N3  UNL     1      17.114  48.523  16.829  1.00  0.00    -0.175 N 
ATOM      7  H3  UNL     1      18.034  48.898  17.056  1.00  0.00     0.186 HD
HETATM    8  C4  UNL     1      16.468  47.696  17.664  1.00  0.00     0.152 A 
HETATM    9  N4  UNL     1      17.017  47.331  18.835  1.00  0.00    -0.270 N 
ATOM     10  H4  UNL     1      17.938  47.692  19.085  1.00  0.00     0.190 HD
HETATM   11  N5  UNL     1      16.399  46.521  19.665  1.00  0.00    -0.240 N 
ATOM     12  H5  UNL     1      16.854  46.271  20.543  1.00  0.00     0.208 HD
HETATM   13  N6  UNL     1      15.198  46.017  19.396  1.00  0.00    -0.270 N 
ATOM     14  H6  UNL     1      14.744  45.392  20.061  1.00  0.00     0.190 HD
HETATM   15  C5  UNL     1      14.586  46.335  18.246  1.00  0.00     0.133 A 
HETATM   16  N7  UNL     1      13.439  45.862  17.973  1.00  0.00    -0.370 N 
ATOM     17  H7  UNL     1      13.009  46.130  17.087  1.00  0.00     0.161 HD
HETATM   18  C13 UNL     1      15.204  47.177  17.360  1.00  0.00     0.078 A 
ENDROOT
BRANCH  16  19
HETATM   19  C6  UNL     1      12.702  44.966  18.844  1.00  0.00     0.160 C 
BRANCH  19  20
HETATM   20  C7  UNL     1      11.619  45.701  19.546  1.00  0.00    -0.041 A 
HETATM   21  C8  UNL     1      10.285  45.447  19.245  1.00  0.00     0.009 A 
HETATM   22  C9  UNL     1       9.289  46.138  19.904  1.00  0.00     0.001 A 
HETATM   23  C10 UNL     1       9.586  47.090  20.872  1.00  0.00     0.000 A 
HETATM   24  C11 UNL     1      10.912  47.353  21.180  1.00  0.00     0.001 A 
HETATM   25  C12 UNL     1      11.890  46.654  20.511  1.00  0.00     0.009 A 
ENDBRANCH  19  20
ENDBRANCH  16  19
BRANCH   5  26
HETATM   26  N2  UNL     1      17.142  49.641  14.888  1.00  0.00    -0.234 N 
ATOM     27  H22 UNL     1      17.093  49.419  13.894  1.00  0.00     0.174 HD
ATOM     28  H21 UNL     1      17.667  50.443  15.237  1.00  0.00     0.174 HD
ENDBRANCH   5  26
TORSDOF 3
ENDMDL
MODEL 2
REMARK VINA RESULT: -6.855792952      0.068      1.069
REMARK  3 active torsions:
REMARK  status: ('A' for Active; 'I' for Inactive)
REMARK    1  A    between atoms: C3_5  and  N2_6 
REMARK    2  A    between atoms: N7_19  and  C6_21 
REMARK    3  A    between atoms: C6_21  and  C7_22 
ROOT
HETATM    1  C1  UNL     1      13.258  47.024  15.733  1.00  0.00     0.070 C 
HETATM    2  C2  UNL     1      14.571  47.524  16.145  1.00  0.00     0.040 A 
HETATM    3  N1  UNL     1      15.296  48.382  15.362  1.00  0.00    -0.195 N 
ATOM      4  H1  UNL     1      14.886  48.665  14.472  1.00  0.00     0.184 HD
HETATM    5  C3  UNL     1      16.481  48.871  15.666  1.00  0.00     0.677 A 
HETATM    6  N3  UNL     1      17.103  48.562  16.811  1.00  0.00    -0.175 N 
ATOM      7  H3  UNL     1      18.020  48.945  17.039  1.00  0.00     0.186 HD
HETATM    8  C4  UNL     1      16.465  47.726  17.643  1.00  0.00     0.152 A 
HETATM    9  N4  UNL     1      17.018  47.363  18.812  1.00  0.00    -0.270 N 
ATOM     10  H4  UNL     1      17.936  47.732  19.064  1.00  0.00     0.190 HD
HETATM   11  N5  UNL     1      16.408  46.544  19.640  1.00  0.00    -0.240 N 
ATOM     12  H5  UNL     1      16.865  46.296  20.517  1.00  0.00     0.208 HD
HETATM   13  N6  UNL     1      15.212  46.029  19.369  1.00  0.00    -0.270 N 
ATOM     14  H6  UNL     1      14.764  45.397  20.032  1.00  0.00     0.190 HD
HETATM   15  C5  UNL     1      14.598  46.345  18.220  1.00  0.00     0.133 A 
HETATM   16  N7  UNL     1      13.455  45.861  17.945  1.00  0.00    -0.370 N 
ATOM     17  H7  UNL     1      13.023  46.127  17.060  1.00  0.00     0.161 HD
HETATM   18  C13 UNL     1      15.207  47.196  17.337  1.00  0.00     0.078 A 
ENDROOT
BRANCH  16  19
HETATM   19  C6  UNL     1      12.727  44.955  18.813  1.00  0.00     0.160 C 
BRANCH  19  20
HETATM   20  C7  UNL     1      11.615  45.669  19.491  1.00  0.00    -0.041 A 
HETATM   21  C8  UNL     1      11.882  46.627  20.465  1.00  0.00     0.009 A 
HETATM   22  C9  UNL     1      10.839  47.282  21.086  1.00  0.00     0.001 A 
HETATM   23  C10 UNL     1       9.516  47.010  20.763  1.00  0.00     0.000 A 
HETATM   24  C11 UNL     1       9.237  46.057  19.794  1.00  0.00     0.001 A 
HETATM   25  C12 UNL     1      10.290  45.415  19.186  1.00  0.00     0.009 A 
ENDBRANCH  19  20
ENDBRANCH  16  19
BRANCH   5  26
HETATM   26  N2  UNL     1      17.121  49.687  14.873  1.00  0.00    -0.234 N 
ATOM     27  H22 UNL     1      17.207  49.386  13.902  1.00  0.00     0.174 HD
ATOM     28  H21 UNL     1      17.513  50.569  15.203  1.00  0.00     0.174 HD
ENDBRANCH   5  26
TORSDOF 3
ENDMDL
MODEL 3
REMARK VINA RESULT: -6.788524356      3.815      5.107
REMARK  3 active torsions:
REMARK  status: ('A' for Active; 'I' for Inactive)
REMARK    1  A    between atoms: C3_5  and  N2_6 
REMARK    2  A    between atoms: N7_19  and  C6_21 
REMARK    3  A    between atoms: C6_21  and  C7_22 
ROOT
HETATM    1  C1  UNL     1       8.717  46.028  18.326  1.00  0.00     0.070 C 
HETATM    2  C2  UNL     1       9.623  45.313  17.427  1.00  0.00     0.040 A 
HETATM    3  N1  UNL     1       9.209  44.837  16.211  1.00  0.00    -0.195 N 
ATOM      4  H1  UNL     1       8.236  45.000  15.950  1.00  0.00     0.184 HD
HETATM    5  C3  UNL     1       9.966  44.186  15.351  1.00  0.00     0.677 A 
HETATM    6  N3  UNL     1      11.255  43.924  15.599  1.00  0.00    -0.175 N 
ATOM      7  H3  UNL     1      11.835  43.420  14.928  1.00  0.00     0.186 HD
HETATM    8  C4  UNL     1      11.750  44.354  16.769  1.00  0.00     0.152 A 
HETATM    9  N4  UNL     1      13.034  44.133  17.098  1.00  0.00    -0.270 N 
ATOM     10  H4  UNL     1      13.635  43.630  16.444  1.00  0.00     0.190 HD
HETATM   11  N5  UNL     1      13.535  44.547  18.240  1.00  0.00    -0.240 N 
ATOM     12  H5  UNL     1      14.515  44.356  18.448  1.00  0.00     0.208 HD
HETATM   13  N6  UNL     1      12.803  45.206  19.134  1.00  0.00    -0.270 N 
ATOM     14  H6  UNL     1      13.222  45.515  20.012  1.00  0.00     0.190 HD
HETATM   15  C5  UNL     1      11.513  45.464  18.876  1.00  0.00     0.133 A 
HETATM   16  N7  UNL     1      10.800  46.093  19.719  1.00  0.00    -0.370 N 
ATOM     17  H7  UNL     1       9.823  46.268  19.484  1.00  0.00     0.161 HD
HETATM   18  C13 UNL     1      10.962  45.046  17.695  1.00  0.00     0.078 A 
ENDROOT
BRANCH  16  19
HETATM   19  C6  UNL     1      11.289  46.577  20.996  1.00  0.00     0.160 C 
BRANCH  19  20
HETATM   20  C7  UNL     1      10.311  47.516  21.602  1.00  0.00    -0.041 A 
HETATM   21  C8  UNL     1       9.217  47.032  22.314  1.00  0.00     0.009 A 
HETATM   22  C9  UNL     1       8.316  47.916  22.871  1.00  0.00     0.001 A 
HETATM   23  C10 UNL     1       8.472  49.290  22.740  1.00  0.00     0.000 A 
HETATM   24  C11 UNL     1       9.558  49.785  22.032  1.00  0.00     0.001 A 
HETATM   25  C12 UNL     1      10.445  48.888  21.484  1.00  0.00     0.009 A 
ENDBRANCH  19  20
ENDBRANCH  16  19
BRANCH   5  26
HETATM   26  N2  UNL     1       9.509  43.759  14.206  1.00  0.00    -0.234 N 
ATOM     27  H22 UNL     1       8.567  44.067  13.961  1.00  0.00     0.174 HD
ATOM     28  H21 UNL     1      10.055  43.153  13.594  1.00  0.00     0.174 HD
ENDBRANCH   5  26
TORSDOF 3
ENDMDL
MODEL 4
REMARK VINA RESULT: -6.674166284      4.172      5.305
REMARK  3 active torsions:
REMARK  status: ('A' for Active; 'I' for Inactive)
REMARK    1  A    between atoms: C3_5  and  N2_6 
REMARK    2  A    between atoms: N7_19  and  C6_21 
REMARK    3  A    between atoms: C6_21  and  C7_22 
ROOT
HETATM    1  C1  UNL     1      12.160  44.274  18.519  1.00  0.00     0.070 C 
HETATM    2  C2  UNL     1      12.134  44.184  17.059  1.00  0.00     0.040 A 
HETATM    3  N1  UNL     1      13.175  43.648  16.349  1.00  0.00    -0.195 N 
ATOM      4  H1  UNL     1      13.979  43.309  16.878  1.00  0.00     0.184 HD
HETATM    5  C3  UNL     1      13.222  43.534  15.037  1.00  0.00     0.677 A 
HETATM    6  N3  UNL     1      12.218  43.947  14.253  1.00  0.00    -0.175 N 
ATOM      7  H3  UNL     1      12.262  43.855  13.239  1.00  0.00     0.186 HD
HETATM    8  C4  UNL     1      11.152  44.487  14.864  1.00  0.00     0.152 A 
HETATM    9  N4  UNL     1      10.101  44.928  14.153  1.00  0.00    -0.270 N 
ATOM     10  H4  UNL     1      10.120  44.848  13.136  1.00  0.00     0.190 HD
HETATM   11  N5  UNL     1       9.049  45.460  14.734  1.00  0.00    -0.240 N 
ATOM     12  H5  UNL     1       8.273  45.781  14.154  1.00  0.00     0.208 HD
HETATM   13  N6  UNL     1       8.964  45.592  16.054  1.00  0.00    -0.270 N 
ATOM     14  H6  UNL     1       8.134  46.008  16.476  1.00  0.00     0.190 HD
HETATM   15  C5  UNL     1       9.975  45.175  16.830  1.00  0.00     0.133 A 
HETATM   16  N7  UNL     1       9.910  45.294  18.094  1.00  0.00    -0.370 N 
ATOM     17  H7  UNL     1      10.701  44.965  18.647  1.00  0.00     0.161 HD
HETATM   18  C13 UNL     1      11.085  44.616  16.255  1.00  0.00     0.078 A 
ENDROOT
BRANCH  16  19
HETATM   19  C6  UNL     1       8.780  45.870  18.798  1.00  0.00     0.160 C 
BRANCH  19  20
HETATM   20  C7  UNL     1       9.214  46.420  20.109  1.00  0.00    -0.041 A 
HETATM   21  C8  UNL     1       8.320  46.494  21.172  1.00  0.00     0.009 A 
HETATM   22  C9  UNL     1       8.737  47.007  22.383  1.00  0.00     0.001 A 
HETATM   23  C10 UNL     1      10.038  47.457  22.572  1.00  0.00     0.000 A 
HETATM   24  C11 UNL     1      10.938  47.389  21.519  1.00  0.00     0.001 A 
HETATM   25  C12 UNL     1      10.504  46.874  20.319  1.00  0.00     0.009 A 
ENDBRANCH  19  20
ENDBRANCH  16  19
BRANCH   5  26
HETATM   26  N2  UNL     1      14.247  43.012  14.420  1.00  0.00    -0.234 N 
ATOM     27  H22 UNL     1      14.429  43.368  13.482  1.00  0.00     0.174 HD
ATOM     28  H21 UNL     1      14.829  42.292  14.847  1.00  0.00     0.174 HD
ENDBRANCH   5  26
TORSDOF 3
ENDMDL
MODEL 5
REMARK VINA RESULT: -6.670233823      4.333      5.695
REMARK  3 active torsions:
REMARK  status: ('A' for Active; 'I' for Inactive)
REMARK    1  A    between atoms: C3_5  and  N2_6 
REMARK    2  A    between atoms: N7_19  and  C6_21 
REMARK    3  A    between atoms: C6_21  and  C7_22 
ROOT
HETATM    1  C1  UNL     1       9.326  45.554  15.984  1.00  0.00     0.070 C 
HETATM    2  C2  UNL     1       9.822  44.706  14.899  1.00  0.00     0.040 A 
HETATM    3  N1  UNL     1       9.167  44.610  13.700  1.00  0.00    -0.195 N 
ATOM      4  H1  UNL     1       8.312  45.155  13.587  1.00  0.00     0.184 HD
HETATM    5  C3  UNL     1       9.553  43.870  12.681  1.00  0.00     0.677 A 
HETATM    6  N3  UNL     1      10.661  43.120  12.728  1.00  0.00    -0.175 N 
ATOM      7  H3  UNL     1      10.953  42.550  11.935  1.00  0.00     0.186 HD
HETATM    8  C4  UNL     1      11.369  43.152  13.867  1.00  0.00     0.152 A 
HETATM    9  N4  UNL     1      12.493  42.429  14.001  1.00  0.00    -0.270 N 
ATOM     10  H4  UNL     1      12.807  41.850  13.221  1.00  0.00     0.190 HD
HETATM   11  N5  UNL     1      13.199  42.448  15.109  1.00  0.00    -0.240 N 
ATOM     12  H5  UNL     1      14.046  41.883  15.166  1.00  0.00     0.208 HD
HETATM   13  N6  UNL     1      12.842  43.182  16.159  1.00  0.00    -0.270 N 
ATOM     14  H6  UNL     1      13.412  43.176  17.006  1.00  0.00     0.190 HD
HETATM   15  C5  UNL     1      11.731  43.930  16.102  1.00  0.00     0.133 A 
HETATM   16  N7  UNL     1      11.376  44.636  17.096  1.00  0.00    -0.370 N 
ATOM     17  H7  UNL     1      10.524  45.190  17.011  1.00  0.00     0.161 HD
HETATM   18  C13 UNL     1      10.975  43.931  14.960  1.00  0.00     0.078 A 
ENDROOT
BRANCH  16  19
HETATM   19  C6  UNL     1      12.108  44.703  18.347  1.00  0.00     0.160 C 
BRANCH  19  20
HETATM   20  C7  UNL     1      11.406  45.591  19.310  1.00  0.00    -0.041 A 
HETATM   21  C8  UNL     1      10.016  45.627  19.350  1.00  0.00     0.009 A 
HETATM   22  C9  UNL     1       9.377  46.457  20.249  1.00  0.00     0.001 A 
HETATM   23  C10 UNL     1      10.092  47.265  21.124  1.00  0.00     0.000 A 
HETATM   24  C11 UNL     1      11.478  47.239  21.092  1.00  0.00     0.001 A 
HETATM   25  C12 UNL     1      12.097  46.405  20.189  1.00  0.00     0.009 A 
ENDBRANCH  19  20
ENDBRANCH  16  19
BRANCH   5  26
HETATM   26  N2  UNL     1       8.882  43.822  11.562  1.00  0.00    -0.234 N 
ATOM     27  H22 UNL     1       8.259  44.611  11.384  1.00  0.00     0.174 HD
ATOM     28  H21 UNL     1       8.971  43.046  10.907  1.00  0.00     0.174 HD
ENDBRANCH   5  26
TORSDOF 3
ENDMDL
