MODEL 1
REMARK VINA RESULT: -8.346645961      0.000      0.000
REMARK  4 active torsions:
REMARK  status: ('A' for Active; 'I' for Inactive)
REMARK    1  A    between atoms: N1_2  and  C2_4 
REMARK    2  A    between atoms: C5_9  and  N3_10 
REMARK    3  A    between atoms: C6_13  and  C7_14 
REMARK    4  A    between atoms: C11_18  and  C12_19 
ROOT
HETATM    1  C7  UNL     1      12.927  45.852  19.008  1.00  0.00    -0.021 A 
HETATM    2  C8  UNL     1      12.305  44.952  18.158  1.00  0.00     0.012 A 
HETATM    3  C9  UNL     1      10.954  44.710  18.177  1.00  0.00     0.002 A 
HETATM    4  C10 UNL     1      10.199  45.405  19.091  1.00  0.00     0.015 A 
HETATM    5  C11 UNL     1      10.780  46.308  19.953  1.00  0.00     0.011 A 
HETATM    6  C13 UNL     1      12.143  46.544  19.926  1.00  0.00     0.027 A 
ENDROOT
BRANCH   1   7
HETATM    7  C6  UNL     1      14.371  46.063  18.937  1.00  0.00     0.020 C 
HETATM    8  C5  UNL     1      14.816  46.923  17.953  1.00  0.00     0.110 C 
HETATM    9  N2  UNL     1      15.964  47.644  17.888  1.00  0.00    -0.352 N 
HETATM   10  C4  UNL     1      17.110  47.380  18.555  1.00  0.00     0.092 C 
ATOM     11  H2  UNL     1      15.962  48.462  17.279  1.00  0.00     0.166 HD
HETATM   12  C3  UNL     1      17.295  46.554  19.670  1.00  0.00     0.046 C 
HETATM   13  C2  UNL     1      16.506  45.516  20.118  1.00  0.00     0.029 C 
HETATM   14  C14 UNL     1      15.151  45.385  19.859  1.00  0.00     0.045 C 
BRANCH   8  15
HETATM   15  N3  UNL     1      14.029  47.051  16.966  1.00  0.00    -0.385 N 
ATOM     16  H32 UNL     1      13.559  47.955  16.911  1.00  0.00     0.157 HD
ATOM     17  H31 UNL     1      13.958  46.243  16.348  1.00  0.00     0.157 HD
ENDBRANCH   8  15
BRANCH  13  18
HETATM   18  N1  UNL     1      17.079  44.611  20.824  1.00  0.00    -0.394 N 
HETATM   19  C1  UNL     1      18.102  45.002  21.766  1.00  0.00     0.146 C 
ATOM     20  H1  UNL     1      16.817  43.631  20.722  1.00  0.00     0.159 HD
ENDBRANCH  13  18
ENDBRANCH   1   7
BRANCH   5  21
HETATM   21  C12 UNL     1       9.944  47.029  20.913  1.00  0.00     0.147 A 
HETATM   22  N4  UNL     1      10.234  48.161  21.577  1.00  0.00    -0.268 N 
HETATM   23  N5  UNL     1       9.191  48.449  22.332  1.00  0.00    -0.227 N 
ATOM     24  H4  UNL     1      11.099  48.697  21.510  1.00  0.00     0.190 HD
HETATM   25  N6  UNL     1       8.255  47.549  22.174  1.00  0.00    -0.227 N 
ATOM     26  H5  UNL     1       9.124  49.258  22.951  1.00  0.00     0.210 HD
HETATM   27  N7  UNL     1       8.711  46.681  21.308  1.00  0.00    -0.268 N 
ATOM     28  H6  UNL     1       7.346  47.528  22.636  1.00  0.00     0.210 HD
ATOM     29  H7  UNL     1       8.203  45.859  20.981  1.00  0.00     0.190 HD
ENDBRANCH   5  21
TORSDOF 4
ENDMDL
MODEL 2
REMARK VINA RESULT: -7.404960975      3.263      4.994
REMARK  4 active torsions:
REMARK  status: ('A' for Active; 'I' for Inactive)
REMARK    1  A    between atoms: N1_2  and  C2_4 
REMARK    2  A    between atoms: C5_9  and  N3_10 
REMARK    3  A    between atoms: C6_13  and  C7_14 
REMARK    4  A    between atoms: C11_18  and  C12_19 
ROOT
HETATM    1  C7  UNL     1      11.341  45.471  18.502  1.00  0.00    -0.021 A 
HETATM    2  C8  UNL     1      12.644  45.639  18.941  1.00  0.00     0.012 A 
HETATM    3  C9  UNL     1      12.967  46.284  20.109  1.00  0.00     0.002 A 
HETATM    4  C10 UNL     1      11.932  46.780  20.865  1.00  0.00     0.015 A 
HETATM    5  C11 UNL     1      10.624  46.633  20.462  1.00  0.00     0.011 A 
HETATM    6  C13 UNL     1      10.310  45.981  19.283  1.00  0.00     0.027 A 
ENDROOT
BRANCH   1   7
HETATM    7  C6  UNL     1      11.065  44.774  17.247  1.00  0.00     0.020 C 
HETATM    8  C5  UNL     1       9.819  44.986  16.691  1.00  0.00     0.110 C 
HETATM    9  N2  UNL     1       9.416  44.864  15.401  1.00  0.00    -0.352 N 
HETATM   10  C4  UNL     1      10.016  44.120  14.444  1.00  0.00     0.092 C 
ATOM     11  H2  UNL     1       8.582  45.382  15.126  1.00  0.00     0.166 HD
HETATM   12  C3  UNL     1      11.313  43.592  14.442  1.00  0.00     0.046 C 
HETATM   13  C2  UNL     1      12.143  43.333  15.512  1.00  0.00     0.029 C 
HETATM   14  C14 UNL     1      12.073  43.973  16.739  1.00  0.00     0.045 C 
BRANCH   8  15
HETATM   15  N3  UNL     1       8.926  45.348  17.515  1.00  0.00    -0.385 N 
ATOM     16  H32 UNL     1       9.014  46.309  17.845  1.00  0.00     0.157 HD
ATOM     17  H31 UNL     1       8.228  44.642  17.751  1.00  0.00     0.157 HD
ENDBRANCH   8  15
BRANCH  13  18
HETATM   18  N1  UNL     1      13.041  42.431  15.347  1.00  0.00    -0.394 N 
HETATM   19  C1  UNL     1      12.787  41.350  14.423  1.00  0.00     0.146 C 
ATOM     20  H1  UNL     1      13.920  42.476  15.861  1.00  0.00     0.159 HD
ENDBRANCH  13  18
ENDBRANCH   1   7
BRANCH   5  21
HETATM   21  C12 UNL     1       9.548  47.175  21.293  1.00  0.00     0.147 A 
HETATM   22  N4  UNL     1       9.515  48.351  21.942  1.00  0.00    -0.268 N 
HETATM   23  N5  UNL     1       8.353  48.423  22.563  1.00  0.00    -0.227 N 
ATOM     24  H4  UNL     1      10.251  49.057  21.952  1.00  0.00     0.190 HD
HETATM   25  N6  UNL     1       7.651  47.343  22.335  1.00  0.00    -0.227 N 
ATOM     26  H5  UNL     1       8.047  49.208  23.138  1.00  0.00     0.210 HD
HETATM   27  N7  UNL     1       8.377  46.579  21.560  1.00  0.00    -0.268 N 
ATOM     28  H6  UNL     1       6.718  47.137  22.692  1.00  0.00     0.210 HD
ATOM     29  H7  UNL     1       8.093  45.663  21.210  1.00  0.00     0.190 HD
ENDBRANCH   5  21
TORSDOF 4
ENDMDL
MODEL 3
REMARK VINA RESULT: -7.387507055      0.779      1.075
REMARK  4 active torsions:
REMARK  status: ('A' for Active; 'I' for Inactive)
REMARK    1  A    between atoms: N1_2  and  C2_4 
REMARK    2  A    between atoms: C5_9  and  N3_10 
REMARK    3  A    between atoms: C6_13  and  C7_14 
REMARK    4  A    between atoms: C11_18  and  C12_19 
ROOT
HETATM    1  C7  UNL     1      13.502  45.891  18.880  1.00  0.00    -0.021 A 
HETATM    2  C8  UNL     1      13.037  44.868  18.070  1.00  0.00     0.012 A 
HETATM    3  C9  UNL     1      11.738  44.424  18.088  1.00  0.00     0.002 A 
HETATM    4  C10 UNL     1      10.871  45.039  18.960  1.00  0.00     0.015 A 
HETATM    5  C11 UNL     1      11.296  46.060  19.782  1.00  0.00     0.011 A 
HETATM    6  C13 UNL     1      12.607  46.499  19.755  1.00  0.00     0.027 A 
ENDROOT
BRANCH   1   7
HETATM    7  C6  UNL     1      14.898  46.315  18.812  1.00  0.00     0.020 C 
HETATM    8  C5  UNL     1      15.214  47.223  17.820  1.00  0.00     0.110 C 
HETATM    9  N2  UNL     1      16.241  48.107  17.752  1.00  0.00    -0.352 N 
HETATM   10  C4  UNL     1      17.411  48.024  18.425  1.00  0.00     0.092 C 
ATOM     11  H2  UNL     1      16.120  48.910  17.135  1.00  0.00     0.166 HD
HETATM   12  C3  UNL     1      17.712  47.247  19.550  1.00  0.00     0.046 C 
HETATM   13  C2  UNL     1      17.085  46.106  20.005  1.00  0.00     0.029 C 
HETATM   14  C14 UNL     1      15.767  45.771  19.743  1.00  0.00     0.045 C 
BRANCH   8  15
HETATM   15  N3  UNL     1      14.421  47.222  16.830  1.00  0.00    -0.385 N 
ATOM     16  H32 UNL     1      14.757  47.737  16.015  1.00  0.00     0.157 HD
ATOM     17  H31 UNL     1      13.548  46.711  16.961  1.00  0.00     0.157 HD
ENDBRANCH   8  15
BRANCH  13  18
HETATM   18  N1  UNL     1      17.784  45.304  20.723  1.00  0.00    -0.394 N 
HETATM   19  C1  UNL     1      19.009  44.764  20.178  1.00  0.00     0.146 C 
ATOM     20  H1  UNL     1      17.481  45.051  21.663  1.00  0.00     0.159 HD
ENDBRANCH  13  18
ENDBRANCH   1   7
BRANCH   5  21
HETATM   21  C12 UNL     1      10.345  46.691  20.697  1.00  0.00     0.147 A 
HETATM   22  N4  UNL     1       9.003  46.608  20.685  1.00  0.00    -0.268 N 
HETATM   23  N5  UNL     1       8.557  47.334  21.692  1.00  0.00    -0.227 N 
ATOM     24  H4  UNL     1       8.436  46.082  20.021  1.00  0.00     0.190 HD
HETATM   25  N6  UNL     1       9.558  47.872  22.341  1.00  0.00    -0.227 N 
ATOM     26  H5  UNL     1       7.573  47.458  21.931  1.00  0.00     0.210 HD
HETATM   27  N7  UNL     1      10.651  47.481  21.737  1.00  0.00    -0.268 N 
ATOM     28  H6  UNL     1       9.498  48.477  23.159  1.00  0.00     0.210 HD
ATOM     29  H7  UNL     1      11.597  47.740  22.015  1.00  0.00     0.190 HD
ENDBRANCH   5  21
TORSDOF 4
ENDMDL
MODEL 4
REMARK VINA RESULT: -7.209469269      3.218      6.903
REMARK  4 active torsions:
REMARK  status: ('A' for Active; 'I' for Inactive)
REMARK    1  A    between atoms: N1_2  and  C2_4 
REMARK    2  A    between atoms: C5_9  and  N3_10 
REMARK    3  A    between atoms: C6_13  and  C7_14 
REMARK    4  A    between atoms: C11_18  and  C12_19 
ROOT
HETATM    1  C7  UNL     1      10.764  44.934  17.386  1.00  0.00    -0.021 A 
HETATM    2  C8  UNL     1       9.643  45.098  16.589  1.00  0.00     0.012 A 
HETATM    3  C9  UNL     1       9.536  44.571  15.325  1.00  0.00     0.002 A 
HETATM    4  C10 UNL     1      10.603  43.849  14.847  1.00  0.00     0.015 A 
HETATM    5  C11 UNL     1      11.735  43.664  15.610  1.00  0.00     0.011 A 
HETATM    6  C13 UNL     1      11.833  44.200  16.882  1.00  0.00     0.027 A 
ENDROOT
BRANCH   1   7
HETATM    7  C6  UNL     1      10.816  45.522  18.723  1.00  0.00     0.020 C 
HETATM    8  C5  UNL     1      12.075  45.721  19.256  1.00  0.00     0.110 C 
HETATM    9  N2  UNL     1      12.480  46.592  20.215  1.00  0.00    -0.352 N 
HETATM   10  C4  UNL     1      11.694  47.167  21.153  1.00  0.00     0.092 C 
ATOM     11  H2  UNL     1      13.470  46.835  20.229  1.00  0.00     0.166 HD
HETATM   12  C3  UNL     1      10.299  47.277  21.169  1.00  0.00     0.046 C 
HETATM   13  C2  UNL     1       9.364  46.516  20.499  1.00  0.00     0.029 C 
HETATM   14  C14 UNL     1       9.606  45.822  19.324  1.00  0.00     0.045 C 
BRANCH   8  15
HETATM   15  N3  UNL     1      12.979  44.975  18.771  1.00  0.00    -0.385 N 
ATOM     16  H32 UNL     1      13.307  45.251  17.845  1.00  0.00     0.157 HD
ATOM     17  H31 UNL     1      13.270  44.194  19.358  1.00  0.00     0.157 HD
ENDBRANCH   8  15
BRANCH  13  18
HETATM   18  N1  UNL     1       8.189  46.454  21.011  1.00  0.00    -0.394 N 
HETATM   19  C1  UNL     1       7.973  46.988  22.336  1.00  0.00     0.146 C 
ATOM     20  H1  UNL     1       7.419  46.033  20.491  1.00  0.00     0.159 HD
ENDBRANCH  13  18
ENDBRANCH   1   7
BRANCH   5  21
HETATM   21  C12 UNL     1      12.851  42.890  15.067  1.00  0.00     0.147 A 
HETATM   22  N4  UNL     1      13.967  43.349  14.475  1.00  0.00    -0.268 N 
HETATM   23  N5  UNL     1      14.694  42.299  14.144  1.00  0.00    -0.227 N 
ATOM     24  H4  UNL     1      14.207  44.327  14.311  1.00  0.00     0.190 HD
HETATM   25  N6  UNL     1      14.087  41.197  14.502  1.00  0.00    -0.227 N 
ATOM     26  H5  UNL     1      15.600  42.341  13.677  1.00  0.00     0.210 HD
HETATM   27  N7  UNL     1      12.962  41.553  15.066  1.00  0.00    -0.268 N 
ATOM     28  H6  UNL     1      14.425  40.244  14.368  1.00  0.00     0.210 HD
ATOM     29  H7  UNL     1      12.270  40.909  15.449  1.00  0.00     0.190 HD
ENDBRANCH   5  21
TORSDOF 4
ENDMDL
MODEL 5
REMARK VINA RESULT: -7.063092490      3.928      6.791
REMARK  4 active torsions:
REMARK  status: ('A' for Active; 'I' for Inactive)
REMARK    1  A    between atoms: N1_2  and  C2_4 
REMARK    2  A    between atoms: C5_9  and  N3_10 
REMARK    3  A    between atoms: C6_13  and  C7_14 
REMARK    4  A    between atoms: C11_18  and  C12_19 
ROOT
HETATM    1  C7  UNL     1      10.384  44.873  16.457  1.00  0.00    -0.021 A 
HETATM    2  C8  UNL     1      11.612  44.291  16.725  1.00  0.00     0.012 A 
HETATM    3  C9  UNL     1      12.181  44.276  17.975  1.00  0.00     0.002 A 
HETATM    4  C10 UNL     1      11.481  44.873  18.996  1.00  0.00     0.015 A 
HETATM    5  C11 UNL     1      10.257  45.463  18.769  1.00  0.00     0.011 A 
HETATM    6  C13 UNL     1       9.693  45.472  17.506  1.00  0.00     0.027 A 
ENDROOT
BRANCH   1   7
HETATM    7  C6  UNL     1       9.834  44.855  15.103  1.00  0.00     0.020 C 
HETATM    8  C5  UNL     1      10.483  45.640  14.169  1.00  0.00     0.110 C 
HETATM    9  N2  UNL     1      10.515  45.526  12.817  1.00  0.00    -0.352 N 
HETATM   10  C4  UNL     1       9.605  44.886  12.049  1.00  0.00     0.092 C 
ATOM     11  H2  UNL     1      11.299  45.964  12.335  1.00  0.00     0.166 HD
HETATM   12  C3  UNL     1       8.645  43.946  12.441  1.00  0.00     0.046 C 
HETATM   13  C2  UNL     1       8.102  43.734  13.691  1.00  0.00     0.029 C 
HETATM   14  C14 UNL     1       8.724  44.057  14.887  1.00  0.00     0.045 C 
BRANCH   8  15
HETATM   15  N3  UNL     1      11.142  46.608  14.657  1.00  0.00    -0.385 N 
ATOM     16  H32 UNL     1      10.623  47.483  14.726  1.00  0.00     0.157 HD
ATOM     17  H31 UNL     1      12.105  46.400  14.920  1.00  0.00     0.157 HD
ENDBRANCH   8  15
BRANCH  13  18
HETATM   18  N1  UNL     1       6.937  43.198  13.738  1.00  0.00    -0.394 N 
HETATM   19  C1  UNL     1       6.707  42.104  14.653  1.00  0.00     0.146 C 
ATOM     20  H1  UNL     1       6.186  43.539  13.139  1.00  0.00     0.159 HD
ENDBRANCH  13  18
ENDBRANCH   1   7
BRANCH   5  21
HETATM   21  C12 UNL     1       9.542  46.089  19.881  1.00  0.00     0.147 A 
HETATM   22  N4  UNL     1       8.252  45.937  20.227  1.00  0.00    -0.268 N 
HETATM   23  N5  UNL     1       8.041  46.689  21.290  1.00  0.00    -0.227 N 
ATOM     24  H4  UNL     1       7.565  45.348  19.756  1.00  0.00     0.190 HD
HETATM   25  N6  UNL     1       9.141  47.311  21.631  1.00  0.00    -0.227 N 
ATOM     26  H5  UNL     1       7.148  46.774  21.777  1.00  0.00     0.210 HD
HETATM   27  N7  UNL     1      10.059  46.947  20.773  1.00  0.00    -0.268 N 
ATOM     28  H6  UNL     1       9.259  47.954  22.413  1.00  0.00     0.210 HD
ATOM     29  H7  UNL     1      11.027  47.269  20.781  1.00  0.00     0.190 HD
ENDBRANCH   5  21
TORSDOF 4
ENDMDL
