MODEL 1
REMARK VINA RESULT: -7.039636428      0.000      0.000
REMARK  3 active torsions:
REMARK  status: ('A' for Active; 'I' for Inactive)
REMARK    1  A    between atoms: C3_3  and  N1_4 
REMARK    2  A    between atoms: N1_4  and  C4_6 
REMARK    3  A    between atoms: C8_16  and  C9_17 
ROOT
HETATM    1  C1  UNL     1      18.868  45.170  21.393  1.00  0.00     0.014 C 
HETATM    2  C2  UNL     1      18.378  45.199  20.291  1.00  0.00    -0.097 C 
HETATM    3  C3  UNL     1      17.761  45.252  18.946  1.00  0.00     0.231 C 
ENDROOT
BRANCH   3   4
HETATM    4  N1  UNL     1      16.411  45.704  19.112  1.00  0.00    -0.216 N 
ATOM      5  H1  UNL     1      16.260  46.510  19.719  1.00  0.00     0.178 HD
BRANCH   4   6
HETATM    6  C4  UNL     1      15.379  45.181  18.563  1.00  0.00     0.680 A 
HETATM    7  N2  UNL     1      15.522  44.319  17.552  1.00  0.00    -0.174 N 
HETATM    8  C5  UNL     1      14.419  43.788  16.994  1.00  0.00     0.149 A 
ATOM      9  H2  UNL     1      16.450  44.068  17.210  1.00  0.00     0.186 HD
HETATM   10  N3  UNL     1      14.256  42.931  15.962  1.00  0.00    -0.285 N 
HETATM   11  C7  UNL     1      13.148  44.144  17.477  1.00  0.00     0.055 A 
HETATM   12  N4  UNL     1      12.972  42.744  15.783  1.00  0.00    -0.309 N 
ATOM     13  H3  UNL     1      15.004  42.503  15.416  1.00  0.00     0.188 HD
HETATM   14  C6  UNL     1      12.258  43.467  16.686  1.00  0.00     0.124 A 
ATOM     15  H4  UNL     1      12.566  42.141  15.067  1.00  0.00     0.186 HD
HETATM   16  C8  UNL     1      13.011  45.034  18.521  1.00  0.00     0.076 A 
HETATM   17  N7  UNL     1      14.176  45.537  19.042  1.00  0.00    -0.190 N 
ATOM     18  H7  UNL     1      14.126  46.201  19.815  1.00  0.00     0.184 HD
BRANCH  16  19
HETATM   19  C9  UNL     1      11.733  45.493  19.039  1.00  0.00     0.009 A 
HETATM   20  C10 UNL     1      11.721  46.359  20.144  1.00  0.00     0.101 A 
HETATM   21  N5  UNL     1      10.602  46.775  20.746  1.00  0.00    -0.373 N 
HETATM   22  C11 UNL     1       9.416  46.358  20.289  1.00  0.00     0.114 A 
ATOM     23  H5  UNL     1      10.652  47.404  21.547  1.00  0.00     0.164 HD
HETATM   24  C12 UNL     1       9.311  45.509  19.215  1.00  0.00     0.062 A 
HETATM   25  N6  UNL     1       8.075  45.053  18.710  1.00  0.00    -0.101 NA
HETATM   26  C13 UNL     1      10.504  45.091  18.607  1.00  0.00     0.043 A 
ENDBRANCH  16  19
ENDBRANCH   4   6
ENDBRANCH   3   4
TORSDOF 3
ENDMDL
MODEL 2
REMARK VINA RESULT: -6.873119665      2.228      3.765
REMARK  3 active torsions:
REMARK  status: ('A' for Active; 'I' for Inactive)
REMARK    1  A    between atoms: C3_3  and  N1_4 
REMARK    2  A    between atoms: N1_4  and  C4_6 
REMARK    3  A    between atoms: C8_16  and  C9_17 
ROOT
HETATM    1  C1  UNL     1      15.285  46.647  16.256  1.00  0.00     0.014 C 
HETATM    2  C2  UNL     1      15.278  45.922  17.219  1.00  0.00    -0.097 C 
HETATM    3  C3  UNL     1      15.246  45.036  18.405  1.00  0.00     0.231 C 
ENDROOT
BRANCH   3   4
HETATM    4  N1  UNL     1      14.217  45.524  19.275  1.00  0.00    -0.216 N 
ATOM      5  H1  UNL     1      14.510  45.931  20.163  1.00  0.00     0.178 HD
BRANCH   4   6
HETATM    6  C4  UNL     1      12.960  45.492  19.031  1.00  0.00     0.680 A 
HETATM    7  N2  UNL     1      12.500  44.831  17.964  1.00  0.00    -0.174 N 
HETATM    8  C5  UNL     1      11.175  44.817  17.734  1.00  0.00     0.149 A 
ATOM      9  H2  UNL     1      13.143  44.347  17.336  1.00  0.00     0.186 HD
HETATM   10  N3  UNL     1      10.440  44.269  16.740  1.00  0.00    -0.285 N 
HETATM   11  C7  UNL     1      10.304  45.488  18.609  1.00  0.00     0.055 A 
HETATM   12  N4  UNL     1       9.182  44.565  16.951  1.00  0.00    -0.309 N 
ATOM     13  H3  UNL     1      10.803  43.721  15.961  1.00  0.00     0.188 HD
HETATM   14  C6  UNL     1       9.053  45.310  18.081  1.00  0.00     0.124 A 
ATOM     15  H4  UNL     1       8.408  44.277  16.351  1.00  0.00     0.186 HD
HETATM   16  C8  UNL     1      10.787  46.165  19.708  1.00  0.00     0.076 A 
HETATM   17  N7  UNL     1      12.147  46.140  19.882  1.00  0.00    -0.190 N 
ATOM     18  H7  UNL     1      12.554  46.628  20.681  1.00  0.00     0.184 HD
BRANCH  16  19
HETATM   19  C9  UNL     1       9.958  46.928  20.626  1.00  0.00     0.009 A 
HETATM   20  C10 UNL     1       8.900  46.278  21.284  1.00  0.00     0.101 A 
HETATM   21  N5  UNL     1       8.032  46.904  22.083  1.00  0.00    -0.373 N 
HETATM   22  C11 UNL     1       8.155  48.221  22.286  1.00  0.00     0.114 A 
ATOM     23  H5  UNL     1       7.281  46.383  22.535  1.00  0.00     0.164 HD
HETATM   24  C12 UNL     1       9.152  48.955  21.692  1.00  0.00     0.062 A 
HETATM   25  N6  UNL     1       9.307  50.343  21.887  1.00  0.00    -0.101 NA
HETATM   26  C13 UNL     1      10.046  48.268  20.858  1.00  0.00     0.043 A 
ENDBRANCH  16  19
ENDBRANCH   4   6
ENDBRANCH   3   4
TORSDOF 3
ENDMDL
MODEL 3
REMARK VINA RESULT: -6.736479645      1.801      5.998
REMARK  3 active torsions:
REMARK  status: ('A' for Active; 'I' for Inactive)
REMARK    1  A    between atoms: C3_3  and  N1_4 
REMARK    2  A    between atoms: N1_4  and  C4_6 
REMARK    3  A    between atoms: C8_16  and  C9_17 
ROOT
HETATM    1  C1  UNL     1       9.670  49.388  21.395  1.00  0.00     0.014 C 
HETATM    2  C2  UNL     1       9.855  48.206  21.237  1.00  0.00    -0.097 C 
HETATM    3  C3  UNL     1      10.105  46.759  21.048  1.00  0.00     0.231 C 
ENDROOT
BRANCH   3   4
HETATM    4  N1  UNL     1      11.468  46.612  20.631  1.00  0.00    -0.216 N 
ATOM      5  H1  UNL     1      12.186  47.029  21.224  1.00  0.00     0.178 HD
BRANCH   4   6
HETATM    6  C4  UNL     1      11.862  46.000  19.577  1.00  0.00     0.680 A 
HETATM    7  N2  UNL     1      10.980  45.353  18.809  1.00  0.00    -0.174 N 
HETATM    8  C5  UNL     1      11.425  44.719  17.709  1.00  0.00     0.149 A 
ATOM      9  H2  UNL     1       9.989  45.340  19.053  1.00  0.00     0.186 HD
HETATM   10  N3  UNL     1      10.785  43.974  16.780  1.00  0.00    -0.285 N 
HETATM   11  C7  UNL     1      12.792  44.747  17.388  1.00  0.00     0.055 A 
HETATM   12  N4  UNL     1      11.672  43.545  15.917  1.00  0.00    -0.309 N 
ATOM     13  H3  UNL     1       9.784  43.779  16.755  1.00  0.00     0.188 HD
HETATM   14  C6  UNL     1      12.912  43.992  16.250  1.00  0.00     0.124 A 
ATOM     15  H4  UNL     1      11.462  42.958  15.109  1.00  0.00     0.186 HD
HETATM   16  C8  UNL     1      13.694  45.419  18.185  1.00  0.00     0.076 A 
HETATM   17  N7  UNL     1      13.173  46.042  19.290  1.00  0.00    -0.190 N 
ATOM     18  H7  UNL     1      13.801  46.551  19.913  1.00  0.00     0.184 HD
BRANCH  16  19
HETATM   19  C9  UNL     1      15.128  45.448  17.950  1.00  0.00     0.009 A 
HETATM   20  C10 UNL     1      15.948  44.553  18.656  1.00  0.00     0.101 A 
HETATM   21  N5  UNL     1      17.282  44.552  18.574  1.00  0.00    -0.373 N 
HETATM   22  C11 UNL     1      17.893  45.440  17.782  1.00  0.00     0.114 A 
ATOM     23  H5  UNL     1      17.830  43.879  19.111  1.00  0.00     0.164 HD
HETATM   24  C12 UNL     1      17.188  46.362  17.048  1.00  0.00     0.062 A 
HETATM   25  N6  UNL     1      17.804  47.310  16.205  1.00  0.00    -0.101 NA
HETATM   26  C13 UNL     1      15.790  46.337  17.157  1.00  0.00     0.043 A 
ENDBRANCH  16  19
ENDBRANCH   4   6
ENDBRANCH   3   4
TORSDOF 3
ENDMDL
MODEL 4
REMARK VINA RESULT: -6.714554402      2.102      6.422
REMARK  3 active torsions:
REMARK  status: ('A' for Active; 'I' for Inactive)
REMARK    1  A    between atoms: C3_3  and  N1_4 
REMARK    2  A    between atoms: N1_4  and  C4_6 
REMARK    3  A    between atoms: C8_16  and  C9_17 
ROOT
HETATM    1  C1  UNL     1       8.418  45.484  19.572  1.00  0.00     0.014 C 
HETATM    2  C2  UNL     1       9.366  45.185  18.890  1.00  0.00    -0.097 C 
HETATM    3  C3  UNL     1      10.545  44.814  18.074  1.00  0.00     0.231 C 
ENDROOT
BRANCH   3   4
HETATM    4  N1  UNL     1      11.713  45.187  18.815  1.00  0.00    -0.216 N 
ATOM      5  H1  UNL     1      11.569  45.662  19.706  1.00  0.00     0.178 HD
BRANCH   4   6
HETATM    6  C4  UNL     1      12.923  44.973  18.454  1.00  0.00     0.680 A 
HETATM    7  N2  UNL     1      13.927  45.601  19.073  1.00  0.00    -0.174 N 
HETATM    8  C5  UNL     1      15.188  45.357  18.670  1.00  0.00     0.149 A 
ATOM      9  H2  UNL     1      13.742  46.252  19.836  1.00  0.00     0.186 HD
HETATM   10  N3  UNL     1      16.376  45.856  19.079  1.00  0.00    -0.285 N 
HETATM   11  C7  UNL     1      15.426  44.457  17.618  1.00  0.00     0.055 A 
HETATM   12  N4  UNL     1      17.319  45.322  18.345  1.00  0.00    -0.309 N 
ATOM     13  H3  UNL     1      16.514  46.531  19.830  1.00  0.00     0.188 HD
HETATM   14  C6  UNL     1      16.784  44.462  17.437  1.00  0.00     0.124 A 
ATOM     15  H4  UNL     1      18.315  45.523  18.440  1.00  0.00     0.186 HD
HETATM   16  C8  UNL     1      14.383  43.813  16.986  1.00  0.00     0.076 A 
HETATM   17  N7  UNL     1      13.125  44.109  17.446  1.00  0.00    -0.190 N 
ATOM     18  H7  UNL     1      12.320  43.659  17.010  1.00  0.00     0.184 HD
BRANCH  16  19
HETATM   19  C9  UNL     1      14.544  42.913  15.857  1.00  0.00     0.009 A 
HETATM   20  C10 UNL     1      15.178  43.387  14.697  1.00  0.00     0.101 A 
HETATM   21  N5  UNL     1      15.304  42.668  13.577  1.00  0.00    -0.373 N 
HETATM   22  C11 UNL     1      14.809  41.426  13.534  1.00  0.00     0.114 A 
ATOM     23  H5  UNL     1      15.774  43.063  12.763  1.00  0.00     0.164 HD
HETATM   24  C12 UNL     1      14.168  40.863  14.610  1.00  0.00     0.062 A 
HETATM   25  N6  UNL     1      13.636  39.557  14.595  1.00  0.00    -0.101 NA
HETATM   26  C13 UNL     1      14.051  41.644  15.769  1.00  0.00     0.043 A 
ENDBRANCH  16  19
ENDBRANCH   4   6
ENDBRANCH   3   4
TORSDOF 3
ENDMDL
MODEL 5
REMARK VINA RESULT: -6.621995489      2.574      5.582
REMARK  3 active torsions:
REMARK  status: ('A' for Active; 'I' for Inactive)
REMARK    1  A    between atoms: C3_3  and  N1_4 
REMARK    2  A    between atoms: N1_4  and  C4_6 
REMARK    3  A    between atoms: C8_16  and  C9_17 
ROOT
HETATM    1  C1  UNL     1       9.529  49.597  21.391  1.00  0.00     0.014 C 
HETATM    2  C2  UNL     1       9.763  48.419  21.496  1.00  0.00    -0.097 C 
HETATM    3  C3  UNL     1      10.058  46.972  21.602  1.00  0.00     0.231 C 
ENDROOT
BRANCH   3   4
HETATM    4  N1  UNL     1       9.852  46.397  20.305  1.00  0.00    -0.216 N 
ATOM      5  H1  UNL     1       8.893  46.362  19.957  1.00  0.00     0.178 HD
BRANCH   4   6
HETATM    6  C4  UNL     1      10.769  45.925  19.546  1.00  0.00     0.680 A 
HETATM    7  N2  UNL     1      12.054  46.051  19.889  1.00  0.00    -0.174 N 
HETATM    8  C5  UNL     1      12.994  45.546  19.071  1.00  0.00     0.149 A 
ATOM      9  H2  UNL     1      12.317  46.522  20.756  1.00  0.00     0.186 HD
HETATM   10  N3  UNL     1      14.344  45.550  19.141  1.00  0.00    -0.285 N 
HETATM   11  C7  UNL     1      12.615  44.900  17.882  1.00  0.00     0.055 A 
HETATM   12  N4  UNL     1      14.812  44.953  18.073  1.00  0.00    -0.309 N 
ATOM     13  H3  UNL     1      14.903  45.949  19.895  1.00  0.00     0.188 HD
HETATM   14  C6  UNL     1      13.790  44.541  17.275  1.00  0.00     0.124 A 
ATOM     15  H4  UNL     1      15.802  44.816  17.869  1.00  0.00     0.186 HD
HETATM   16  C8  UNL     1      11.287  44.773  17.537  1.00  0.00     0.076 A 
HETATM   17  N7  UNL     1      10.382  45.312  18.415  1.00  0.00    -0.190 N 
ATOM     18  H7  UNL     1       9.386  45.244  18.204  1.00  0.00     0.184 HD
BRANCH  16  19
HETATM   19  C9  UNL     1      10.819  44.169  16.301  1.00  0.00     0.009 A 
HETATM   20  C10 UNL     1      11.680  43.312  15.596  1.00  0.00     0.101 A 
HETATM   21  N5  UNL     1      11.378  42.771  14.412  1.00  0.00    -0.373 N 
HETATM   22  C11 UNL     1      10.197  43.044  13.846  1.00  0.00     0.114 A 
ATOM     23  H5  UNL     1      12.042  42.155  13.944  1.00  0.00     0.164 HD
HETATM   24  C12 UNL     1       9.280  43.870  14.446  1.00  0.00     0.062 A 
HETATM   25  N6  UNL     1       8.027  44.177  13.875  1.00  0.00    -0.101 NA
HETATM   26  C13 UNL     1       9.628  44.423  15.688  1.00  0.00     0.043 A 
ENDBRANCH  16  19
ENDBRANCH   4   6
ENDBRANCH   3   4
TORSDOF 3
ENDMDL
