MODEL 1
REMARK VINA RESULT: -4.304759957      0.000      0.000
REMARK  4 active torsions:
REMARK  status: ('A' for Active; 'I' for Inactive)
REMARK    1  A    between atoms: C2_2  and  C3_3 
REMARK    2  A    between atoms: C4_4  and  O1_5 
REMARK    3  A    between atoms: C6_9  and  O2_11 
REMARK    4  A    between atoms: C8_13  and  C9_14 
ROOT
HETATM    1  C3  UNL     1      10.931  45.569  15.216  1.00  0.00     0.282 C 
HETATM    2  C4  UNL     1      10.477  44.298  15.846  1.00  0.00     0.393 C 
HETATM    3  N1  UNL     1      10.973  44.197  17.189  1.00  0.00     0.152 N 
HETATM    4  C5  UNL     1      10.189  44.939  18.145  1.00  0.00     0.317 C 
HETATM    5  C6  UNL     1      12.386  44.439  17.308  1.00  0.00     0.296 C 
HETATM    6  C7  UNL     1      13.132  43.187  16.993  1.00  0.00     0.084 C 
HETATM    7  C8  UNL     1      12.840  45.656  16.549  1.00  0.00     0.355 C 
HETATM    8  N4  UNL     1      12.367  45.739  15.206  1.00  0.00     0.110 N 
HETATM    9  C13 UNL     1      13.032  44.938  14.241  1.00  0.00     0.311 C 
ENDROOT
BRANCH   7  10
HETATM   10  C9  UNL     1      14.278  45.824  16.712  1.00  0.00     0.122 A 
HETATM   11  N2  UNL     1      15.135  44.845  17.036  1.00  0.00    -0.352 N 
HETATM   12  C10 UNL     1      16.374  45.324  17.106  1.00  0.00     0.106 A 
ATOM     13  H2  UNL     1      14.875  43.874  17.206  1.00  0.00     0.166 HD
HETATM   14  C11 UNL     1      16.251  46.666  16.807  1.00  0.00     0.108 A 
HETATM   15  N3  UNL     1      14.966  46.971  16.565  1.00  0.00    -0.348 N 
HETATM   16  C12 UNL     1      14.485  48.293  16.220  1.00  0.00     0.157 C 
ENDBRANCH   7  10
BRANCH   5  17
HETATM   17  O2  UNL     1      12.614  44.752  18.671  1.00  0.00    -0.361 OA
ATOM     18  H2  UNL     1      12.734  43.919  19.114  1.00  0.00     0.212 HD
ENDBRANCH   5  17
BRANCH   1  19
HETATM   19  C2  UNL     1      10.413  45.772  13.820  1.00  0.00     0.036 C 
HETATM   20  C1  UNL     1      10.068  47.180  13.493  1.00  0.00     0.007 C 
ENDBRANCH   1  19
BRANCH   2  21
HETATM   21  O1  UNL     1       9.085  44.324  15.913  1.00  0.00    -0.366 OA
ATOM     22  H1  UNL     1       8.822  45.173  16.249  1.00  0.00     0.212 HD
ENDBRANCH   2  21
TORSDOF 4
ENDMDL
MODEL 2
REMARK VINA RESULT: -4.154495145      2.405      3.611
REMARK  4 active torsions:
REMARK  status: ('A' for Active; 'I' for Inactive)
REMARK    1  A    between atoms: C2_2  and  C3_3 
REMARK    2  A    between atoms: C4_4  and  O1_5 
REMARK    3  A    between atoms: C6_9  and  O2_11 
REMARK    4  A    between atoms: C8_13  and  C9_14 
ROOT
HETATM    1  C3  UNL     1      12.412  43.967  16.107  1.00  0.00     0.282 C 
HETATM    2  C4  UNL     1      12.091  43.656  14.686  1.00  0.00     0.393 C 
HETATM    3  N1  UNL     1      13.113  42.831  14.108  1.00  0.00     0.152 N 
HETATM    4  C5  UNL     1      12.971  41.433  14.434  1.00  0.00     0.317 C 
HETATM    5  C6  UNL     1      14.447  43.326  14.315  1.00  0.00     0.296 C 
HETATM    6  C7  UNL     1      14.762  44.351  13.278  1.00  0.00     0.084 C 
HETATM    7  C8  UNL     1      14.701  43.759  15.733  1.00  0.00     0.355 C 
HETATM    8  N4  UNL     1      13.697  44.602  16.294  1.00  0.00     0.110 N 
HETATM    9  C13 UNL     1      13.721  45.970  15.914  1.00  0.00     0.311 C 
ENDROOT
BRANCH   7  10
HETATM   10  C9  UNL     1      16.066  44.255  15.855  1.00  0.00     0.122 A 
HETATM   11  N2  UNL     1      16.914  44.432  14.832  1.00  0.00    -0.352 N 
HETATM   12  C10 UNL     1      18.079  44.896  15.276  1.00  0.00     0.106 A 
ATOM     13  H2  UNL     1      16.698  44.239  13.854  1.00  0.00     0.166 HD
HETATM   14  C11 UNL     1      17.918  45.002  16.643  1.00  0.00     0.108 A 
HETATM   15  N3  UNL     1      16.684  44.609  16.996  1.00  0.00    -0.348 N 
HETATM   16  C12 UNL     1      16.183  44.594  18.355  1.00  0.00     0.157 C 
ENDBRANCH   7  10
BRANCH   5  17
HETATM   17  O2  UNL     1      15.310  42.220  14.110  1.00  0.00    -0.361 OA
ATOM     18  H2  UNL     1      15.190  41.959  13.204  1.00  0.00     0.212 HD
ENDBRANCH   5  17
BRANCH   1  19
HETATM   19  C2  UNL     1      11.363  44.792  16.798  1.00  0.00     0.036 C 
HETATM   20  C1  UNL     1      11.236  44.526  18.256  1.00  0.00     0.007 C 
ENDBRANCH   1  19
BRANCH   2  21
HETATM   21  O1  UNL     1      10.901  42.932  14.661  1.00  0.00    -0.366 OA
ATOM     22  H1  UNL     1      10.725  42.686  13.760  1.00  0.00     0.212 HD
ENDBRANCH   2  21
TORSDOF 4
ENDMDL
MODEL 3
REMARK VINA RESULT: -4.139110841      2.426      4.491
REMARK  4 active torsions:
REMARK  status: ('A' for Active; 'I' for Inactive)
REMARK    1  A    between atoms: C2_2  and  C3_3 
REMARK    2  A    between atoms: C4_4  and  O1_5 
REMARK    3  A    between atoms: C6_9  and  O2_11 
REMARK    4  A    between atoms: C8_13  and  C9_14 
ROOT
HETATM    1  C3  UNL     1      12.792  44.792  16.880  1.00  0.00     0.282 C 
HETATM    2  C4  UNL     1      13.953  45.375  17.609  1.00  0.00     0.393 C 
HETATM    3  N1  UNL     1      14.820  46.070  16.701  1.00  0.00     0.152 N 
HETATM    4  C5  UNL     1      14.365  47.401  16.382  1.00  0.00     0.317 C 
HETATM    5  C6  UNL     1      15.182  45.303  15.539  1.00  0.00     0.296 C 
HETATM    6  C7  UNL     1      16.330  44.412  15.871  1.00  0.00     0.084 C 
HETATM    7  C8  UNL     1      14.007  44.615  14.900  1.00  0.00     0.355 C 
HETATM    8  N4  UNL     1      13.163  43.902  15.803  1.00  0.00     0.110 N 
HETATM    9  C13 UNL     1      13.620  42.631  16.241  1.00  0.00     0.311 C 
ENDROOT
BRANCH   7  10
HETATM   10  C9  UNL     1      14.458  43.854  13.742  1.00  0.00     0.122 A 
HETATM   11  N2  UNL     1      15.710  43.414  13.551  1.00  0.00    -0.352 N 
HETATM   12  C10 UNL     1      15.795  42.755  12.399  1.00  0.00     0.106 A 
ATOM     13  H2  UNL     1      16.486  43.563  14.196  1.00  0.00     0.166 HD
HETATM   14  C11 UNL     1      14.520  42.804  11.870  1.00  0.00     0.108 A 
HETATM   15  N3  UNL     1      13.703  43.477  12.694  1.00  0.00    -0.348 N 
HETATM   16  C12 UNL     1      12.296  43.715  12.444  1.00  0.00     0.157 C 
ENDBRANCH   7  10
BRANCH   5  17
HETATM   17  O2  UNL     1      15.624  46.243  14.574  1.00  0.00    -0.361 OA
ATOM     18  H2  UNL     1      16.333  45.820  14.103  1.00  0.00     0.212 HD
ENDBRANCH   5  17
BRANCH   1  19
HETATM   19  C2  UNL     1      11.811  44.085  17.772  1.00  0.00     0.036 C 
HETATM   20  C1  UNL     1      10.480  44.742  17.861  1.00  0.00     0.007 C 
ENDBRANCH   1  19
BRANCH   2  21
HETATM   21  O1  UNL     1      13.464  46.309  18.521  1.00  0.00    -0.366 OA
ATOM     22  H1  UNL     1      12.794  45.885  19.045  1.00  0.00     0.212 HD
ENDBRANCH   2  21
TORSDOF 4
ENDMDL
MODEL 4
REMARK VINA RESULT: -4.074473699      2.202      4.873
REMARK  4 active torsions:
REMARK  status: ('A' for Active; 'I' for Inactive)
REMARK    1  A    between atoms: C2_2  and  C3_3 
REMARK    2  A    between atoms: C4_4  and  O1_5 
REMARK    3  A    between atoms: C6_9  and  O2_11 
REMARK    4  A    between atoms: C8_13  and  C9_14 
ROOT
HETATM    1  C3  UNL     1      14.497  44.804  17.423  1.00  0.00     0.282 C 
HETATM    2  C4  UNL     1      13.392  45.789  17.588  1.00  0.00     0.393 C 
HETATM    3  N1  UNL     1      12.132  45.196  17.243  1.00  0.00     0.152 N 
HETATM    4  C5  UNL     1      11.566  44.400  18.304  1.00  0.00     0.317 C 
HETATM    5  C6  UNL     1      12.134  44.524  15.971  1.00  0.00     0.296 C 
HETATM    6  C7  UNL     1      11.905  45.519  14.884  1.00  0.00     0.084 C 
HETATM    7  C8  UNL     1      13.333  43.636  15.777  1.00  0.00     0.355 C 
HETATM    8  N4  UNL     1      14.586  44.239  16.095  1.00  0.00     0.110 N 
HETATM    9  C13 UNL     1      15.135  45.125  15.131  1.00  0.00     0.311 C 
ENDROOT
BRANCH   7  10
HETATM   10  C9  UNL     1      13.264  43.004  14.466  1.00  0.00     0.122 A 
HETATM   11  N2  UNL     1      12.801  43.590  13.353  1.00  0.00    -0.352 N 
HETATM   12  C10 UNL     1      12.873  42.747  12.326  1.00  0.00     0.106 A 
ATOM     13  H2  UNL     1      12.446  44.544  13.300  1.00  0.00     0.166 HD
HETATM   14  C11 UNL     1      13.408  41.590  12.857  1.00  0.00     0.108 A 
HETATM   15  N3  UNL     1      13.648  41.749  14.168  1.00  0.00    -0.348 N 
HETATM   16  C12 UNL     1      14.209  40.731  15.031  1.00  0.00     0.157 C 
ENDBRANCH   7  10
BRANCH   5  17
HETATM   17  O2  UNL     1      11.025  43.641  15.996  1.00  0.00    -0.361 OA
ATOM     18  H2  UNL     1      10.978  43.257  15.128  1.00  0.00     0.212 HD
ENDBRANCH   5  17
BRANCH   1  19
HETATM   19  C2  UNL     1      15.847  45.337  17.811  1.00  0.00     0.036 C 
HETATM   20  C1  UNL     1      16.402  44.751  19.059  1.00  0.00     0.007 C 
ENDBRANCH   1  19
BRANCH   2  21
HETATM   21  O1  UNL     1      13.333  46.149  18.933  1.00  0.00    -0.366 OA
ATOM     22  H1  UNL     1      13.143  47.079  18.981  1.00  0.00     0.212 HD
ENDBRANCH   2  21
TORSDOF 4
ENDMDL
MODEL 5
REMARK VINA RESULT: -4.065948686      2.221      4.812
REMARK  4 active torsions:
REMARK  status: ('A' for Active; 'I' for Inactive)
REMARK    1  A    between atoms: C2_2  and  C3_3 
REMARK    2  A    between atoms: C4_4  and  O1_5 
REMARK    3  A    between atoms: C6_9  and  O2_11 
REMARK    4  A    between atoms: C8_13  and  C9_14 
ROOT
HETATM    1  C3  UNL     1      13.497  45.470  18.020  1.00  0.00     0.282 C 
HETATM    2  C4  UNL     1      14.950  45.146  18.047  1.00  0.00     0.393 C 
HETATM    3  N1  UNL     1      15.582  45.564  16.828  1.00  0.00     0.152 N 
HETATM    4  C5  UNL     1      15.907  46.969  16.806  1.00  0.00     0.317 C 
HETATM    5  C6  UNL     1      14.905  45.122  15.640  1.00  0.00     0.296 C 
HETATM    6  C7  UNL     1      15.326  43.727  15.319  1.00  0.00     0.084 C 
HETATM    7  C8  UNL     1      13.418  45.339  15.695  1.00  0.00     0.355 C 
HETATM    8  N4  UNL     1      12.789  44.897  16.897  1.00  0.00     0.110 N 
HETATM    9  C13 UNL     1      12.551  43.502  17.021  1.00  0.00     0.311 C 
ENDROOT
BRANCH   7  10
HETATM   10  C9  UNL     1      12.808  44.856  14.463  1.00  0.00     0.122 A 
HETATM   11  N2  UNL     1      13.251  43.817  13.741  1.00  0.00    -0.352 N 
HETATM   12  C10 UNL     1      12.476  43.634  12.676  1.00  0.00     0.106 A 
ATOM     13  H2  UNL     1      14.065  43.249  13.975  1.00  0.00     0.166 HD
HETATM   14  C11 UNL     1      11.515  44.621  12.765  1.00  0.00     0.108 A 
HETATM   15  N3  UNL     1      11.719  45.369  13.860  1.00  0.00    -0.348 N 
HETATM   16  C12 UNL     1      10.893  46.490  14.256  1.00  0.00     0.157 C 
ENDBRANCH   7  10
BRANCH   5  17
HETATM   17  O2  UNL     1      15.359  45.966  14.595  1.00  0.00    -0.361 OA
ATOM     18  H2  UNL     1      14.907  46.793  14.713  1.00  0.00     0.212 HD
ENDBRANCH   5  17
BRANCH   1  19
HETATM   19  C2  UNL     1      12.771  45.104  19.283  1.00  0.00     0.036 C 
HETATM   20  C1  UNL     1      11.982  46.214  19.880  1.00  0.00     0.007 C 
ENDBRANCH   1  19
BRANCH   2  21
HETATM   21  O1  UNL     1      15.532  45.864  19.091  1.00  0.00    -0.366 OA
ATOM     22  H1  UNL     1      16.424  46.075  18.841  1.00  0.00     0.212 HD
ENDBRANCH   2  21
TORSDOF 4
ENDMDL
