MODEL 1
REMARK VINA RESULT: -6.415607861      0.000      0.000
REMARK  5 active torsions:
REMARK  status: ('A' for Active; 'I' for Inactive)
REMARK    1  A    between atoms: N1_1  and  N2_4 
REMARK    2  A    between atoms: N2_4  and  C1_6 
REMARK    3  A    between atoms: C2_9  and  C3_10 
REMARK    4  A    between atoms: C8_19  and  N6_20 
REMARK    5  A    between atoms: N6_20  and  C9_22 
ROOT
HETATM    1  C1  UNL     1      14.933  45.273  18.494  1.00  0.00     0.712 A 
HETATM    2  N3  UNL     1      13.741  45.530  19.061  1.00  0.00    -0.172 N 
ATOM      3  H3  UNL     1      13.715  45.886  20.016  1.00  0.00     0.186 HD
HETATM    4  C2  UNL     1      12.566  45.330  18.397  1.00  0.00     0.163 A 
HETATM    5  N5  UNL     1      12.632  44.864  17.152  1.00  0.00    -0.173 N 
ATOM      6  H5  UNL     1      11.764  44.709  16.640  1.00  0.00     0.186 HD
HETATM    7  C8  UNL     1      13.804  44.591  16.540  1.00  0.00     0.699 A 
HETATM    8  N7  UNL     1      14.932  44.805  17.234  1.00  0.00    -0.021 N 
ATOM      9  H7  UNL     1      15.827  44.603  16.787  1.00  0.00     0.203 HD
ENDROOT
BRANCH   7  10
HETATM   10  N6  UNL     1      13.903  44.142  15.343  1.00  0.00    -0.191 N 
ATOM     11  H6  UNL     1      14.252  44.770  14.619  1.00  0.00     0.184 HD
BRANCH  10  12
HETATM   12  C9  UNL     1      13.554  42.822  14.974  1.00  0.00     0.049 A 
HETATM   13  C10 UNL     1      12.421  42.530  14.242  1.00  0.00     0.030 A 
HETATM   14  C11 UNL     1      12.138  41.219  13.915  1.00  0.00     0.002 A 
HETATM   15  C12 UNL     1      12.971  40.165  14.305  1.00  0.00     0.000 A 
HETATM   16  C13 UNL     1      14.096  40.462  15.033  1.00  0.00     0.002 A 
HETATM   17  C14 UNL     1      14.375  41.770  15.358  1.00  0.00     0.030 A 
ENDBRANCH  10  12
ENDBRANCH   7  10
BRANCH   4  18
HETATM   18  C3  UNL     1      11.339  45.649  19.124  1.00  0.00     0.077 A 
HETATM   19  C4  UNL     1      11.380  46.482  20.216  1.00  0.00     0.033 A 
HETATM   20  C5  UNL     1      10.248  46.813  20.937  1.00  0.00     0.004 A 
HETATM   21  C6  UNL     1       9.046  46.279  20.530  1.00  0.00     0.017 A 
HETATM   22  C7  UNL     1       9.054  45.451  19.432  1.00  0.00     0.088 A 
HETATM   23  N4  UNL     1      10.154  45.136  18.741  1.00  0.00    -0.363 N 
ATOM     24  H4  UNL     1      10.097  44.515  17.934  1.00  0.00     0.165 HD
ENDBRANCH   4  18
BRANCH   1  25
HETATM   25  N2  UNL     1      16.043  45.465  19.125  1.00  0.00    -0.138 N 
ATOM     26  H2  UNL     1      16.253  46.410  19.444  1.00  0.00     0.205 HD
BRANCH  25  27
HETATM   27  N1  UNL     1      16.961  44.476  19.395  1.00  0.00    -0.331 N 
ATOM     28  H12 UNL     1      17.313  43.945  18.599  1.00  0.00     0.177 HD
ATOM     29  H11 UNL     1      17.303  44.249  20.329  1.00  0.00     0.177 HD
ENDBRANCH  25  27
ENDBRANCH   1  25
TORSDOF 5
ENDMDL
MODEL 2
REMARK VINA RESULT: -6.405188155      0.057      1.039
REMARK  5 active torsions:
REMARK  status: ('A' for Active; 'I' for Inactive)
REMARK    1  A    between atoms: N1_1  and  N2_4 
REMARK    2  A    between atoms: N2_4  and  C1_6 
REMARK    3  A    between atoms: C2_9  and  C3_10 
REMARK    4  A    between atoms: C8_19  and  N6_20 
REMARK    5  A    between atoms: N6_20  and  C9_22 
ROOT
HETATM    1  C1  UNL     1      14.894  45.280  18.450  1.00  0.00     0.712 A 
HETATM    2  N3  UNL     1      13.710  45.541  19.033  1.00  0.00    -0.172 N 
ATOM      3  H3  UNL     1      13.698  45.906  19.985  1.00  0.00     0.186 HD
HETATM    4  C2  UNL     1      12.525  45.333  18.390  1.00  0.00     0.163 A 
HETATM    5  N5  UNL     1      12.573  44.856  17.148  1.00  0.00    -0.173 N 
ATOM      6  H5  UNL     1      11.697  44.695  16.651  1.00  0.00     0.186 HD
HETATM    7  C8  UNL     1      13.735  44.578  16.521  1.00  0.00     0.699 A 
HETATM    8  N7  UNL     1      14.874  44.800  17.195  1.00  0.00    -0.021 N 
ATOM      9  H7  UNL     1      15.762  44.595  16.736  1.00  0.00     0.203 HD
ENDROOT
BRANCH   7  10
HETATM   10  N6  UNL     1      13.817  44.118  15.327  1.00  0.00    -0.191 N 
ATOM     11  H6  UNL     1      14.088  44.758  14.580  1.00  0.00     0.184 HD
BRANCH  10  12
HETATM   12  C9  UNL     1      13.551  42.771  14.990  1.00  0.00     0.049 A 
HETATM   13  C10 UNL     1      14.382  41.734  15.365  1.00  0.00     0.030 A 
HETATM   14  C11 UNL     1      14.064  40.440  15.004  1.00  0.00     0.002 A 
HETATM   15  C12 UNL     1      12.915  40.142  14.261  1.00  0.00     0.000 A 
HETATM   16  C13 UNL     1      12.094  41.178  13.892  1.00  0.00     0.002 A 
HETATM   17  C14 UNL     1      12.414  42.466  14.254  1.00  0.00     0.030 A 
ENDBRANCH  10  12
ENDBRANCH   7  10
BRANCH   4  18
HETATM   18  C3  UNL     1      11.310  45.657  19.133  1.00  0.00     0.077 A 
HETATM   19  C4  UNL     1      11.367  46.499  20.217  1.00  0.00     0.033 A 
HETATM   20  C5  UNL     1      10.245  46.836  20.953  1.00  0.00     0.004 A 
HETATM   21  C6  UNL     1       9.038  46.299  20.567  1.00  0.00     0.017 A 
HETATM   22  C7  UNL     1       9.029  45.462  19.475  1.00  0.00     0.088 A 
HETATM   23  N4  UNL     1      10.118  45.142  18.771  1.00  0.00    -0.363 N 
ATOM     24  H4  UNL     1      10.050  44.515  17.969  1.00  0.00     0.165 HD
ENDBRANCH   4  18
BRANCH   1  25
HETATM   25  N2  UNL     1      16.013  45.479  19.062  1.00  0.00    -0.138 N 
ATOM     26  H2  UNL     1      16.228  46.428  19.367  1.00  0.00     0.205 HD
BRANCH  25  27
HETATM   27  N1  UNL     1      16.934  44.493  19.331  1.00  0.00    -0.331 N 
ATOM     28  H12 UNL     1      16.988  43.720  18.668  1.00  0.00     0.177 HD
ATOM     29  H11 UNL     1      17.556  44.493  20.140  1.00  0.00     0.177 HD
ENDBRANCH  25  27
ENDBRANCH   1  25
TORSDOF 5
ENDMDL
MODEL 3
REMARK VINA RESULT: -6.368860135      1.643      6.411
REMARK  5 active torsions:
REMARK  status: ('A' for Active; 'I' for Inactive)
REMARK    1  A    between atoms: N1_1  and  N2_4 
REMARK    2  A    between atoms: N2_4  and  C1_6 
REMARK    3  A    between atoms: C2_9  and  C3_10 
REMARK    4  A    between atoms: C8_19  and  N6_20 
REMARK    5  A    between atoms: N6_20  and  C9_22 
ROOT
HETATM    1  C1  UNL     1      14.585  46.657  16.353  1.00  0.00     0.712 A 
HETATM    2  N3  UNL     1      14.684  45.513  15.652  1.00  0.00    -0.172 N 
ATOM      3  H3  UNL     1      15.095  45.539  14.719  1.00  0.00     0.186 HD
HETATM    4  C2  UNL     1      14.250  44.319  16.150  1.00  0.00     0.163 A 
HETATM    5  N5  UNL     1      13.718  44.316  17.369  1.00  0.00    -0.173 N 
ATOM      6  H5  UNL     1      13.389  43.433  17.759  1.00  0.00     0.186 HD
HETATM    7  C8  UNL     1      13.597  45.438  18.112  1.00  0.00     0.699 A 
HETATM    8  N7  UNL     1      14.038  46.587  17.578  1.00  0.00    -0.021 N 
ATOM      9  H7  UNL     1      13.954  47.444  18.125  1.00  0.00     0.203 HD
ENDROOT
BRANCH   7  10
HETATM   10  N6  UNL     1      13.090  45.470  19.289  1.00  0.00    -0.191 N 
ATOM     11  H6  UNL     1      13.707  45.311  20.085  1.00  0.00     0.184 HD
BRANCH  10  12
HETATM   12  C9  UNL     1      11.720  45.715  19.541  1.00  0.00     0.049 A 
HETATM   13  C10 UNL     1      10.711  45.082  18.843  1.00  0.00     0.030 A 
HETATM   14  C11 UNL     1       9.393  45.367  19.139  1.00  0.00     0.002 A 
HETATM   15  C12 UNL     1       9.043  46.287  20.133  1.00  0.00     0.000 A 
HETATM   16  C13 UNL     1      10.051  46.913  20.823  1.00  0.00     0.002 A 
HETATM   17  C14 UNL     1      11.363  46.627  20.525  1.00  0.00     0.030 A 
ENDBRANCH  10  12
ENDBRANCH   7  10
BRANCH   4  18
HETATM   18  C3  UNL     1      14.415  43.150  15.288  1.00  0.00     0.077 A 
HETATM   19  C4  UNL     1      14.047  41.905  15.737  1.00  0.00     0.033 A 
HETATM   20  C5  UNL     1      14.183  40.769  14.960  1.00  0.00     0.004 A 
HETATM   21  C6  UNL     1      14.707  40.912  13.696  1.00  0.00     0.017 A 
HETATM   22  C7  UNL     1      15.060  42.178  13.289  1.00  0.00     0.088 A 
HETATM   23  N4  UNL     1      14.926  43.271  14.047  1.00  0.00    -0.363 N 
ATOM     24  H4  UNL     1      15.206  44.185  13.691  1.00  0.00     0.165 HD
ENDBRANCH   4  18
BRANCH   1  25
HETATM   25  N2  UNL     1      14.997  47.784  15.877  1.00  0.00    -0.138 N 
ATOM     26  H2  UNL     1      15.326  47.803  14.912  1.00  0.00     0.205 HD
BRANCH  25  27
HETATM   27  N1  UNL     1      15.020  48.962  16.588  1.00  0.00    -0.331 N 
ATOM     28  H12 UNL     1      15.249  48.896  17.581  1.00  0.00     0.177 HD
ATOM     29  H11 UNL     1      14.826  49.880  16.187  1.00  0.00     0.177 HD
ENDBRANCH  25  27
ENDBRANCH   1  25
TORSDOF 5
ENDMDL
MODEL 4
REMARK VINA RESULT: -6.352914812      0.591      1.463
REMARK  5 active torsions:
REMARK  status: ('A' for Active; 'I' for Inactive)
REMARK    1  A    between atoms: N1_1  and  N2_4 
REMARK    2  A    between atoms: N2_4  and  C1_6 
REMARK    3  A    between atoms: C2_9  and  C3_10 
REMARK    4  A    between atoms: C8_19  and  N6_20 
REMARK    5  A    between atoms: N6_20  and  C9_22 
ROOT
HETATM    1  C1  UNL     1      14.989  45.304  18.470  1.00  0.00     0.712 A 
HETATM    2  N3  UNL     1      13.789  45.549  19.026  1.00  0.00    -0.172 N 
ATOM      3  H3  UNL     1      13.751  45.922  19.974  1.00  0.00     0.186 HD
HETATM    4  C2  UNL     1      12.622  45.313  18.360  1.00  0.00     0.163 A 
HETATM    5  N5  UNL     1      12.704  44.826  17.124  1.00  0.00    -0.173 N 
ATOM      6  H5  UNL     1      11.843  44.644  16.610  1.00  0.00     0.186 HD
HETATM    7  C8  UNL     1      13.885  44.564  16.524  1.00  0.00     0.699 A 
HETATM    8  N7  UNL     1      15.005  44.813  17.220  1.00  0.00    -0.021 N 
ATOM      9  H7  UNL     1      15.906  44.620  16.781  1.00  0.00     0.203 HD
ENDROOT
BRANCH   7  10
HETATM   10  N6  UNL     1      14.000  44.095  15.336  1.00  0.00    -0.191 N 
ATOM     11  H6  UNL     1      14.364  44.708  14.608  1.00  0.00     0.184 HD
BRANCH  10  12
HETATM   12  C9  UNL     1      13.648  42.771  14.983  1.00  0.00     0.049 A 
HETATM   13  C10 UNL     1      14.392  41.676  15.372  1.00  0.00     0.030 A 
HETATM   14  C11 UNL     1      13.993  40.409  14.993  1.00  0.00     0.002 A 
HETATM   15  C12 UNL     1      12.847  40.198  14.218  1.00  0.00     0.000 A 
HETATM   16  C13 UNL     1      12.112  41.292  13.835  1.00  0.00     0.002 A 
HETATM   17  C14 UNL     1      12.513  42.552  14.215  1.00  0.00     0.030 A 
ENDBRANCH  10  12
ENDBRANCH   7  10
BRANCH   4  18
HETATM   18  C3  UNL     1      11.386  45.622  19.074  1.00  0.00     0.077 A 
HETATM   19  C4  UNL     1      10.193  45.089  18.651  1.00  0.00     0.033 A 
HETATM   20  C5  UNL     1       8.995  45.350  19.292  1.00  0.00     0.004 A 
HETATM   21  C6  UNL     1       9.023  46.176  20.393  1.00  0.00     0.017 A 
HETATM   22  C7  UNL     1      10.240  46.686  20.781  1.00  0.00     0.088 A 
HETATM   23  N4  UNL     1      11.392  46.428  20.154  1.00  0.00    -0.363 N 
ATOM     24  H4  UNL     1      12.265  46.836  20.488  1.00  0.00     0.165 HD
ENDBRANCH   4  18
BRANCH   1  25
HETATM   25  N2  UNL     1      16.092  45.529  19.104  1.00  0.00    -0.138 N 
ATOM     26  H2  UNL     1      16.352  46.500  19.277  1.00  0.00     0.205 HD
BRANCH  25  27
HETATM   27  N1  UNL     1      16.937  44.545  19.560  1.00  0.00    -0.331 N 
ATOM     28  H12 UNL     1      17.222  44.600  20.539  1.00  0.00     0.177 HD
ATOM     29  H11 UNL     1      17.288  43.777  18.987  1.00  0.00     0.177 HD
ENDBRANCH  25  27
ENDBRANCH   1  25
TORSDOF 5
ENDMDL
MODEL 5
REMARK VINA RESULT: -6.331756536      0.932      1.113
REMARK  5 active torsions:
REMARK  status: ('A' for Active; 'I' for Inactive)
REMARK    1  A    between atoms: N1_1  and  N2_4 
REMARK    2  A    between atoms: N2_4  and  C1_6 
REMARK    3  A    between atoms: C2_9  and  C3_10 
REMARK    4  A    between atoms: C8_19  and  N6_20 
REMARK    5  A    between atoms: N6_20  and  C9_22 
ROOT
HETATM    1  C1  UNL     1      15.024  45.532  17.893  1.00  0.00     0.712 A 
HETATM    2  N3  UNL     1      13.847  45.846  18.462  1.00  0.00    -0.172 N 
ATOM      3  H3  UNL     1      13.758  46.733  18.956  1.00  0.00     0.186 HD
HETATM    4  C2  UNL     1      12.768  45.013  18.400  1.00  0.00     0.163 A 
HETATM    5  N5  UNL     1      12.914  43.861  17.749  1.00  0.00    -0.173 N 
ATOM      6  H5  UNL     1      12.119  43.226  17.691  1.00  0.00     0.186 HD
HETATM    7  C8  UNL     1      14.075  43.502  17.162  1.00  0.00     0.699 A 
HETATM    8  N7  UNL     1      15.108  44.355  17.250  1.00  0.00    -0.021 N 
ATOM      9  H7  UNL     1      15.993  44.098  16.812  1.00  0.00     0.203 HD
ENDROOT
BRANCH   7  10
HETATM   10  N6  UNL     1      14.251  42.401  16.527  1.00  0.00    -0.191 N 
ATOM     11  H6  UNL     1      15.035  41.807  16.797  1.00  0.00     0.184 HD
BRANCH  10  12
HETATM   12  C9  UNL     1      13.414  41.968  15.473  1.00  0.00     0.049 A 
HETATM   13  C10 UNL     1      12.439  42.773  14.919  1.00  0.00     0.030 A 
HETATM   14  C11 UNL     1      11.656  42.288  13.891  1.00  0.00     0.002 A 
HETATM   15  C12 UNL     1      11.819  40.993  13.387  1.00  0.00     0.000 A 
HETATM   16  C13 UNL     1      12.791  40.198  13.942  1.00  0.00     0.002 A 
HETATM   17  C14 UNL     1      13.569  40.684  14.966  1.00  0.00     0.030 A 
ENDBRANCH  10  12
ENDBRANCH   7  10
BRANCH   4  18
HETATM   18  C3  UNL     1      11.547  45.471  19.059  1.00  0.00     0.077 A 
HETATM   19  C4  UNL     1      11.618  46.346  20.115  1.00  0.00     0.033 A 
HETATM   20  C5  UNL     1      10.492  46.808  20.772  1.00  0.00     0.004 A 
HETATM   21  C6  UNL     1       9.265  46.363  20.335  1.00  0.00     0.017 A 
HETATM   22  C7  UNL     1       9.242  45.488  19.274  1.00  0.00     0.088 A 
HETATM   23  N4  UNL     1      10.336  45.046  18.646  1.00  0.00    -0.363 N 
ATOM     24  H4  UNL     1      10.256  44.397  17.863  1.00  0.00     0.165 HD
ENDBRANCH   4  18
BRANCH   1  25
HETATM   25  N2  UNL     1      16.042  46.323  17.954  1.00  0.00    -0.138 N 
ATOM     26  H2  UNL     1      16.223  46.930  17.155  1.00  0.00     0.205 HD
BRANCH  25  27
HETATM   27  N1  UNL     1      16.900  46.401  19.027  1.00  0.00    -0.331 N 
ATOM     28  H12 UNL     1      17.292  47.319  19.237  1.00  0.00     0.177 HD
ATOM     29  H11 UNL     1      17.159  45.607  19.614  1.00  0.00     0.177 HD
ENDBRANCH  25  27
ENDBRANCH   1  25
TORSDOF 5
ENDMDL
