MODEL 1
REMARK VINA RESULT: -6.955992300      0.000      0.000
REMARK  4 active torsions:
REMARK  status: ('A' for Active; 'I' for Inactive)
REMARK    1  A    between atoms: N1_2  and  C2_4 
REMARK    2  A    between atoms: C3_7  and  N3_8 
REMARK    3  A    between atoms: N3_8  and  C4_10 
REMARK    4  A    between atoms: C7_15  and  C8_16 
ROOT
HETATM    1  C4  UNL     1      14.071  45.370  17.958  1.00  0.00     0.137 A 
HETATM    2  C5  UNL     1      13.815  44.273  17.169  1.00  0.00     0.137 A 
HETATM    3  N4  UNL     1      12.624  43.699  17.192  1.00  0.00    -0.370 N 
ATOM      4  H4  UNL     1      12.425  42.885  16.610  1.00  0.00     0.164 HD
HETATM    5  C6  UNL     1      11.678  44.218  18.007  1.00  0.00     0.118 A 
HETATM    6  C7  UNL     1      11.881  45.311  18.817  1.00  0.00     0.060 A 
HETATM    7  N6  UNL     1      13.110  45.860  18.757  1.00  0.00    -0.339 N 
ATOM      8  H6  UNL     1      13.316  46.674  19.337  1.00  0.00     0.167 HD
ENDROOT
BRANCH   1   9
HETATM    9  N3  UNL     1      15.246  45.875  17.885  1.00  0.00    -0.173 N 
ATOM     10  H3  UNL     1      15.435  46.508  17.107  1.00  0.00     0.186 HD
BRANCH   9  11
HETATM   11  C3  UNL     1      16.294  45.634  18.783  1.00  0.00     0.713 A 
HETATM   12  N2  UNL     1      17.146  46.565  19.256  1.00  0.00    -0.020 N 
HETATM   13  C2  UNL     1      18.028  46.014  20.092  1.00  0.00     0.707 A 
ATOM     14  H2  UNL     1      17.120  47.555  19.010  1.00  0.00     0.203 HD
HETATM   15  N8  UNL     1      17.736  44.706  20.156  1.00  0.00    -0.117 N 
HETATM   16  N7  UNL     1      16.685  44.482  19.363  1.00  0.00    -0.117 N 
ATOM     17  H8  UNL     1      18.228  44.006  20.712  1.00  0.00     0.206 HD
ATOM     18  H7  UNL     1      16.244  43.574  19.217  1.00  0.00     0.206 HD
BRANCH  13  19
HETATM   19  N1  UNL     1      18.969  46.642  20.704  1.00  0.00    -0.229 N 
HETATM   20  C1  UNL     1      19.244  48.025  20.430  1.00  0.00     0.165 C 
ATOM     21  H1  UNL     1      19.530  46.147  21.398  1.00  0.00     0.177 HD
ENDBRANCH  13  19
ENDBRANCH   9  11
ENDBRANCH   1   9
BRANCH   6  22
HETATM   22  C8  UNL     1      10.837  45.843  19.684  1.00  0.00     0.007 A 
HETATM   23  C9  UNL     1      11.088  46.705  20.723  1.00  0.00     0.016 A 
HETATM   24  C10 UNL     1      10.093  47.218  21.556  1.00  0.00     0.018 A 
HETATM   25  C11 UNL     1       8.796  46.846  21.334  1.00  0.00     0.087 A 
HETATM   26  N5  UNL     1       8.537  46.004  20.323  1.00  0.00    -0.374 N 
HETATM   27  C12 UNL     1       9.506  45.512  19.519  1.00  0.00     0.101 A 
ATOM     28  H5  UNL     1       7.571  45.724  20.153  1.00  0.00     0.164 HD
ENDBRANCH   6  22
TORSDOF 4
ENDMDL
MODEL 2
REMARK VINA RESULT: -6.792421146      1.043      1.462
REMARK  4 active torsions:
REMARK  status: ('A' for Active; 'I' for Inactive)
REMARK    1  A    between atoms: N1_2  and  C2_4 
REMARK    2  A    between atoms: C3_7  and  N3_8 
REMARK    3  A    between atoms: N3_8  and  C4_10 
REMARK    4  A    between atoms: C7_15  and  C8_16 
ROOT
HETATM    1  C4  UNL     1      13.885  44.178  17.441  1.00  0.00     0.137 A 
HETATM    2  C5  UNL     1      13.284  43.475  16.424  1.00  0.00     0.137 A 
HETATM    3  N4  UNL     1      11.967  43.448  16.320  1.00  0.00    -0.370 N 
ATOM      4  H4  UNL     1      11.512  42.928  15.569  1.00  0.00     0.164 HD
HETATM    5  C6  UNL     1      11.238  44.125  17.236  1.00  0.00     0.118 A 
HETATM    6  C7  UNL     1      11.786  44.843  18.273  1.00  0.00     0.060 A 
HETATM    7  N6  UNL     1      13.132  44.840  18.335  1.00  0.00    -0.339 N 
ATOM      8  H6  UNL     1      13.593  45.356  19.084  1.00  0.00     0.167 HD
ENDROOT
BRANCH   1   9
HETATM    9  N3  UNL     1      15.165  44.161  17.482  1.00  0.00    -0.173 N 
ATOM     10  H3  UNL     1      15.637  43.405  16.985  1.00  0.00     0.186 HD
BRANCH   9  11
HETATM   11  C3  UNL     1      15.973  45.091  18.149  1.00  0.00     0.713 A 
HETATM   12  N2  UNL     1      16.724  44.832  19.238  1.00  0.00    -0.020 N 
HETATM   13  C2  UNL     1      17.376  45.927  19.631  1.00  0.00     0.707 A 
ATOM     14  H2  UNL     1      16.786  43.923  19.698  1.00  0.00     0.203 HD
HETATM   15  N8  UNL     1      17.036  46.907  18.779  1.00  0.00    -0.117 N 
HETATM   16  N7  UNL     1      16.187  46.394  17.883  1.00  0.00    -0.117 N 
ATOM     17  H8  UNL     1      17.367  47.871  18.808  1.00  0.00     0.206 HD
ATOM     18  H7  UNL     1      15.765  46.912  17.113  1.00  0.00     0.206 HD
BRANCH  13  19
HETATM   19  N1  UNL     1      18.170  46.002  20.640  1.00  0.00    -0.229 N 
HETATM   20  C1  UNL     1      18.536  44.832  21.389  1.00  0.00     0.165 C 
ATOM     21  H1  UNL     1      18.548  46.910  20.912  1.00  0.00     0.177 HD
ENDBRANCH  13  19
ENDBRANCH   9  11
ENDBRANCH   1   9
BRANCH   6  22
HETATM   22  C8  UNL     1      10.968  45.561  19.241  1.00  0.00     0.007 A 
HETATM   23  C9  UNL     1      11.494  46.374  20.216  1.00  0.00     0.016 A 
HETATM   24  C10 UNL     1      10.716  47.064  21.146  1.00  0.00     0.018 A 
HETATM   25  C11 UNL     1       9.357  46.930  21.093  1.00  0.00     0.087 A 
HETATM   26  N5  UNL     1       8.830  46.140  20.146  1.00  0.00    -0.374 N 
HETATM   27  C12 UNL     1       9.589  45.474  19.248  1.00  0.00     0.101 A 
ATOM     28  H5  UNL     1       7.816  46.037  20.102  1.00  0.00     0.164 HD
ENDBRANCH   6  22
TORSDOF 4
ENDMDL
MODEL 3
REMARK VINA RESULT: -6.718344222      1.317      1.909
REMARK  4 active torsions:
REMARK  status: ('A' for Active; 'I' for Inactive)
REMARK    1  A    between atoms: N1_2  and  C2_4 
REMARK    2  A    between atoms: C3_7  and  N3_8 
REMARK    3  A    between atoms: N3_8  and  C4_10 
REMARK    4  A    between atoms: C7_15  and  C8_16 
ROOT
HETATM    1  C4  UNL     1      12.706  44.175  17.344  1.00  0.00     0.137 A 
HETATM    2  C5  UNL     1      11.949  43.845  16.244  1.00  0.00     0.137 A 
HETATM    3  N4  UNL     1      10.658  44.127  16.214  1.00  0.00    -0.370 N 
ATOM      4  H4  UNL     1      10.088  43.886  15.403  1.00  0.00     0.164 HD
HETATM    5  C6  UNL     1      10.112  44.742  17.288  1.00  0.00     0.118 A 
HETATM    6  C7  UNL     1      10.821  45.093  18.413  1.00  0.00     0.060 A 
HETATM    7  N6  UNL     1      12.132  44.785  18.394  1.00  0.00    -0.339 N 
ATOM      8  H6  UNL     1      12.707  45.022  19.202  1.00  0.00     0.167 HD
ENDROOT
BRANCH   1   9
HETATM    9  N3  UNL     1      13.949  43.872  17.304  1.00  0.00    -0.173 N 
ATOM     10  H3  UNL     1      14.209  43.032  16.787  1.00  0.00     0.186 HD
BRANCH   9  11
HETATM   11  C3  UNL     1      14.985  44.595  17.911  1.00  0.00     0.713 A 
HETATM   12  N2  UNL     1      16.108  44.063  18.431  1.00  0.00    -0.020 N 
HETATM   13  C2  UNL     1      16.893  45.018  18.932  1.00  0.00     0.707 A 
ATOM     14  H2  UNL     1      16.328  43.066  18.440  1.00  0.00     0.203 HD
HETATM   15  N8  UNL     1      16.261  46.184  18.729  1.00  0.00    -0.117 N 
HETATM   16  N7  UNL     1      15.107  45.923  18.110  1.00  0.00    -0.117 N 
ATOM     17  H8  UNL     1      16.602  47.107  19.000  1.00  0.00     0.206 HD
ATOM     18  H7  UNL     1      14.421  46.623  17.829  1.00  0.00     0.206 HD
BRANCH  13  19
HETATM   19  N1  UNL     1      18.032  44.827  19.498  1.00  0.00    -0.229 N 
HETATM   20  C1  UNL     1      18.165  44.834  20.929  1.00  0.00     0.165 C 
ATOM     21  H1  UNL     1      18.857  44.669  18.919  1.00  0.00     0.177 HD
ENDBRANCH  13  19
ENDBRANCH   9  11
ENDBRANCH   1   9
BRANCH   6  22
HETATM   22  C8  UNL     1      10.198  45.755  19.551  1.00  0.00     0.007 A 
HETATM   23  C9  UNL     1      10.884  46.572  20.415  1.00  0.00     0.016 A 
HETATM   24  C10 UNL     1      10.293  47.209  21.507  1.00  0.00     0.018 A 
HETATM   25  C11 UNL     1       8.960  47.015  21.737  1.00  0.00     0.087 A 
HETATM   26  N5  UNL     1       8.277  46.219  20.900  1.00  0.00    -0.374 N 
HETATM   27  C12 UNL     1       8.856  45.606  19.845  1.00  0.00     0.101 A 
ATOM     28  H5  UNL     1       7.282  46.071  21.068  1.00  0.00     0.164 HD
ENDBRANCH   6  22
TORSDOF 4
ENDMDL
MODEL 4
REMARK VINA RESULT: -6.659749134      0.861      1.237
REMARK  4 active torsions:
REMARK  status: ('A' for Active; 'I' for Inactive)
REMARK    1  A    between atoms: N1_2  and  C2_4 
REMARK    2  A    between atoms: C3_7  and  N3_8 
REMARK    3  A    between atoms: N3_8  and  C4_10 
REMARK    4  A    between atoms: C7_15  and  C8_16 
ROOT
HETATM    1  C4  UNL     1      14.134  45.345  17.732  1.00  0.00     0.137 A 
HETATM    2  C5  UNL     1      13.893  44.168  17.064  1.00  0.00     0.137 A 
HETATM    3  N4  UNL     1      12.737  43.542  17.212  1.00  0.00    -0.370 N 
ATOM      4  H4  UNL     1      12.549  42.668  16.720  1.00  0.00     0.164 HD
HETATM    5  C6  UNL     1      11.812  44.091  18.031  1.00  0.00     0.118 A 
HETATM    6  C7  UNL     1      12.001  45.265  18.723  1.00  0.00     0.060 A 
HETATM    7  N6  UNL     1      13.193  45.863  18.539  1.00  0.00    -0.339 N 
ATOM      8  H6  UNL     1      13.389  46.737  19.029  1.00  0.00     0.167 HD
ENDROOT
BRANCH   1   9
HETATM    9  N3  UNL     1      15.274  45.896  17.543  1.00  0.00    -0.173 N 
ATOM     10  H3  UNL     1      15.430  46.351  16.643  1.00  0.00     0.186 HD
BRANCH   9  11
HETATM   11  C3  UNL     1      16.327  45.929  18.467  1.00  0.00     0.713 A 
HETATM   12  N2  UNL     1      16.762  44.880  19.192  1.00  0.00    -0.020 N 
HETATM   13  C2  UNL     1      17.779  45.239  19.977  1.00  0.00     0.707 A 
ATOM     14  H2  UNL     1      16.368  43.939  19.147  1.00  0.00     0.203 HD
HETATM   15  N8  UNL     1      18.000  46.544  19.751  1.00  0.00    -0.117 N 
HETATM   16  N7  UNL     1      17.119  46.956  18.835  1.00  0.00    -0.117 N 
ATOM     17  H8  UNL     1      18.715  47.119  20.198  1.00  0.00     0.206 HD
ATOM     18  H7  UNL     1      17.055  47.905  18.469  1.00  0.00     0.206 HD
BRANCH  13  19
HETATM   19  N1  UNL     1      18.408  44.463  20.787  1.00  0.00    -0.229 N 
HETATM   20  C1  UNL     1      19.548  44.926  21.530  1.00  0.00     0.165 C 
ATOM     21  H1  UNL     1      18.091  43.500  20.904  1.00  0.00     0.177 HD
ENDBRANCH  13  19
ENDBRANCH   9  11
ENDBRANCH   1   9
BRANCH   6  22
HETATM   22  C8  UNL     1      10.980  45.825  19.598  1.00  0.00     0.007 A 
HETATM   23  C9  UNL     1      11.265  46.673  20.640  1.00  0.00     0.016 A 
HETATM   24  C10 UNL     1      10.291  47.214  21.481  1.00  0.00     0.018 A 
HETATM   25  C11 UNL     1       8.982  46.887  21.265  1.00  0.00     0.087 A 
HETATM   26  N5  UNL     1       8.690  46.060  20.250  1.00  0.00    -0.374 N 
HETATM   27  C12 UNL     1       9.637  45.540  19.439  1.00  0.00     0.101 A 
ATOM     28  H5  UNL     1       7.714  45.813  20.085  1.00  0.00     0.164 HD
ENDBRANCH   6  22
TORSDOF 4
ENDMDL
MODEL 5
REMARK VINA RESULT: -6.591279678      1.063      1.280
REMARK  4 active torsions:
REMARK  status: ('A' for Active; 'I' for Inactive)
REMARK    1  A    between atoms: N1_2  and  C2_4 
REMARK    2  A    between atoms: C3_7  and  N3_8 
REMARK    3  A    between atoms: N3_8  and  C4_10 
REMARK    4  A    between atoms: C7_15  and  C8_16 
ROOT
HETATM    1  C4  UNL     1      13.801  44.067  17.335  1.00  0.00     0.137 A 
HETATM    2  C5  UNL     1      13.160  43.430  16.299  1.00  0.00     0.137 A 
HETATM    3  N4  UNL     1      11.842  43.476  16.202  1.00  0.00    -0.370 N 
ATOM      4  H4  UNL     1      11.357  43.007  15.437  1.00  0.00     0.164 HD
HETATM    5  C6  UNL     1      11.154  44.163  17.143  1.00  0.00     0.118 A 
HETATM    6  C7  UNL     1      11.744  44.817  18.199  1.00  0.00     0.060 A 
HETATM    7  N6  UNL     1      13.088  44.739  18.253  1.00  0.00    -0.339 N 
ATOM      8  H6  UNL     1      13.579  45.206  19.016  1.00  0.00     0.167 HD
ENDROOT
BRANCH   1   9
HETATM    9  N3  UNL     1      15.078  43.980  17.367  1.00  0.00    -0.173 N 
ATOM     10  H3  UNL     1      15.511  43.247  16.805  1.00  0.00     0.186 HD
BRANCH   9  11
HETATM   11  C3  UNL     1      15.933  44.806  18.109  1.00  0.00     0.713 A 
HETATM   12  N2  UNL     1      16.211  46.094  17.829  1.00  0.00    -0.020 N 
HETATM   13  C2  UNL     1      17.059  46.599  18.726  1.00  0.00     0.707 A 
ATOM     14  H2  UNL     1      15.825  46.613  17.039  1.00  0.00     0.203 HD
HETATM   15  N8  UNL     1      17.330  45.616  19.599  1.00  0.00    -0.117 N 
HETATM   16  N7  UNL     1      16.645  44.533  19.221  1.00  0.00    -0.117 N 
ATOM     17  H8  UNL     1      17.948  45.683  20.407  1.00  0.00     0.206 HD
ATOM     18  H7  UNL     1      16.659  43.634  19.701  1.00  0.00     0.206 HD
BRANCH  13  19
HETATM   19  N1  UNL     1      17.514  47.802  18.730  1.00  0.00    -0.229 N 
HETATM   20  C1  UNL     1      18.732  48.136  19.415  1.00  0.00     0.165 C 
ATOM     21  H1  UNL     1      17.000  48.532  18.236  1.00  0.00     0.177 HD
ENDBRANCH  13  19
ENDBRANCH   9  11
ENDBRANCH   1   9
BRANCH   6  22
HETATM   22  C8  UNL     1      10.970  45.546  19.194  1.00  0.00     0.007 A 
HETATM   23  C9  UNL     1      11.541  46.341  20.157  1.00  0.00     0.016 A 
HETATM   24  C10 UNL     1      10.804  47.043  21.113  1.00  0.00     0.018 A 
HETATM   25  C11 UNL     1       9.441  46.937  21.098  1.00  0.00     0.087 A 
HETATM   26  N5  UNL     1       8.871  46.163  20.163  1.00  0.00    -0.374 N 
HETATM   27  C12 UNL     1       9.590  45.488  19.240  1.00  0.00     0.101 A 
ATOM     28  H5  UNL     1       7.854  46.082  20.148  1.00  0.00     0.164 HD
ENDBRANCH   6  22
TORSDOF 4
ENDMDL
