MODEL 1
REMARK VINA RESULT: -6.690350592      0.000      0.000
REMARK  5 active torsions:
REMARK  status: ('A' for Active; 'I' for Inactive)
REMARK    1  A    between atoms: C2_3  and  C3_4 
REMARK    2  A    between atoms: C3_4  and  N2_5 
REMARK    3  A    between atoms: N2_5  and  N3_7 
REMARK    4  A    between atoms: N3_7  and  C4_9 
REMARK    5  A    between atoms: C7_14  and  N5_15 
ROOT
HETATM    1  N2  UNL     1      12.913  45.174  19.288  1.00  0.00    -0.307 N 
ATOM      2  H2  UNL     1      12.837  44.270  19.753  1.00  0.00     0.186 HD
ENDROOT
BRANCH   1   3
HETATM    3  C3  UNL     1      13.517  45.265  18.157  1.00  0.00     0.155 C 
BRANCH   3   4
HETATM    4  C2  UNL     1      13.377  44.193  17.162  1.00  0.00     0.125 A 
HETATM    5  N1  UNL     1      12.411  44.096  16.234  1.00  0.00    -0.335 N 
HETATM    6  C1  UNL     1      11.312  45.031  16.029  1.00  0.00     0.158 C 
HETATM    7  C13 UNL     1      12.606  42.968  15.490  1.00  0.00     0.062 A 
HETATM    8  C8  UNL     1      13.727  42.355  15.977  1.00  0.00     0.060 A 
HETATM    9  C12 UNL     1      11.904  42.420  14.429  1.00  0.00     0.032 A 
HETATM   10  N7  UNL     1      14.167  43.120  16.986  1.00  0.00    -0.339 N 
HETATM   11  C9  UNL     1      14.133  41.179  15.379  1.00  0.00     0.032 A 
ATOM     12  H7  UNL     1      14.994  42.915  17.547  1.00  0.00     0.167 HD
HETATM   13  C10 UNL     1      13.468  40.597  14.323  1.00  0.00     0.002 A 
HETATM   14  C11 UNL     1      12.340  41.244  13.856  1.00  0.00     0.002 A 
ENDBRANCH   3   4
ENDBRANCH   1   3
BRANCH   1  15
HETATM   15  N3  UNL     1      12.363  46.303  19.878  1.00  0.00    -0.285 N 
ATOM     16  H3  UNL     1      12.956  47.106  20.088  1.00  0.00     0.188 HD
BRANCH  15  17
HETATM   17  C4  UNL     1      11.111  46.340  20.161  1.00  0.00     0.136 A 
HETATM   18  C5  UNL     1      10.702  47.008  21.287  1.00  0.00     0.068 A 
HETATM   19  C6  UNL     1       9.359  47.092  21.661  1.00  0.00     0.110 A 
HETATM   20  N4  UNL     1       8.478  46.475  20.843  1.00  0.00    -0.202 N 
HETATM   21  C7  UNL     1       8.890  45.816  19.729  1.00  0.00     0.677 A 
ATOM     22  H4  UNL     1       7.483  46.505  21.065  1.00  0.00     0.183 HD
HETATM   23  N6  UNL     1      10.185  45.745  19.385  1.00  0.00    -0.176 N 
ATOM     24  H6  UNL     1      10.466  45.243  18.542  1.00  0.00     0.186 HD
BRANCH  21  25
HETATM   25  N5  UNL     1       7.962  45.263  19.021  1.00  0.00    -0.234 N 
ATOM     26  H52 UNL     1       6.998  45.204  19.345  1.00  0.00     0.174 HD
ATOM     27  H51 UNL     1       8.251  44.889  18.116  1.00  0.00     0.174 HD
ENDBRANCH  21  25
ENDBRANCH  15  17
ENDBRANCH   1  15
TORSDOF 5
ENDMDL
MODEL 2
REMARK VINA RESULT: -6.473959816      3.655      6.971
REMARK  5 active torsions:
REMARK  status: ('A' for Active; 'I' for Inactive)
REMARK    1  A    between atoms: C2_3  and  C3_4 
REMARK    2  A    between atoms: C3_4  and  N2_5 
REMARK    3  A    between atoms: N2_5  and  N3_7 
REMARK    4  A    between atoms: N3_7  and  C4_9 
REMARK    5  A    between atoms: C7_14  and  N5_15 
ROOT
HETATM    1  N2  UNL     1      15.711  44.993  17.821  1.00  0.00    -0.307 N 
ATOM      2  H2  UNL     1      16.013  45.825  17.316  1.00  0.00     0.186 HD
ENDROOT
BRANCH   1   3
HETATM    3  C3  UNL     1      14.582  44.447  17.539  1.00  0.00     0.155 C 
BRANCH   3   4
HETATM    4  C2  UNL     1      13.356  44.913  18.204  1.00  0.00     0.125 A 
HETATM    5  N1  UNL     1      12.098  44.596  17.856  1.00  0.00    -0.335 N 
HETATM    6  C1  UNL     1      11.697  43.731  16.754  1.00  0.00     0.158 C 
HETATM    7  C13 UNL     1      11.223  45.216  18.701  1.00  0.00     0.062 A 
HETATM    8  C8  UNL     1      11.968  45.934  19.595  1.00  0.00     0.060 A 
HETATM    9  C12 UNL     1       9.840  45.217  18.771  1.00  0.00     0.032 A 
HETATM   10  N7  UNL     1      13.252  45.729  19.267  1.00  0.00    -0.339 N 
HETATM   11  C9  UNL     1      11.299  46.656  20.563  1.00  0.00     0.032 A 
ATOM     12  H7  UNL     1      14.045  46.140  19.758  1.00  0.00     0.167 HD
HETATM   13  C10 UNL     1       9.927  46.687  20.671  1.00  0.00     0.002 A 
HETATM   14  C11 UNL     1       9.205  45.950  19.753  1.00  0.00     0.002 A 
ENDBRANCH   3   4
ENDBRANCH   1   3
BRANCH   1  15
HETATM   15  N3  UNL     1      16.520  44.452  18.809  1.00  0.00    -0.285 N 
ATOM     16  H3  UNL     1      16.416  43.472  19.070  1.00  0.00     0.188 HD
BRANCH  15  17
HETATM   17  C4  UNL     1      17.399  45.181  19.397  1.00  0.00     0.136 A 
HETATM   18  C5  UNL     1      17.522  46.498  19.036  1.00  0.00     0.068 A 
HETATM   19  C6  UNL     1      18.453  47.353  19.628  1.00  0.00     0.110 A 
HETATM   20  N4  UNL     1      19.233  46.805  20.586  1.00  0.00    -0.202 N 
HETATM   21  C7  UNL     1      19.107  45.499  20.938  1.00  0.00     0.677 A 
ATOM     22  H4  UNL     1      19.931  47.382  21.055  1.00  0.00     0.183 HD
HETATM   23  N6  UNL     1      18.206  44.692  20.358  1.00  0.00    -0.176 N 
ATOM     24  H6  UNL     1      18.132  43.715  20.643  1.00  0.00     0.186 HD
BRANCH  21  25
HETATM   25  N5  UNL     1      19.904  45.081  21.865  1.00  0.00    -0.234 N 
ATOM     26  H52 UNL     1      20.761  44.573  21.651  1.00  0.00     0.174 HD
ATOM     27  H51 UNL     1      19.624  45.288  22.824  1.00  0.00     0.174 HD
ENDBRANCH  21  25
ENDBRANCH  15  17
ENDBRANCH   1  15
TORSDOF 5
ENDMDL
MODEL 3
REMARK VINA RESULT: -6.438794049      0.877      1.916
REMARK  5 active torsions:
REMARK  status: ('A' for Active; 'I' for Inactive)
REMARK    1  A    between atoms: C2_3  and  C3_4 
REMARK    2  A    between atoms: C3_4  and  N2_5 
REMARK    3  A    between atoms: N2_5  and  N3_7 
REMARK    4  A    between atoms: N3_7  and  C4_9 
REMARK    5  A    between atoms: C7_14  and  N5_15 
ROOT
HETATM    1  N2  UNL     1      12.840  45.284  19.435  1.00  0.00    -0.307 N 
ATOM      2  H2  UNL     1      12.875  44.406  19.952  1.00  0.00     0.186 HD
ENDROOT
BRANCH   1   3
HETATM    3  C3  UNL     1      13.351  45.355  18.257  1.00  0.00     0.155 C 
BRANCH   3   4
HETATM    4  C2  UNL     1      12.742  44.606  17.147  1.00  0.00     0.125 A 
HETATM    5  N1  UNL     1      13.289  43.562  16.503  1.00  0.00    -0.335 N 
HETATM    6  C1  UNL     1      14.590  42.964  16.774  1.00  0.00     0.158 C 
HETATM    7  C13 UNL     1      12.433  43.127  15.533  1.00  0.00     0.062 A 
HETATM    8  C8  UNL     1      11.327  43.931  15.584  1.00  0.00     0.060 A 
HETATM    9  C12 UNL     1      12.520  42.101  14.607  1.00  0.00     0.032 A 
HETATM   10  N7  UNL     1      11.546  44.813  16.569  1.00  0.00    -0.339 N 
HETATM   11  C9  UNL     1      10.306  43.684  14.687  1.00  0.00     0.032 A 
ATOM     12  H7  UNL     1      10.892  45.544  16.844  1.00  0.00     0.167 HD
HETATM   13  C10 UNL     1      10.348  42.676  13.750  1.00  0.00     0.002 A 
HETATM   14  C11 UNL     1      11.480  41.884  13.727  1.00  0.00     0.002 A 
ENDBRANCH   3   4
ENDBRANCH   1   3
BRANCH   1  15
HETATM   15  N3  UNL     1      12.243  46.399  20.004  1.00  0.00    -0.285 N 
ATOM     16  H3  UNL     1      12.804  47.226  20.209  1.00  0.00     0.188 HD
BRANCH  15  17
HETATM   17  C4  UNL     1      10.987  46.394  20.274  1.00  0.00     0.136 A 
HETATM   18  C5  UNL     1      10.547  47.023  21.410  1.00  0.00     0.068 A 
HETATM   19  C6  UNL     1       9.199  47.060  21.771  1.00  0.00     0.110 A 
HETATM   20  N4  UNL     1       8.345  46.437  20.929  1.00  0.00    -0.202 N 
HETATM   21  C7  UNL     1       8.787  45.815  19.805  1.00  0.00     0.677 A 
ATOM     22  H4  UNL     1       7.347  46.433  21.141  1.00  0.00     0.183 HD
HETATM   23  N6  UNL     1      10.087  45.790  19.474  1.00  0.00    -0.176 N 
ATOM     24  H6  UNL     1      10.392  45.316  18.623  1.00  0.00     0.186 HD
BRANCH  21  25
HETATM   25  N5  UNL     1       7.884  45.253  19.075  1.00  0.00    -0.234 N 
ATOM     26  H52 UNL     1       8.102  44.838  18.169  1.00  0.00     0.174 HD
ATOM     27  H51 UNL     1       6.937  45.248  19.456  1.00  0.00     0.174 HD
ENDBRANCH  21  25
ENDBRANCH  15  17
ENDBRANCH   1  15
TORSDOF 5
ENDMDL
MODEL 4
REMARK VINA RESULT: -6.438395465      3.842      7.071
REMARK  5 active torsions:
REMARK  status: ('A' for Active; 'I' for Inactive)
REMARK    1  A    between atoms: C2_3  and  C3_4 
REMARK    2  A    between atoms: C3_4  and  N2_5 
REMARK    3  A    between atoms: N2_5  and  N3_7 
REMARK    4  A    between atoms: N3_7  and  C4_9 
REMARK    5  A    between atoms: C7_14  and  N5_15 
ROOT
HETATM    1  N2  UNL     1      15.669  44.862  18.607  1.00  0.00    -0.307 N 
ATOM      2  H2  UNL     1      15.975  44.051  19.144  1.00  0.00     0.186 HD
ENDROOT
BRANCH   1   3
HETATM    3  C3  UNL     1      14.610  44.787  17.882  1.00  0.00     0.155 C 
BRANCH   3   4
HETATM    4  C2  UNL     1      13.303  45.147  18.452  1.00  0.00     0.125 A 
HETATM    5  N1  UNL     1      12.107  44.711  18.026  1.00  0.00    -0.335 N 
HETATM    6  C1  UNL     1      11.864  43.798  16.916  1.00  0.00     0.158 C 
HETATM    7  C13 UNL     1      11.122  45.258  18.797  1.00  0.00     0.062 A 
HETATM    8  C8  UNL     1      11.735  46.054  19.724  1.00  0.00     0.060 A 
HETATM    9  C12 UNL     1       9.743  45.132  18.772  1.00  0.00     0.032 A 
HETATM   10  N7  UNL     1      13.051  45.964  19.489  1.00  0.00    -0.339 N 
HETATM   11  C9  UNL     1      10.936  46.724  20.631  1.00  0.00     0.032 A 
ATOM     12  H7  UNL     1      13.768  46.453  20.025  1.00  0.00     0.167 HD
HETATM   13  C10 UNL     1       9.563  46.630  20.644  1.00  0.00     0.002 A 
HETATM   14  C11 UNL     1       8.978  45.816  19.694  1.00  0.00     0.002 A 
ENDBRANCH   3   4
ENDBRANCH   1   3
BRANCH   1  15
HETATM   15  N3  UNL     1      16.395  46.042  18.661  1.00  0.00    -0.285 N 
ATOM     16  H3  UNL     1      16.125  46.831  18.075  1.00  0.00     0.188 HD
BRANCH  15  17
HETATM   17  C4  UNL     1      17.408  46.143  19.445  1.00  0.00     0.136 A 
HETATM   18  C5  UNL     1      17.751  45.074  20.232  1.00  0.00     0.068 A 
HETATM   19  C6  UNL     1      18.837  45.109  21.109  1.00  0.00     0.110 A 
HETATM   20  N4  UNL     1      19.538  46.264  21.137  1.00  0.00    -0.202 N 
HETATM   21  C7  UNL     1      19.192  47.320  20.355  1.00  0.00     0.677 A 
ATOM     22  H4  UNL     1      20.343  46.346  21.758  1.00  0.00     0.183 HD
HETATM   23  N6  UNL     1      18.145  47.269  19.518  1.00  0.00    -0.176 N 
ATOM     24  H6  UNL     1      17.908  48.076  18.940  1.00  0.00     0.186 HD
BRANCH  21  25
HETATM   25  N5  UNL     1      19.931  48.373  20.463  1.00  0.00    -0.234 N 
ATOM     26  H52 UNL     1      20.767  48.507  19.894  1.00  0.00     0.174 HD
ATOM     27  H51 UNL     1      19.631  49.063  21.152  1.00  0.00     0.174 HD
ENDBRANCH  21  25
ENDBRANCH  15  17
ENDBRANCH   1  15
TORSDOF 5
ENDMDL
MODEL 5
REMARK VINA RESULT: -6.354678287      3.601      5.386
REMARK  5 active torsions:
REMARK  status: ('A' for Active; 'I' for Inactive)
REMARK    1  A    between atoms: C2_3  and  C3_4 
REMARK    2  A    between atoms: C3_4  and  N2_5 
REMARK    3  A    between atoms: N2_5  and  N3_7 
REMARK    4  A    between atoms: N3_7  and  C4_9 
REMARK    5  A    between atoms: C7_14  and  N5_15 
ROOT
HETATM    1  N2  UNL     1      13.543  45.936  18.226  1.00  0.00    -0.307 N 
ATOM      2  H2  UNL     1      13.150  46.712  17.694  1.00  0.00     0.186 HD
ENDROOT
BRANCH   1   3
HETATM    3  C3  UNL     1      14.596  45.334  17.797  1.00  0.00     0.155 C 
BRANCH   3   4
HETATM    4  C2  UNL     1      15.868  45.477  18.520  1.00  0.00     0.125 A 
HETATM    5  N1  UNL     1      16.802  46.416  18.299  1.00  0.00    -0.335 N 
HETATM    6  C1  UNL     1      16.741  47.479  17.304  1.00  0.00     0.158 C 
HETATM    7  C13 UNL     1      17.845  46.233  19.161  1.00  0.00     0.062 A 
HETATM    8  C8  UNL     1      17.540  45.146  19.932  1.00  0.00     0.060 A 
HETATM    9  C12 UNL     1      19.035  46.917  19.340  1.00  0.00     0.032 A 
HETATM   10  N7  UNL     1      16.340  44.713  19.520  1.00  0.00    -0.339 N 
HETATM   11  C9  UNL     1      18.454  44.757  20.892  1.00  0.00     0.032 A 
ATOM     12  H7  UNL     1      15.850  43.910  19.913  1.00  0.00     0.167 HD
HETATM   13  C10 UNL     1      19.649  45.406  21.107  1.00  0.00     0.002 A 
HETATM   14  C11 UNL     1      19.924  46.500  20.310  1.00  0.00     0.002 A 
ENDBRANCH   3   4
ENDBRANCH   1   3
BRANCH   1  15
HETATM   15  N3  UNL     1      12.942  45.533  19.409  1.00  0.00    -0.285 N 
ATOM     16  H3  UNL     1      13.472  44.985  20.086  1.00  0.00     0.188 HD
BRANCH  15  17
HETATM   17  C4  UNL     1      11.721  45.848  19.654  1.00  0.00     0.136 A 
HETATM   18  C5  UNL     1      11.453  46.750  20.651  1.00  0.00     0.068 A 
HETATM   19  C6  UNL     1      10.153  47.141  20.977  1.00  0.00     0.110 A 
HETATM   20  N4  UNL     1       9.165  46.577  20.246  1.00  0.00    -0.202 N 
HETATM   21  C7  UNL     1       9.438  45.683  19.260  1.00  0.00     0.677 A 
ATOM     22  H4  UNL     1       8.195  46.826  20.439  1.00  0.00     0.183 HD
HETATM   23  N6  UNL     1      10.694  45.319  18.961  1.00  0.00    -0.176 N 
ATOM     24  H6  UNL     1      10.870  44.646  18.214  1.00  0.00     0.186 HD
BRANCH  21  25
HETATM   25  N5  UNL     1       8.419  45.207  18.627  1.00  0.00    -0.234 N 
ATOM     26  H52 UNL     1       7.613  45.785  18.389  1.00  0.00     0.174 HD
ATOM     27  H51 UNL     1       8.465  44.218  18.380  1.00  0.00     0.174 HD
ENDBRANCH  21  25
ENDBRANCH  15  17
ENDBRANCH   1  15
TORSDOF 5
ENDMDL
