MODEL 1
REMARK VINA RESULT: -6.791258641      0.000      0.000
REMARK  4 active torsions:
REMARK  status: ('A' for Active; 'I' for Inactive)
REMARK    1  A    between atoms: C4_5  and  C5_6 
REMARK    2  A    between atoms: C5_6  and  C6_7 
REMARK    3  A    between atoms: C9_10  and  N1_11 
REMARK    4  A    between atoms: N4_19  and  C11_20 
ROOT
HETATM    1  C1  UNL     1      48.592   9.929  -1.110  1.00  0.00     0.049 C 
HETATM    2  C2  UNL     1      47.680  10.113  -0.158  1.00  0.00     0.101 A 
HETATM    3  C3  UNL     1      46.640  11.032  -0.151  1.00  0.00     0.227 A 
HETATM    4  O1  UNL     1      46.412  11.850  -1.088  1.00  0.00    -0.283 OA
HETATM    5  C4  UNL     1      45.920  10.907   1.015  1.00  0.00     0.102 A 
HETATM    6  N3  UNL     1      46.522   9.923   1.700  1.00  0.00    -0.288 N 
ATOM      7  H3  UNL     1      46.226   9.586   2.617  1.00  0.00     0.188 HD
HETATM    8  N4  UNL     1      47.556   9.453   1.015  1.00  0.00    -0.236 N 
ENDROOT
BRANCH   5   9
HETATM    9  C5  UNL     1      44.863  11.636   1.335  1.00  0.00     0.048 C 
BRANCH   9  10
HETATM   10  C6  UNL     1      44.974  12.859   2.120  1.00  0.00    -0.018 A 
HETATM   11  C7  UNL     1      45.894  12.983   3.142  1.00  0.00     0.016 A 
HETATM   12  C8  UNL     1      45.981  14.158   3.876  1.00  0.00     0.049 A 
HETATM   13  C9  UNL     1      45.137  15.202   3.570  1.00  0.00     0.098 A 
HETATM   14  N2  UNL     1      44.245  15.088   2.582  1.00  0.00    -0.352 N 
HETATM   15  C10 UNL     1      44.164  13.944   1.872  1.00  0.00     0.101 A 
ATOM     16  H2  UNL     1      43.624  15.867   2.363  1.00  0.00     0.166 HD
BRANCH  13  17
HETATM   17  N1  UNL     1      45.235  16.297   4.269  1.00  0.00    -0.385 N 
ATOM     18  H12 UNL     1      46.135  16.750   4.420  1.00  0.00     0.157 HD
ATOM     19  H11 UNL     1      44.382  16.693   4.666  1.00  0.00     0.157 HD
ENDBRANCH  13  17
ENDBRANCH   9  10
ENDBRANCH   5   9
BRANCH   8  20
HETATM   20  C11 UNL     1      48.455   8.407   1.396  1.00  0.00     0.127 A 
HETATM   21  C12 UNL     1      48.094   7.077   1.542  1.00  0.00     0.052 A 
HETATM   22  C13 UNL     1      49.250   6.424   1.912  1.00  0.00     0.021 A 
HETATM   23  C14 UNL     1      50.295   7.324   1.991  1.00  0.00     0.090 A 
HETATM   24  N5  UNL     1      49.761   8.516   1.668  1.00  0.00    -0.351 N 
ATOM     25  H5  UNL     1      50.284   9.391   1.634  1.00  0.00     0.166 HD
ENDBRANCH   8  20
TORSDOF 4
ENDMDL
MODEL 2
REMARK VINA RESULT: -6.587639693      3.123      4.658
REMARK  4 active torsions:
REMARK  status: ('A' for Active; 'I' for Inactive)
REMARK    1  A    between atoms: C4_5  and  C5_6 
REMARK    2  A    between atoms: C5_6  and  C6_7 
REMARK    3  A    between atoms: C9_10  and  N1_11 
REMARK    4  A    between atoms: N4_19  and  C11_20 
ROOT
HETATM    1  C1  UNL     1      46.294  10.878  -2.510  1.00  0.00     0.049 C 
HETATM    2  C2  UNL     1      45.748  11.107  -1.318  1.00  0.00     0.101 A 
HETATM    3  C3  UNL     1      46.405  11.394  -0.129  1.00  0.00     0.227 A 
HETATM    4  O1  UNL     1      47.661  11.479  -0.017  1.00  0.00    -0.283 OA
HETATM    5  C4  UNL     1      45.483  11.564   0.880  1.00  0.00     0.102 A 
HETATM    6  N3  UNL     1      44.287  11.381   0.302  1.00  0.00    -0.288 N 
ATOM      7  H3  UNL     1      43.390  11.439   0.785  1.00  0.00     0.188 HD
HETATM    8  N4  UNL     1      44.436  11.113  -0.990  1.00  0.00    -0.236 N 
ENDROOT
BRANCH   5   9
HETATM    9  C5  UNL     1      45.780  11.847   2.138  1.00  0.00     0.048 C 
BRANCH   9  10
HETATM   10  C6  UNL     1      45.467  13.139   2.735  1.00  0.00    -0.018 A 
HETATM   11  C7  UNL     1      46.180  13.634   3.808  1.00  0.00     0.016 A 
HETATM   12  C8  UNL     1      45.862  14.868   4.359  1.00  0.00     0.049 A 
HETATM   13  C9  UNL     1      44.825  15.596   3.819  1.00  0.00     0.098 A 
HETATM   14  N2  UNL     1      44.133  15.122   2.778  1.00  0.00    -0.352 N 
HETATM   15  C10 UNL     1      44.445  13.923   2.247  1.00  0.00     0.101 A 
ATOM     16  H2  UNL     1      43.368  15.669   2.385  1.00  0.00     0.166 HD
BRANCH  13  17
HETATM   17  N1  UNL     1      44.543  16.752   4.349  1.00  0.00    -0.385 N 
ATOM     18  H12 UNL     1      44.576  16.894   5.358  1.00  0.00     0.157 HD
ATOM     19  H11 UNL     1      44.287  17.517   3.726  1.00  0.00     0.157 HD
ENDBRANCH  13  17
ENDBRANCH   9  10
ENDBRANCH   5   9
BRANCH   8  20
HETATM   20  C11 UNL     1      43.412  10.855  -1.954  1.00  0.00     0.127 A 
HETATM   21  C12 UNL     1      42.917  11.795  -2.843  1.00  0.00     0.052 A 
HETATM   22  C13 UNL     1      41.958  11.132  -3.580  1.00  0.00     0.021 A 
HETATM   23  C14 UNL     1      41.865   9.820  -3.158  1.00  0.00     0.090 A 
HETATM   24  N5  UNL     1      42.769   9.701  -2.168  1.00  0.00    -0.351 N 
ATOM     25  H5  UNL     1      42.942   8.841  -1.648  1.00  0.00     0.166 HD
ENDBRANCH   8  20
TORSDOF 4
ENDMDL
MODEL 3
REMARK VINA RESULT: -6.582288272      1.259      1.451
REMARK  4 active torsions:
REMARK  status: ('A' for Active; 'I' for Inactive)
REMARK    1  A    between atoms: C4_5  and  C5_6 
REMARK    2  A    between atoms: C5_6  and  C6_7 
REMARK    3  A    between atoms: C9_10  and  N1_11 
REMARK    4  A    between atoms: N4_19  and  C11_20 
ROOT
HETATM    1  C1  UNL     1      47.646  10.748  -2.288  1.00  0.00     0.049 C 
HETATM    2  C2  UNL     1      47.088  10.781  -1.080  1.00  0.00     0.101 A 
HETATM    3  C3  UNL     1      45.999  11.541  -0.674  1.00  0.00     0.227 A 
HETATM    4  O1  UNL     1      45.369  12.335  -1.429  1.00  0.00    -0.283 OA
HETATM    5  C4  UNL     1      45.730  11.291   0.653  1.00  0.00     0.102 A 
HETATM    6  N3  UNL     1      46.647  10.391   1.038  1.00  0.00    -0.288 N 
ATOM      7  H3  UNL     1      46.720   9.997   1.977  1.00  0.00     0.188 HD
HETATM    8  N4  UNL     1      47.447  10.088   0.024  1.00  0.00    -0.236 N 
ENDROOT
BRANCH   5   9
HETATM    9  C5  UNL     1      44.755  11.855   1.348  1.00  0.00     0.048 C 
BRANCH   9  10
HETATM   10  C6  UNL     1      44.973  13.038   2.170  1.00  0.00    -0.018 A 
HETATM   11  C7  UNL     1      45.916  13.058   3.178  1.00  0.00     0.016 A 
HETATM   12  C8  UNL     1      46.105  14.197   3.947  1.00  0.00     0.049 A 
HETATM   13  C9  UNL     1      45.339  15.313   3.691  1.00  0.00     0.098 A 
HETATM   14  N2  UNL     1      44.426  15.300   2.716  1.00  0.00    -0.352 N 
HETATM   15  C10 UNL     1      44.245  14.190   1.971  1.00  0.00     0.101 A 
ATOM     16  H2  UNL     1      43.864  16.131   2.534  1.00  0.00     0.166 HD
BRANCH  13  17
HETATM   17  N1  UNL     1      45.533  16.373   4.423  1.00  0.00    -0.385 N 
ATOM     18  H12 UNL     1      46.469  16.746   4.577  1.00  0.00     0.157 HD
ATOM     19  H11 UNL     1      44.719  16.824   4.841  1.00  0.00     0.157 HD
ENDBRANCH  13  17
ENDBRANCH   9  10
ENDBRANCH   5   9
BRANCH   8  20
HETATM   20  C11 UNL     1      48.548   9.174   0.020  1.00  0.00     0.127 A 
HETATM   21  C12 UNL     1      49.871   9.539   0.210  1.00  0.00     0.052 A 
HETATM   22  C13 UNL     1      50.589   8.364   0.132  1.00  0.00     0.021 A 
HETATM   23  C14 UNL     1      49.733   7.305  -0.099  1.00  0.00     0.090 A 
HETATM   24  N5  UNL     1      48.504   7.848  -0.159  1.00  0.00    -0.351 N 
ATOM     25  H5  UNL     1      47.648   7.318  -0.320  1.00  0.00     0.166 HD
ENDBRANCH   8  20
TORSDOF 4
ENDMDL
MODEL 4
REMARK VINA RESULT: -6.575941410      3.199      4.815
REMARK  4 active torsions:
REMARK  status: ('A' for Active; 'I' for Inactive)
REMARK    1  A    between atoms: C4_5  and  C5_6 
REMARK    2  A    between atoms: C5_6  and  C6_7 
REMARK    3  A    between atoms: C9_10  and  N1_11 
REMARK    4  A    between atoms: N4_19  and  C11_20 
ROOT
HETATM    1  C1  UNL     1      46.223  10.835  -2.594  1.00  0.00     0.049 C 
HETATM    2  C2  UNL     1      45.680  11.081  -1.404  1.00  0.00     0.101 A 
HETATM    3  C3  UNL     1      46.340  11.380  -0.220  1.00  0.00     0.227 A 
HETATM    4  O1  UNL     1      47.597  11.460  -0.111  1.00  0.00    -0.283 OA
HETATM    5  C4  UNL     1      45.421  11.567   0.788  1.00  0.00     0.102 A 
HETATM    6  N3  UNL     1      44.222  11.383   0.214  1.00  0.00    -0.288 N 
ATOM      7  H3  UNL     1      43.327  11.452   0.698  1.00  0.00     0.188 HD
HETATM    8  N4  UNL     1      44.369  11.098  -1.074  1.00  0.00    -0.236 N 
ENDROOT
BRANCH   5   9
HETATM    9  C5  UNL     1      45.721  11.865   2.042  1.00  0.00     0.048 C 
BRANCH   9  10
HETATM   10  C6  UNL     1      45.390  13.156   2.632  1.00  0.00    -0.018 A 
HETATM   11  C7  UNL     1      44.394  13.957   2.111  1.00  0.00     0.016 A 
HETATM   12  C8  UNL     1      44.098  15.183   2.690  1.00  0.00     0.049 A 
HETATM   13  C9  UNL     1      44.810  15.590   3.796  1.00  0.00     0.098 A 
HETATM   14  N2  UNL     1      45.775  14.818   4.305  1.00  0.00    -0.352 N 
HETATM   15  C10 UNL     1      46.060  13.629   3.738  1.00  0.00     0.101 A 
ATOM     16  H2  UNL     1      46.297  15.129   5.124  1.00  0.00     0.166 HD
BRANCH  13  17
HETATM   17  N1  UNL     1      44.516  16.744   4.327  1.00  0.00    -0.385 N 
ATOM     18  H12 UNL     1      43.589  17.153   4.223  1.00  0.00     0.157 HD
ATOM     19  H11 UNL     1      45.242  17.231   4.852  1.00  0.00     0.157 HD
ENDBRANCH  13  17
ENDBRANCH   9  10
ENDBRANCH   5   9
BRANCH   8  20
HETATM   20  C11 UNL     1      43.341  10.834  -2.034  1.00  0.00     0.127 A 
HETATM   21  C12 UNL     1      42.849  11.765  -2.932  1.00  0.00     0.052 A 
HETATM   22  C13 UNL     1      41.886  11.098  -3.660  1.00  0.00     0.021 A 
HETATM   23  C14 UNL     1      41.788   9.791  -3.223  1.00  0.00     0.090 A 
HETATM   24  N5  UNL     1      42.693   9.679  -2.233  1.00  0.00    -0.351 N 
ATOM     25  H5  UNL     1      42.864   8.825  -1.704  1.00  0.00     0.166 HD
ENDBRANCH   8  20
TORSDOF 4
ENDMDL
MODEL 5
REMARK VINA RESULT: -6.560995349      1.392      1.783
REMARK  4 active torsions:
REMARK  status: ('A' for Active; 'I' for Inactive)
REMARK    1  A    between atoms: C4_5  and  C5_6 
REMARK    2  A    between atoms: C5_6  and  C6_7 
REMARK    3  A    between atoms: C9_10  and  N1_11 
REMARK    4  A    between atoms: N4_19  and  C11_20 
ROOT
HETATM    1  C1  UNL     1      47.738  10.785  -2.238  1.00  0.00     0.049 C 
HETATM    2  C2  UNL     1      47.171  10.749  -1.035  1.00  0.00     0.101 A 
HETATM    3  C3  UNL     1      46.067  11.469  -0.600  1.00  0.00     0.227 A 
HETATM    4  O1  UNL     1      45.428  12.289  -1.320  1.00  0.00    -0.283 OA
HETATM    5  C4  UNL     1      45.793  11.150   0.711  1.00  0.00     0.102 A 
HETATM    6  N3  UNL     1      46.723  10.248   1.059  1.00  0.00    -0.288 N 
ATOM      7  H3  UNL     1      46.796   9.809   1.977  1.00  0.00     0.188 HD
HETATM    8  N4  UNL     1      47.535  10.008   0.036  1.00  0.00    -0.236 N 
ENDROOT
BRANCH   5   9
HETATM    9  C5  UNL     1      44.803  11.662   1.425  1.00  0.00     0.048 C 
BRANCH   9  10
HETATM   10  C6  UNL     1      44.950  12.904   2.173  1.00  0.00    -0.018 A 
HETATM   11  C7  UNL     1      44.148  14.000   1.925  1.00  0.00     0.016 A 
HETATM   12  C8  UNL     1      44.308  15.172   2.651  1.00  0.00     0.049 A 
HETATM   13  C9  UNL     1      45.278  15.228   3.626  1.00  0.00     0.098 A 
HETATM   14  N2  UNL     1      46.057  14.170   3.872  1.00  0.00    -0.352 N 
HETATM   15  C10 UNL     1      45.898  13.034   3.164  1.00  0.00     0.101 A 
ATOM     16  H2  UNL     1      46.772  14.222   4.596  1.00  0.00     0.166 HD
BRANCH  13  17
HETATM   17  N1  UNL     1      45.412  16.336   4.298  1.00  0.00    -0.385 N 
ATOM     18  H12 UNL     1      46.264  16.540   4.820  1.00  0.00     0.157 HD
ATOM     19  H11 UNL     1      44.638  17.000   4.291  1.00  0.00     0.157 HD
ENDBRANCH  13  17
ENDBRANCH   9  10
ENDBRANCH   5   9
BRANCH   8  20
HETATM   20  C11 UNL     1      48.651   9.115  -0.003  1.00  0.00     0.127 A 
HETATM   21  C12 UNL     1      49.974   9.505   0.131  1.00  0.00     0.052 A 
HETATM   22  C13 UNL     1      50.709   8.343   0.034  1.00  0.00     0.021 A 
HETATM   23  C14 UNL     1      49.865   7.266  -0.155  1.00  0.00     0.090 A 
HETATM   24  N5  UNL     1      48.624   7.787  -0.170  1.00  0.00    -0.351 N 
ATOM     25  H5  UNL     1      47.773   7.240  -0.293  1.00  0.00     0.166 HD
ENDBRANCH   8  20
TORSDOF 4
ENDMDL
