MODEL 1
REMARK VINA RESULT: -5.658397171      0.000      0.000
REMARK  4 active torsions:
REMARK  status: ('A' for Active; 'I' for Inactive)
REMARK    1  A    between atoms: C3_3  and  N1_4 
REMARK    2  A    between atoms: N1_4  and  C4_5 
REMARK    3  A    between atoms: C9_15  and  N4_16 
REMARK    4  A    between atoms: N4_16  and  C10_18 
ROOT
HETATM    1  C1  UNL     1      44.479  11.076  -0.214  1.00  0.00     0.111 A 
HETATM    2  C2  UNL     1      44.319  12.073   0.714  1.00  0.00     0.081 A 
HETATM    3  C3  UNL     1      45.342  12.413   1.611  1.00  0.00     0.189 A 
HETATM    4  N3  UNL     1      46.474  11.682   1.476  1.00  0.00    -0.165 N 
ATOM      5  H3  UNL     1      47.258  11.879   2.098  1.00  0.00     0.187 HD
HETATM    6  C9  UNL     1      46.612  10.711   0.561  1.00  0.00     0.680 A 
HETATM    7  N6  UNL     1      45.629  10.392  -0.292  1.00  0.00    -0.202 N 
ATOM      8  H6  UNL     1      45.753   9.649  -0.981  1.00  0.00     0.183 HD
ENDROOT
BRANCH   3   9
HETATM    9  N1  UNL     1      45.226  13.273   2.425  1.00  0.00    -0.423 NA
BRANCH   9  10
HETATM   10  C4  UNL     1      45.055  14.202   3.352  1.00  0.00     0.191 C 
HETATM   11  C5  UNL     1      46.246  14.569   4.236  1.00  0.00     0.043 C 
HETATM   12  C6  UNL     1      45.671  15.425   5.347  1.00  0.00     0.030 C 
HETATM   13  C7  UNL     1      45.177  16.714   4.691  1.00  0.00     0.232 C 
HETATM   14  N2  UNL     1      44.004  16.341   3.915  1.00  0.00    -0.072 N 
HETATM   15  C8  UNL     1      44.435  15.495   2.810  1.00  0.00     0.271 C 
ATOM     16  H22 UNL     1      43.280  15.904   4.484  1.00  0.00     0.277 HD
ATOM     17  H21 UNL     1      43.466  17.150   3.603  1.00  0.00     0.277 HD
ENDBRANCH   9  10
ENDBRANCH   3   9
BRANCH   6  18
HETATM   18  N4  UNL     1      47.699  10.052   0.474  1.00  0.00    -0.220 N 
ATOM     19  H4  UNL     1      48.466  10.523  -0.006  1.00  0.00     0.178 HD
BRANCH  18  20
HETATM   20  C10 UNL     1      47.980   8.759   0.954  1.00  0.00     0.126 C 
HETATM   21  C11 UNL     1      49.403   8.339   0.951  1.00  0.00     0.055 C 
HETATM   22  C12 UNL     1      49.660   7.755   2.346  1.00  0.00     0.234 C 
HETATM   23  N5  UNL     1      48.312   7.319   2.713  1.00  0.00    -0.073 N 
HETATM   24  C13 UNL     1      47.544   8.510   2.379  1.00  0.00     0.257 C 
ATOM     25  H52 UNL     1      47.995   6.454   2.276  1.00  0.00     0.277 HD
ATOM     26  H51 UNL     1      48.205   6.979   3.668  1.00  0.00     0.277 HD
ENDBRANCH  18  20
ENDBRANCH   6  18
TORSDOF 4
ENDMDL
MODEL 2
REMARK VINA RESULT: -5.595324117      1.320      1.829
REMARK  4 active torsions:
REMARK  status: ('A' for Active; 'I' for Inactive)
REMARK    1  A    between atoms: C3_3  and  N1_4 
REMARK    2  A    between atoms: N1_4  and  C4_5 
REMARK    3  A    between atoms: C9_15  and  N4_16 
REMARK    4  A    between atoms: N4_16  and  C10_18 
ROOT
HETATM    1  C1  UNL     1      44.456  11.220  -0.344  1.00  0.00     0.111 A 
HETATM    2  C2  UNL     1      44.318  12.228   0.577  1.00  0.00     0.081 A 
HETATM    3  C3  UNL     1      45.271  12.442   1.583  1.00  0.00     0.189 A 
HETATM    4  N3  UNL     1      46.316  11.580   1.558  1.00  0.00    -0.165 N 
ATOM      5  H3  UNL     1      47.046  11.680   2.263  1.00  0.00     0.187 HD
HETATM    6  C9  UNL     1      46.434  10.601   0.649  1.00  0.00     0.680 A 
HETATM    7  N6  UNL     1      45.517  10.403  -0.308  1.00  0.00    -0.202 N 
ATOM      8  H6  UNL     1      45.624   9.652  -0.990  1.00  0.00     0.183 HD
ENDROOT
BRANCH   3   9
HETATM    9  N1  UNL     1      45.172  13.309   2.392  1.00  0.00    -0.423 NA
BRANCH   9  10
HETATM   10  C4  UNL     1      45.037  14.237   3.325  1.00  0.00     0.191 C 
HETATM   11  C5  UNL     1      46.248  14.568   4.196  1.00  0.00     0.043 C 
HETATM   12  C6  UNL     1      45.709  15.433   5.318  1.00  0.00     0.030 C 
HETATM   13  C7  UNL     1      45.242  16.739   4.673  1.00  0.00     0.232 C 
HETATM   14  N2  UNL     1      44.050  16.401   3.909  1.00  0.00    -0.072 N 
HETATM   15  C8  UNL     1      44.445  15.549   2.796  1.00  0.00     0.271 C 
ATOM     16  H22 UNL     1      43.321  15.980   4.485  1.00  0.00     0.277 HD
ATOM     17  H21 UNL     1      43.530  17.225   3.608  1.00  0.00     0.277 HD
ENDBRANCH   9  10
ENDBRANCH   3   9
BRANCH   6  18
HETATM   18  N4  UNL     1      47.438   9.816   0.670  1.00  0.00    -0.220 N 
ATOM     19  H4  UNL     1      47.452   9.133   1.428  1.00  0.00     0.178 HD
BRANCH  18  20
HETATM   20  C10 UNL     1      48.530   9.767  -0.218  1.00  0.00     0.126 C 
HETATM   21  C11 UNL     1      49.078  11.067  -0.674  1.00  0.00     0.055 C 
HETATM   22  C12 UNL     1      50.597  10.958  -0.486  1.00  0.00     0.234 C 
HETATM   23  N5  UNL     1      50.782   9.510  -0.587  1.00  0.00    -0.073 N 
HETATM   24  C13 UNL     1      49.742   9.043   0.319  1.00  0.00     0.257 C 
ATOM     25  H52 UNL     1      50.749   9.126  -1.531  1.00  0.00     0.277 HD
ATOM     26  H51 UNL     1      51.724   9.172  -0.389  1.00  0.00     0.277 HD
ENDBRANCH  18  20
ENDBRANCH   6  18
TORSDOF 4
ENDMDL
MODEL 3
REMARK VINA RESULT: -5.531403240      1.406      7.150
REMARK  4 active torsions:
REMARK  status: ('A' for Active; 'I' for Inactive)
REMARK    1  A    between atoms: C3_3  and  N1_4 
REMARK    2  A    between atoms: N1_4  and  C4_5 
REMARK    3  A    between atoms: C9_15  and  N4_16 
REMARK    4  A    between atoms: N4_16  and  C10_18 
ROOT
HETATM    1  C1  UNL     1      44.312  12.655   1.042  1.00  0.00     0.111 A 
HETATM    2  C2  UNL     1      44.956  11.456   0.874  1.00  0.00     0.081 A 
HETATM    3  C3  UNL     1      45.960  11.030   1.757  1.00  0.00     0.189 A 
HETATM    4  N3  UNL     1      46.223  11.895   2.766  1.00  0.00    -0.165 N 
ATOM      5  H3  UNL     1      46.943  11.646   3.444  1.00  0.00     0.187 HD
HETATM    6  C9  UNL     1      45.582  13.063   2.914  1.00  0.00     0.680 A 
HETATM    7  N6  UNL     1      44.625  13.462   2.064  1.00  0.00    -0.202 N 
ATOM      8  H6  UNL     1      44.149  14.355   2.193  1.00  0.00     0.183 HD
ENDROOT
BRANCH   3   9
HETATM    9  N1  UNL     1      46.533   9.995   1.632  1.00  0.00    -0.423 NA
BRANCH   9  10
HETATM   10  C4  UNL     1      47.143   8.825   1.537  1.00  0.00     0.191 C 
HETATM   11  C5  UNL     1      48.576   8.798   1.010  1.00  0.00     0.043 C 
HETATM   12  C6  UNL     1      48.882   7.334   0.759  1.00  0.00     0.030 C 
HETATM   13  C7  UNL     1      48.886   6.650   2.126  1.00  0.00     0.232 C 
HETATM   14  N2  UNL     1      47.499   6.631   2.565  1.00  0.00    -0.072 N 
HETATM   15  C8  UNL     1      47.083   8.002   2.829  1.00  0.00     0.271 C 
ATOM     16  H22 UNL     1      46.885   6.155   1.904  1.00  0.00     0.277 HD
ATOM     17  H21 UNL     1      47.348   6.014   3.364  1.00  0.00     0.277 HD
ENDBRANCH   9  10
ENDBRANCH   3   9
BRANCH   6  18
HETATM   18  N4  UNL     1      45.868  13.842   3.881  1.00  0.00    -0.220 N 
ATOM     19  H4  UNL     1      46.040  13.389   4.779  1.00  0.00     0.178 HD
BRANCH  18  20
HETATM   20  C10 UNL     1      45.976  15.246   3.872  1.00  0.00     0.126 C 
HETATM   21  C11 UNL     1      44.988  15.997   4.685  1.00  0.00     0.055 C 
HETATM   22  C12 UNL     1      45.811  17.005   5.499  1.00  0.00     0.234 C 
HETATM   23  N5  UNL     1      46.979  17.167   4.633  1.00  0.00    -0.073 N 
HETATM   24  C13 UNL     1      47.305  15.774   4.358  1.00  0.00     0.257 C 
ATOM     25  H52 UNL     1      46.842  17.757   3.812  1.00  0.00     0.277 HD
ATOM     26  H51 UNL     1      47.738  17.730   5.018  1.00  0.00     0.277 HD
ENDBRANCH  18  20
ENDBRANCH   6  18
TORSDOF 4
ENDMDL
MODEL 4
REMARK VINA RESULT: -5.514896401      2.399      7.944
REMARK  4 active torsions:
REMARK  status: ('A' for Active; 'I' for Inactive)
REMARK    1  A    between atoms: C3_3  and  N1_4 
REMARK    2  A    between atoms: N1_4  and  C4_5 
REMARK    3  A    between atoms: C9_15  and  N4_16 
REMARK    4  A    between atoms: N4_16  and  C10_18 
ROOT
HETATM    1  C1  UNL     1      49.546   9.089   0.369  1.00  0.00     0.111 A 
HETATM    2  C2  UNL     1      49.968   8.088   1.207  1.00  0.00     0.081 A 
HETATM    3  C3  UNL     1      49.178   7.641   2.275  1.00  0.00     0.189 A 
HETATM    4  N3  UNL     1      47.987   8.275   2.396  1.00  0.00    -0.165 N 
ATOM      5  H3  UNL     1      47.362   7.997   3.154  1.00  0.00     0.187 HD
HETATM    6  C9  UNL     1      47.591   9.251   1.567  1.00  0.00     0.680 A 
HETATM    7  N6  UNL     1      48.353   9.673   0.548  1.00  0.00    -0.202 N 
ATOM      8  H6  UNL     1      48.035  10.418  -0.071  1.00  0.00     0.183 HD
ENDROOT
BRANCH   3   9
HETATM    9  N1  UNL     1      49.523   6.775   3.015  1.00  0.00    -0.423 NA
BRANCH   9  10
HETATM   10  C4  UNL     1      49.901   5.776   3.796  1.00  0.00     0.191 C 
HETATM   11  C5  UNL     1      51.246   5.889   4.513  1.00  0.00     0.043 C 
HETATM   12  C6  UNL     1      51.512   4.509   5.082  1.00  0.00     0.030 C 
HETATM   13  C7  UNL     1      50.446   4.266   6.150  1.00  0.00     0.232 C 
HETATM   14  N2  UNL     1      49.193   4.094   5.429  1.00  0.00    -0.072 N 
HETATM   15  C8  UNL     1      48.836   5.368   4.820  1.00  0.00     0.271 C 
ATOM     16  H22 UNL     1      49.232   3.333   4.751  1.00  0.00     0.277 HD
ATOM     17  H21 UNL     1      48.449   3.718   6.018  1.00  0.00     0.277 HD
ENDBRANCH   9  10
ENDBRANCH   3   9
BRANCH   6  18
HETATM   18  N4  UNL     1      46.459   9.816   1.724  1.00  0.00    -0.220 N 
ATOM     19  H4  UNL     1      45.733   9.243   2.154  1.00  0.00     0.178 HD
BRANCH  18  20
HETATM   20  C10 UNL     1      46.081  11.128   1.381  1.00  0.00     0.126 C 
HETATM   21  C11 UNL     1      44.914  11.272   0.477  1.00  0.00     0.055 C 
HETATM   22  C12 UNL     1      44.014  12.326   1.135  1.00  0.00     0.234 C 
HETATM   23  N5  UNL     1      45.000  13.086   1.904  1.00  0.00    -0.073 N 
HETATM   24  C13 UNL     1      45.723  12.005   2.558  1.00  0.00     0.257 C 
ATOM     25  H52 UNL     1      45.572  13.736   1.365  1.00  0.00     0.277 HD
ATOM     26  H51 UNL     1      44.619  13.801   2.524  1.00  0.00     0.277 HD
ENDBRANCH  18  20
ENDBRANCH   6  18
TORSDOF 4
ENDMDL
MODEL 5
REMARK VINA RESULT: -5.484137564      2.468      8.078
REMARK  4 active torsions:
REMARK  status: ('A' for Active; 'I' for Inactive)
REMARK    1  A    between atoms: C3_3  and  N1_4 
REMARK    2  A    between atoms: N1_4  and  C4_5 
REMARK    3  A    between atoms: C9_15  and  N4_16 
REMARK    4  A    between atoms: N4_16  and  C10_18 
ROOT
HETATM    1  C1  UNL     1      49.406   8.911   0.215  1.00  0.00     0.111 A 
HETATM    2  C2  UNL     1      49.950   8.068   1.151  1.00  0.00     0.081 A 
HETATM    3  C3  UNL     1      49.285   7.773   2.350  1.00  0.00     0.189 A 
HETATM    4  N3  UNL     1      48.084   8.383   2.490  1.00  0.00    -0.165 N 
ATOM      5  H3  UNL     1      47.547   8.211   3.341  1.00  0.00     0.187 HD
HETATM    6  C9  UNL     1      47.567   9.203   1.564  1.00  0.00     0.680 A 
HETATM    7  N6  UNL     1      48.211   9.481   0.421  1.00  0.00    -0.202 N 
ATOM      8  H6  UNL     1      47.802  10.109  -0.272  1.00  0.00     0.183 HD
ENDROOT
BRANCH   3   9
HETATM    9  N1  UNL     1      49.737   7.045   3.176  1.00  0.00    -0.423 NA
BRANCH   9  10
HETATM   10  C4  UNL     1      50.246   6.198   4.055  1.00  0.00     0.191 C 
HETATM   11  C5  UNL     1      49.317   5.159   4.680  1.00  0.00     0.043 C 
HETATM   12  C6  UNL     1      50.108   4.547   5.819  1.00  0.00     0.030 C 
HETATM   13  C7  UNL     1      51.274   3.791   5.181  1.00  0.00     0.232 C 
HETATM   14  N2  UNL     1      52.172   4.811   4.660  1.00  0.00    -0.072 N 
HETATM   15  C8  UNL     1      51.507   5.485   3.553  1.00  0.00     0.271 C 
ATOM     16  H22 UNL     1      52.489   5.460   5.380  1.00  0.00     0.277 HD
ATOM     17  H21 UNL     1      53.084   4.436   4.400  1.00  0.00     0.277 HD
ENDBRANCH   9  10
ENDBRANCH   3   9
BRANCH   6  18
HETATM   18  N4  UNL     1      46.432   9.753   1.745  1.00  0.00    -0.220 N 
ATOM     19  H4  UNL     1      45.729   9.177   2.207  1.00  0.00     0.178 HD
BRANCH  18  20
HETATM   20  C10 UNL     1      46.022  11.052   1.389  1.00  0.00     0.126 C 
HETATM   21  C11 UNL     1      44.744  11.168   0.644  1.00  0.00     0.055 C 
HETATM   22  C12 UNL     1      43.950  12.267   1.363  1.00  0.00     0.234 C 
HETATM   23  N5  UNL     1      45.038  13.050   1.950  1.00  0.00    -0.073 N 
HETATM   24  C13 UNL     1      45.834  11.992   2.556  1.00  0.00     0.257 C 
ATOM     25  H52 UNL     1      45.537  13.663   1.306  1.00  0.00     0.277 HD
ATOM     26  H51 UNL     1      44.750  13.800   2.578  1.00  0.00     0.277 HD
ENDBRANCH  18  20
ENDBRANCH   6  18
TORSDOF 4
ENDMDL
