MODEL 1
REMARK VINA RESULT: -6.722224409      0.000      0.000
REMARK  4 active torsions:
REMARK  status: ('A' for Active; 'I' for Inactive)
REMARK    1  A    between atoms: C4_8  and  C5_9 
REMARK    2  A    between atoms: C6_12  and  N4_13 
REMARK    3  A    between atoms: N4_13  and  C7_15 
REMARK    4  A    between atoms: C13_23  and  O1_24 
ROOT
HETATM    1  C5  UNL     1      47.713   9.035   1.659  1.00  0.00     0.104 A 
HETATM    2  N3  UNL     1      46.563   9.560   2.116  1.00  0.00    -0.187 N 
ATOM      3  H3  UNL     1      46.125   9.374   3.018  1.00  0.00     0.184 HD
HETATM    4  C6  UNL     1      46.108  10.369   1.166  1.00  0.00     0.685 A 
HETATM    5  N5  UNL     1      46.956  10.366   0.105  1.00  0.00    -0.168 N 
ATOM      6  H5  UNL     1      46.846  10.898  -0.758  1.00  0.00     0.186 HD
HETATM    7  C13 UNL     1      47.963   9.534   0.405  1.00  0.00     0.183 A 
ENDROOT
BRANCH   1   8
HETATM    8  C4  UNL     1      48.519   8.100   2.403  1.00  0.00     0.084 C 
HETATM    9  C3  UNL     1      48.242   6.795   2.425  1.00  0.00     0.123 A 
HETATM   10  N2  UNL     1      47.220   6.199   1.787  1.00  0.00    -0.284 N 
HETATM   11  N6  UNL     1      48.900   5.817   3.070  1.00  0.00    -0.327 N 
HETATM   12  N1  UNL     1      47.247   4.889   2.030  1.00  0.00    -0.285 N 
ATOM     13  H2  UNL     1      46.530   6.675   1.206  1.00  0.00     0.188 HD
HETATM   14  C2  UNL     1      48.296   4.634   2.834  1.00  0.00     0.111 A 
ATOM     15  H1  UNL     1      46.587   4.200   1.670  1.00  0.00     0.188 HD
HETATM   16  C1  UNL     1      48.656   3.450   3.298  1.00  0.00     0.065 C 
ATOM     17  H6  UNL     1      49.730   5.949   3.649  1.00  0.00     0.169 HD
ENDBRANCH   1   8
BRANCH   7  18
HETATM   18  O1  UNL     1      49.052   9.246  -0.423  1.00  0.00    -0.344 OA
ATOM     19  H1  UNL     1      49.237   9.609  -1.280  1.00  0.00     0.219 HD
ENDBRANCH   7  18
BRANCH   4  20
HETATM   20  N4  UNL     1      45.024  11.071   1.210  1.00  0.00    -0.192 N 
ATOM     21  H4  UNL     1      44.164  10.716   0.789  1.00  0.00     0.184 HD
BRANCH  20  22
HETATM   22  C7  UNL     1      45.038  12.338   1.847  1.00  0.00     0.049 A 
HETATM   23  C8  UNL     1      44.153  13.344   1.465  1.00  0.00     0.030 A 
HETATM   24  C9  UNL     1      44.135  14.584   2.055  1.00  0.00     0.002 A 
HETATM   25  C10 UNL     1      45.025  14.863   3.078  1.00  0.00     0.000 A 
HETATM   26  C11 UNL     1      45.918  13.877   3.479  1.00  0.00     0.002 A 
HETATM   27  C12 UNL     1      45.916  12.640   2.867  1.00  0.00     0.030 A 
ENDBRANCH  20  22
ENDBRANCH   4  20
TORSDOF 4
ENDMDL
MODEL 2
REMARK VINA RESULT: -6.485842872      1.094      1.138
REMARK  4 active torsions:
REMARK  status: ('A' for Active; 'I' for Inactive)
REMARK    1  A    between atoms: C4_8  and  C5_9 
REMARK    2  A    between atoms: C6_12  and  N4_13 
REMARK    3  A    between atoms: N4_13  and  C7_15 
REMARK    4  A    between atoms: C13_23  and  O1_24 
ROOT
HETATM    1  C5  UNL     1      47.578   9.485   0.971  1.00  0.00     0.104 A 
HETATM    2  N3  UNL     1      46.487   9.867   1.658  1.00  0.00    -0.187 N 
ATOM      3  H3  UNL     1      46.158   9.480   2.543  1.00  0.00     0.184 HD
HETATM    4  C6  UNL     1      45.921  10.848   0.963  1.00  0.00     0.685 A 
HETATM    5  N5  UNL     1      46.639  11.096  -0.162  1.00  0.00    -0.168 N 
ATOM      6  H5  UNL     1      46.427  11.797  -0.872  1.00  0.00     0.186 HD
HETATM    7  C13 UNL     1      47.678  10.248  -0.166  1.00  0.00     0.183 A 
ENDROOT
BRANCH   1   8
HETATM    8  C4  UNL     1      48.468   8.436   1.400  1.00  0.00     0.084 C 
HETATM    9  C3  UNL     1      48.146   7.601   2.389  1.00  0.00     0.123 A 
HETATM   10  N2  UNL     1      47.000   7.621   3.091  1.00  0.00    -0.284 N 
HETATM   11  N6  UNL     1      48.871   6.587   2.888  1.00  0.00    -0.327 N 
HETATM   12  N1  UNL     1      47.017   6.646   3.999  1.00  0.00    -0.285 N 
ATOM     13  H2  UNL     1      46.236   8.281   2.951  1.00  0.00     0.188 HD
HETATM   14  C2  UNL     1      48.185   5.988   3.884  1.00  0.00     0.111 A 
ATOM     15  H1  UNL     1      46.274   6.435   4.665  1.00  0.00     0.188 HD
HETATM   16  C1  UNL     1      48.576   4.956   4.611  1.00  0.00     0.065 C 
ATOM     17  H6  UNL     1      49.799   6.312   2.565  1.00  0.00     0.169 HD
ENDBRANCH   1   8
BRANCH   7  18
HETATM   18  O1  UNL     1      48.663  10.175  -1.154  1.00  0.00    -0.344 OA
ATOM     19  H1  UNL     1      48.787  10.761  -1.890  1.00  0.00     0.219 HD
ENDBRANCH   7  18
BRANCH   4  20
HETATM   20  N4  UNL     1      44.847  11.492   1.280  1.00  0.00    -0.192 N 
ATOM     21  H4  UNL     1      43.931  11.119   1.028  1.00  0.00     0.184 HD
BRANCH  20  22
HETATM   22  C7  UNL     1      44.951  12.721   1.981  1.00  0.00     0.049 A 
HETATM   23  C8  UNL     1      44.151  13.810   1.643  1.00  0.00     0.030 A 
HETATM   24  C9  UNL     1      44.221  15.017   2.295  1.00  0.00     0.002 A 
HETATM   25  C10 UNL     1      45.120  15.175   3.337  1.00  0.00     0.000 A 
HETATM   26  C11 UNL     1      45.930  14.104   3.694  1.00  0.00     0.002 A 
HETATM   27  C12 UNL     1      45.839  12.903   3.021  1.00  0.00     0.030 A 
ENDBRANCH  20  22
ENDBRANCH   4  20
TORSDOF 4
ENDMDL
MODEL 3
REMARK VINA RESULT: -6.418025760      2.462      2.839
REMARK  4 active torsions:
REMARK  status: ('A' for Active; 'I' for Inactive)
REMARK    1  A    between atoms: C4_8  and  C5_9 
REMARK    2  A    between atoms: C6_12  and  N4_13 
REMARK    3  A    between atoms: N4_13  and  C7_15 
REMARK    4  A    between atoms: C13_23  and  O1_24 
ROOT
HETATM    1  C5  UNL     1      49.702   8.711   0.037  1.00  0.00     0.104 A 
HETATM    2  N3  UNL     1      48.401   8.629  -0.294  1.00  0.00    -0.187 N 
ATOM      3  H3  UNL     1      47.837   7.781  -0.339  1.00  0.00     0.184 HD
HETATM    4  C6  UNL     1      47.994   9.867  -0.552  1.00  0.00     0.685 A 
HETATM    5  N5  UNL     1      49.021  10.740  -0.390  1.00  0.00    -0.168 N 
ATOM      6  H5  UNL     1      48.984  11.750  -0.523  1.00  0.00     0.186 HD
HETATM    7  C13 UNL     1      50.095  10.025  -0.021  1.00  0.00     0.183 A 
ENDROOT
BRANCH   1   8
HETATM    8  C4  UNL     1      50.513   7.572   0.387  1.00  0.00     0.084 C 
HETATM    9  C3  UNL     1      50.610   7.139   1.645  1.00  0.00     0.123 A 
HETATM   10  N2  UNL     1      49.995   7.680   2.711  1.00  0.00    -0.284 N 
HETATM   11  N6  UNL     1      51.322   6.101   2.113  1.00  0.00    -0.327 N 
HETATM   12  N1  UNL     1      50.318   6.994   3.807  1.00  0.00    -0.285 N 
ATOM     13  H2  UNL     1      49.377   8.491   2.685  1.00  0.00     0.188 HD
HETATM   14  C2  UNL     1      51.150   6.000   3.448  1.00  0.00     0.111 A 
ATOM     15  H1  UNL     1      49.991   7.189   4.753  1.00  0.00     0.188 HD
HETATM   16  C1  UNL     1      51.690   5.102   4.254  1.00  0.00     0.065 C 
ATOM     17  H6  UNL     1      51.904   5.483   1.546  1.00  0.00     0.169 HD
ENDBRANCH   1   8
BRANCH   7  18
HETATM   18  O1  UNL     1      51.363  10.546   0.248  1.00  0.00    -0.344 OA
ATOM     19  H1  UNL     1      51.685  10.886   1.074  1.00  0.00     0.219 HD
ENDBRANCH   7  18
BRANCH   4  20
HETATM   20  N4  UNL     1      46.805  10.225  -0.908  1.00  0.00    -0.192 N 
ATOM     21  H4  UNL     1      46.439   9.958  -1.822  1.00  0.00     0.184 HD
BRANCH  20  22
HETATM   22  C7  UNL     1      46.011  10.992  -0.016  1.00  0.00     0.049 A 
HETATM   23  C8  UNL     1      45.042  11.873  -0.494  1.00  0.00     0.030 A 
HETATM   24  C9  UNL     1      44.254  12.634   0.334  1.00  0.00     0.002 A 
HETATM   25  C10 UNL     1      44.414  12.532   1.706  1.00  0.00     0.000 A 
HETATM   26  C11 UNL     1      45.372  11.661   2.209  1.00  0.00     0.002 A 
HETATM   27  C12 UNL     1      46.152  10.909   1.353  1.00  0.00     0.030 A 
ENDBRANCH  20  22
ENDBRANCH   4  20
TORSDOF 4
ENDMDL
MODEL 4
REMARK VINA RESULT: -6.255832612      4.255      6.775
REMARK  4 active torsions:
REMARK  status: ('A' for Active; 'I' for Inactive)
REMARK    1  A    between atoms: C4_8  and  C5_9 
REMARK    2  A    between atoms: C6_12  and  N4_13 
REMARK    3  A    between atoms: N4_13  and  C7_15 
REMARK    4  A    between atoms: C13_23  and  O1_24 
ROOT
HETATM    1  C5  UNL     1      44.515  10.617  -1.462  1.00  0.00     0.104 A 
HETATM    2  N3  UNL     1      44.227  10.676  -0.150  1.00  0.00    -0.187 N 
ATOM      3  H3  UNL     1      43.354  10.390   0.295  1.00  0.00     0.184 HD
HETATM    4  C6  UNL     1      45.298  11.179   0.454  1.00  0.00     0.685 A 
HETATM    5  N5  UNL     1      46.268  11.442  -0.458  1.00  0.00    -0.168 N 
ATOM      6  H5  UNL     1      47.190  11.832  -0.265  1.00  0.00     0.186 HD
HETATM    7  C13 UNL     1      45.787  11.093  -1.660  1.00  0.00     0.183 A 
ENDROOT
BRANCH   1   8
HETATM    8  C4  UNL     1      43.601  10.124  -2.462  1.00  0.00     0.084 C 
HETATM    9  C3  UNL     1      42.759  10.935  -3.105  1.00  0.00     0.123 A 
HETATM   10  N2  UNL     1      42.650  12.261  -2.918  1.00  0.00    -0.284 N 
HETATM   11  N6  UNL     1      41.861  10.617  -4.051  1.00  0.00    -0.327 N 
HETATM   12  N1  UNL     1      41.711  12.749  -3.727  1.00  0.00    -0.285 N 
ATOM     13  H2  UNL     1      43.201  12.810  -2.258  1.00  0.00     0.188 HD
HETATM   14  C2  UNL     1      41.206  11.730  -4.445  1.00  0.00     0.111 A 
ATOM     15  H1  UNL     1      41.424  13.726  -3.791  1.00  0.00     0.188 HD
HETATM   16  C1  UNL     1      40.253  11.811  -5.356  1.00  0.00     0.065 C 
ATOM     17  H6  UNL     1      41.699   9.678  -4.417  1.00  0.00     0.169 HD
ENDBRANCH   1   8
BRANCH   7  18
HETATM   18  O1  UNL     1      46.473  11.204  -2.872  1.00  0.00    -0.344 OA
ATOM     19  H1  UNL     1      46.677  10.509  -3.486  1.00  0.00     0.219 HD
ENDBRANCH   7  18
BRANCH   4  20
HETATM   20  N4  UNL     1      45.431  11.399   1.721  1.00  0.00    -0.192 N 
ATOM     21  H4  UNL     1      45.678  10.636   2.352  1.00  0.00     0.184 HD
BRANCH  20  22
HETATM   22  C7  UNL     1      45.232  12.710   2.226  1.00  0.00     0.049 A 
HETATM   23  C8  UNL     1      46.015  13.205   3.267  1.00  0.00     0.030 A 
HETATM   24  C9  UNL     1      45.854  14.466   3.785  1.00  0.00     0.002 A 
HETATM   25  C10 UNL     1      44.877  15.297   3.261  1.00  0.00     0.000 A 
HETATM   26  C11 UNL     1      44.082  14.828   2.222  1.00  0.00     0.002 A 
HETATM   27  C12 UNL     1      44.265  13.555   1.722  1.00  0.00     0.030 A 
ENDBRANCH  20  22
ENDBRANCH   4  20
TORSDOF 4
ENDMDL
MODEL 5
REMARK VINA RESULT: -6.253869462      4.266      6.668
REMARK  4 active torsions:
REMARK  status: ('A' for Active; 'I' for Inactive)
REMARK    1  A    between atoms: C4_8  and  C5_9 
REMARK    2  A    between atoms: C6_12  and  N4_13 
REMARK    3  A    between atoms: N4_13  and  C7_15 
REMARK    4  A    between atoms: C13_23  and  O1_24 
ROOT
HETATM    1  C5  UNL     1      44.548  10.634  -1.431  1.00  0.00     0.104 A 
HETATM    2  N3  UNL     1      44.237  10.693  -0.124  1.00  0.00    -0.187 N 
ATOM      3  H3  UNL     1      43.360  10.400   0.307  1.00  0.00     0.184 HD
HETATM    4  C6  UNL     1      45.293  11.206   0.497  1.00  0.00     0.685 A 
HETATM    5  N5  UNL     1      46.276  11.476  -0.400  1.00  0.00    -0.168 N 
ATOM      6  H5  UNL     1      47.192  11.874  -0.192  1.00  0.00     0.186 HD
HETATM    7  C13 UNL     1      45.818  11.121  -1.609  1.00  0.00     0.183 A 
ENDROOT
BRANCH   1   8
HETATM    8  C4  UNL     1      43.655  10.132  -2.446  1.00  0.00     0.084 C 
HETATM    9  C3  UNL     1      42.811  10.933  -3.098  1.00  0.00     0.123 A 
HETATM   10  N2  UNL     1      42.681  12.257  -2.908  1.00  0.00    -0.284 N 
HETATM   11  N6  UNL     1      41.930  10.606  -4.058  1.00  0.00    -0.327 N 
HETATM   12  N1  UNL     1      41.746  12.735  -3.729  1.00  0.00    -0.285 N 
ATOM     13  H2  UNL     1      43.215  12.812  -2.239  1.00  0.00     0.188 HD
HETATM   14  C2  UNL     1      41.266  11.711  -4.457  1.00  0.00     0.111 A 
ATOM     15  H1  UNL     1      41.447  13.708  -3.794  1.00  0.00     0.188 HD
HETATM   16  C1  UNL     1      40.324  11.782  -5.382  1.00  0.00     0.065 C 
ATOM     17  H6  UNL     1      41.786   9.666  -4.428  1.00  0.00     0.169 HD
ENDBRANCH   1   8
BRANCH   7  18
HETATM   18  O1  UNL     1      46.524  11.237  -2.810  1.00  0.00    -0.344 OA
ATOM     19  H1  UNL     1      47.350  11.683  -2.954  1.00  0.00     0.219 HD
ENDBRANCH   7  18
BRANCH   4  20
HETATM   20  N4  UNL     1      45.404  11.429   1.765  1.00  0.00    -0.192 N 
ATOM     21  H4  UNL     1      45.622  10.664   2.404  1.00  0.00     0.184 HD
BRANCH  20  22
HETATM   22  C7  UNL     1      45.220  12.745   2.260  1.00  0.00     0.049 A 
HETATM   23  C8  UNL     1      44.259  13.592   1.712  1.00  0.00     0.030 A 
HETATM   24  C9  UNL     1      44.050  14.872   2.161  1.00  0.00     0.002 A 
HETATM   25  C10 UNL     1      44.818  15.359   3.206  1.00  0.00     0.000 A 
HETATM   26  C11 UNL     1      45.784  14.536   3.772  1.00  0.00     0.002 A 
HETATM   27  C12 UNL     1      45.973  13.253   3.299  1.00  0.00     0.030 A 
ENDBRANCH  20  22
ENDBRANCH   4  20
TORSDOF 4
ENDMDL
