MODEL 1
REMARK VINA RESULT: -5.099009920      0.000      0.000
REMARK  4 active torsions:
REMARK  status: ('A' for Active; 'I' for Inactive)
REMARK    1  A    between atoms: C5_5  and  N1_6 
REMARK    2  A    between atoms: C11_17  and  C12_18 
REMARK    3  A    between atoms: C12_18  and  C13_19 
REMARK    4  A    between atoms: C13_19  and  N5_20 
ROOT
HETATM    1  C1  UNL     1      47.038  11.238  -0.526  1.00  0.00     0.020 C 
HETATM    2  C2  UNL     1      45.896  11.177  -1.547  1.00  0.00     0.011 A 
HETATM    3  C3  UNL     1      46.117  12.260  -2.569  1.00  0.00     0.006 A 
HETATM    4  C4  UNL     1      46.328  11.192  -3.590  1.00  0.00     0.058 A 
HETATM    5  C5  UNL     1      46.025  10.113  -2.554  1.00  0.00     0.139 A 
HETATM    6  N4  UNL     1      44.837   9.354  -2.812  1.00  0.00    -0.068 NA
HETATM    7  O1  UNL     1      44.147  10.015  -3.767  1.00  0.00    -0.279 OA
HETATM    8  C7  UNL     1      43.419  11.001  -3.124  1.00  0.00     0.148 C 
HETATM    9  C8  UNL     1      43.790  12.399  -3.482  1.00  0.00     0.039 C 
HETATM   10  C9  UNL     1      44.827  13.001  -2.577  1.00  0.00    -0.006 C 
HETATM   11  C10 UNL     1      44.412  12.910  -1.108  1.00  0.00     0.015 C 
HETATM   12  C11 UNL     1      44.557  11.387  -0.920  1.00  0.00    -0.025 C 
HETATM   13  C14 UNL     1      43.385  10.816  -1.623  1.00  0.00     0.044 C 
ENDROOT
BRANCH  12  14
HETATM   14  C12 UNL     1      44.646  11.006   0.504  1.00  0.00     0.037 C 
BRANCH  14  15
HETATM   15  C13 UNL     1      44.330  12.017   1.530  1.00  0.00     0.230 C 
BRANCH  15  16
HETATM   16  N5  UNL     1      45.384  12.442   2.383  1.00  0.00    -0.079 N 
ATOM     17  H53 UNL     1      45.001  13.021   3.131  1.00  0.00     0.274 HD
ATOM     18  H52 UNL     1      45.730  11.643   2.915  1.00  0.00     0.274 HD
ATOM     19  H51 UNL     1      46.173  12.926   1.954  1.00  0.00     0.274 HD
ENDBRANCH  15  16
ENDBRANCH  14  15
ENDBRANCH  12  14
BRANCH   5  20
HETATM   20  N1  UNL     1      47.129   9.234  -2.262  1.00  0.00    -0.341 N 
HETATM   21  C6  UNL     1      47.396   8.148  -2.860  1.00  0.00     0.198 C 
HETATM   22  N2  UNL     1      46.560   7.719  -3.921  1.00  0.00    -0.067 NA
HETATM   23  N3  UNL     1      48.505   7.352  -2.501  1.00  0.00    -0.067 NA
ATOM     24  H1  UNL     1      47.753   9.510  -1.503  1.00  0.00     0.164 HD
ENDBRANCH   5  20
TORSDOF 4
ENDMDL
MODEL 2
REMARK VINA RESULT: -4.917668255      6.486      8.473
REMARK  4 active torsions:
REMARK  status: ('A' for Active; 'I' for Inactive)
REMARK    1  A    between atoms: C5_5  and  N1_6 
REMARK    2  A    between atoms: C11_17  and  C12_18 
REMARK    3  A    between atoms: C12_18  and  C13_19 
REMARK    4  A    between atoms: C13_19  and  N5_20 
ROOT
HETATM    1  C1  UNL     1      48.682   5.411   0.568  1.00  0.00     0.020 C 
HETATM    2  C2  UNL     1      49.424   5.490   1.908  1.00  0.00     0.011 A 
HETATM    3  C3  UNL     1      49.950   4.119   2.239  1.00  0.00     0.006 A 
HETATM    4  C4  UNL     1      51.332   4.661   2.088  1.00  0.00     0.058 A 
HETATM    5  C5  UNL     1      50.778   6.059   1.830  1.00  0.00     0.139 A 
HETATM    6  N4  UNL     1      51.103   7.026   2.837  1.00  0.00    -0.068 NA
HETATM    7  O1  UNL     1      51.577   6.342   3.902  1.00  0.00    -0.279 OA
HETATM    8  C7  UNL     1      50.476   5.911   4.622  1.00  0.00     0.148 C 
HETATM    9  C8  UNL     1      50.305   4.434   4.697  1.00  0.00     0.039 C 
HETATM   10  C9  UNL     1      49.433   3.869   3.611  1.00  0.00    -0.006 C 
HETATM   11  C10 UNL     1      48.075   4.569   3.561  1.00  0.00     0.015 C 
HETATM   12  C11 UNL     1      48.539   5.938   3.025  1.00  0.00    -0.025 C 
HETATM   13  C14 UNL     1      49.194   6.585   4.186  1.00  0.00     0.044 C 
ENDROOT
BRANCH  12  14
HETATM   14  C12 UNL     1      47.426   6.721   2.451  1.00  0.00     0.037 C 
BRANCH  14  15
HETATM   15  C13 UNL     1      47.302   8.145   2.809  1.00  0.00     0.230 C 
BRANCH  15  16
HETATM   16  N5  UNL     1      47.339   9.096   1.753  1.00  0.00    -0.079 N 
ATOM     17  H53 UNL     1      46.400   9.208   1.369  1.00  0.00     0.274 HD
ATOM     18  H52 UNL     1      47.500  10.025   2.142  1.00  0.00     0.274 HD
ATOM     19  H51 UNL     1      47.997   8.931   0.992  1.00  0.00     0.274 HD
ENDBRANCH  15  16
ENDBRANCH  14  15
ENDBRANCH  12  14
BRANCH   5  20
HETATM   20  N1  UNL     1      51.060   6.586   0.519  1.00  0.00    -0.341 N 
HETATM   21  C6  UNL     1      50.883   7.784   0.142  1.00  0.00     0.198 C 
HETATM   22  N2  UNL     1      50.360   8.728   1.061  1.00  0.00    -0.067 NA
HETATM   23  N3  UNL     1      51.192   8.207  -1.168  1.00  0.00    -0.067 NA
ATOM     24  H1  UNL     1      51.438   5.935  -0.170  1.00  0.00     0.164 HD
ENDBRANCH   5  20
TORSDOF 4
ENDMDL
MODEL 3
REMARK VINA RESULT: -4.690224557      1.273      1.368
REMARK  4 active torsions:
REMARK  status: ('A' for Active; 'I' for Inactive)
REMARK    1  A    between atoms: C5_5  and  N1_6 
REMARK    2  A    between atoms: C11_17  and  C12_18 
REMARK    3  A    between atoms: C12_18  and  C13_19 
REMARK    4  A    between atoms: C13_19  and  N5_20 
ROOT
HETATM    1  C1  UNL     1      47.348  12.185  -2.100  1.00  0.00     0.020 C 
HETATM    2  C2  UNL     1      45.918  11.695  -2.356  1.00  0.00     0.011 A 
HETATM    3  C3  UNL     1      45.288  12.591  -3.387  1.00  0.00     0.006 A 
HETATM    4  C4  UNL     1      45.249  11.423  -4.315  1.00  0.00     0.058 A 
HETATM    5  C5  UNL     1      45.818  10.515  -3.228  1.00  0.00     0.139 A 
HETATM    6  N4  UNL     1      44.926   9.486  -2.781  1.00  0.00    -0.068 NA
HETATM    7  O1  UNL     1      43.698   9.796  -3.253  1.00  0.00    -0.279 OA
HETATM    8  C7  UNL     1      43.148  10.707  -2.368  1.00  0.00     0.148 C 
HETATM    9  C8  UNL     1      42.884  12.060  -2.931  1.00  0.00     0.039 C 
HETATM   10  C9  UNL     1      44.019  13.027  -2.744  1.00  0.00    -0.006 C 
HETATM   11  C10 UNL     1      44.437  13.123  -1.276  1.00  0.00     0.015 C 
HETATM   12  C11 UNL     1      45.074  11.728  -1.124  1.00  0.00    -0.025 C 
HETATM   13  C14 UNL     1      43.921  10.800  -1.071  1.00  0.00     0.044 C 
ENDROOT
BRANCH  12  14
HETATM   14  C12 UNL     1      45.965  11.645   0.052  1.00  0.00     0.037 C 
BRANCH  14  15
HETATM   15  C13 UNL     1      45.570  10.782   1.181  1.00  0.00     0.230 C 
BRANCH  15  16
HETATM   16  N5  UNL     1      46.548   9.892   1.702  1.00  0.00    -0.079 N 
ATOM     17  H53 UNL     1      47.428  10.029   1.204  1.00  0.00     0.274 HD
ATOM     18  H52 UNL     1      46.809  10.193   2.641  1.00  0.00     0.274 HD
ATOM     19  H51 UNL     1      46.321   8.898   1.718  1.00  0.00     0.274 HD
ENDBRANCH  15  16
ENDBRANCH  14  15
ENDBRANCH  12  14
BRANCH   5  20
HETATM   20  N1  UNL     1      47.114   9.960  -3.526  1.00  0.00    -0.341 N 
HETATM   21  C6  UNL     1      47.342   8.939  -4.241  1.00  0.00     0.198 C 
HETATM   22  N2  UNL     1      46.251   8.244  -4.822  1.00  0.00    -0.067 NA
HETATM   23  N3  UNL     1      48.652   8.470  -4.477  1.00  0.00    -0.067 NA
ATOM     24  H1  UNL     1      47.924  10.434  -3.124  1.00  0.00     0.164 HD
ENDBRANCH   5  20
TORSDOF 4
ENDMDL
MODEL 4
REMARK VINA RESULT: -4.603783421      7.381      9.256
REMARK  4 active torsions:
REMARK  status: ('A' for Active; 'I' for Inactive)
REMARK    1  A    between atoms: C5_5  and  N1_6 
REMARK    2  A    between atoms: C11_17  and  C12_18 
REMARK    3  A    between atoms: C12_18  and  C13_19 
REMARK    4  A    between atoms: C13_19  and  N5_20 
ROOT
HETATM    1  C1  UNL     1      48.102   6.485   4.084  1.00  0.00     0.020 C 
HETATM    2  C2  UNL     1      49.269   6.108   3.164  1.00  0.00     0.011 A 
HETATM    3  C3  UNL     1      50.167   7.307   3.022  1.00  0.00     0.006 A 
HETATM    4  C4  UNL     1      51.228   6.542   3.741  1.00  0.00     0.058 A 
HETATM    5  C5  UNL     1      50.327   5.312   3.806  1.00  0.00     0.139 A 
HETATM    6  N4  UNL     1      50.798   4.185   3.056  1.00  0.00    -0.068 NA
HETATM    7  O1  UNL     1      51.785   4.634   2.248  1.00  0.00    -0.279 OA
HETATM    8  C7  UNL     1      51.172   5.169   1.128  1.00  0.00     0.148 C 
HETATM    9  C8  UNL     1      51.370   6.632   0.933  1.00  0.00     0.039 C 
HETATM   10  C9  UNL     1      50.292   7.477   1.550  1.00  0.00    -0.006 C 
HETATM   11  C10 UNL     1      48.903   7.050   1.072  1.00  0.00     0.015 C 
HETATM   12  C11 UNL     1      48.813   5.696   1.803  1.00  0.00    -0.025 C 
HETATM   13  C14 UNL     1      49.708   4.802   1.033  1.00  0.00     0.044 C 
ENDROOT
BRANCH  12  14
HETATM   14  C12 UNL     1      47.423   5.208   1.907  1.00  0.00     0.037 C 
BRANCH  14  15
HETATM   15  C13 UNL     1      47.182   3.754   1.944  1.00  0.00     0.230 C 
BRANCH  15  16
HETATM   16  N5  UNL     1      46.180   3.275   2.830  1.00  0.00    -0.079 N 
ATOM     17  H53 UNL     1      45.303   3.761   2.641  1.00  0.00     0.274 HD
ATOM     18  H52 UNL     1      45.930   2.320   2.571  1.00  0.00     0.274 HD
ATOM     19  H51 UNL     1      46.376   3.311   3.830  1.00  0.00     0.274 HD
ENDBRANCH  15  16
ENDBRANCH  14  15
ENDBRANCH  12  14
BRANCH   5  20
HETATM   20  N1  UNL     1      49.956   4.908   5.139  1.00  0.00    -0.341 N 
HETATM   21  C6  UNL     1      50.728   4.395   6.004  1.00  0.00     0.198 C 
HETATM   22  N2  UNL     1      52.090   4.179   5.675  1.00  0.00    -0.067 NA
HETATM   23  N3  UNL     1      50.271   4.030   7.288  1.00  0.00    -0.067 NA
ATOM     24  H1  UNL     1      48.983   5.047   5.411  1.00  0.00     0.164 HD
ENDBRANCH   5  20
TORSDOF 4
ENDMDL
MODEL 5
REMARK VINA RESULT: -4.470634128      2.872      4.187
REMARK  4 active torsions:
REMARK  status: ('A' for Active; 'I' for Inactive)
REMARK    1  A    between atoms: C5_5  and  N1_6 
REMARK    2  A    between atoms: C11_17  and  C12_18 
REMARK    3  A    between atoms: C12_18  and  C13_19 
REMARK    4  A    between atoms: C13_19  and  N5_20 
ROOT
HETATM    1  C1  UNL     1      43.382  13.936  -1.496  1.00  0.00     0.020 C 
HETATM    2  C2  UNL     1      44.354  12.837  -1.939  1.00  0.00     0.011 A 
HETATM    3  C3  UNL     1      43.644  11.945  -2.922  1.00  0.00     0.006 A 
HETATM    4  C4  UNL     1      44.593  12.420  -3.971  1.00  0.00     0.058 A 
HETATM    5  C5  UNL     1      45.345  13.258  -2.941  1.00  0.00     0.139 A 
HETATM    6  N4  UNL     1      46.693  12.836  -2.697  1.00  0.00    -0.068 NA
HETATM    7  O1  UNL     1      46.828  11.609  -3.247  1.00  0.00    -0.279 OA
HETATM    8  C7  UNL     1      46.339  10.701  -2.324  1.00  0.00     0.148 C 
HETATM    9  C8  UNL     1      45.134   9.940  -2.758  1.00  0.00     0.039 C 
HETATM   10  C9  UNL     1      43.836  10.582  -2.358  1.00  0.00    -0.006 C 
HETATM   11  C10 UNL     1      43.788  10.861  -0.855  1.00  0.00     0.015 C 
HETATM   12  C11 UNL     1      44.827  11.998  -0.797  1.00  0.00    -0.025 C 
HETATM   13  C14 UNL     1      46.131  11.314  -0.958  1.00  0.00     0.044 C 
ENDROOT
BRANCH  12  14
HETATM   14  C12 UNL     1      44.716  12.795   0.441  1.00  0.00     0.037 C 
BRANCH  14  15
HETATM   15  C13 UNL     1      44.830  12.106   1.740  1.00  0.00     0.230 C 
BRANCH  15  16
HETATM   16  N5  UNL     1      46.030  12.289   2.479  1.00  0.00    -0.079 N 
ATOM     17  H53 UNL     1      46.813  12.386   1.832  1.00  0.00     0.274 HD
ATOM     18  H52 UNL     1      46.021  13.213   2.911  1.00  0.00     0.274 HD
ATOM     19  H51 UNL     1      46.262  11.590   3.185  1.00  0.00     0.274 HD
ENDBRANCH  15  16
ENDBRANCH  14  15
ENDBRANCH  12  14
BRANCH   5  20
HETATM   20  N1  UNL     1      45.299  14.679  -3.173  1.00  0.00    -0.341 N 
HETATM   21  C6  UNL     1      45.922  15.307  -4.081  1.00  0.00     0.198 C 
HETATM   22  N2  UNL     1      46.754  14.587  -4.975  1.00  0.00    -0.067 NA
HETATM   23  N3  UNL     1      45.813  16.707  -4.230  1.00  0.00    -0.067 NA
ATOM     24  H1  UNL     1      44.710  15.231  -2.549  1.00  0.00     0.164 HD
ENDBRANCH   5  20
TORSDOF 4
ENDMDL
