MODEL 1
REMARK VINA RESULT: -6.736587361      0.000      0.000
REMARK  3 active torsions:
REMARK  status: ('A' for Active; 'I' for Inactive)
REMARK    1  A    between atoms: N2_7  and  C6_8 
REMARK    2  A    between atoms: C6_8  and  C7_9 
REMARK    3  A    between atoms: C9_15  and  N5_16 
ROOT
HETATM    1  N1  UNL     1      41.780  10.610  -3.562  1.00  0.00    -0.191 NA
HETATM    2  C1  UNL     1      42.782  10.748  -3.001  1.00  0.00     0.101 C 
HETATM    3  C2  UNL     1      44.042  10.926  -2.301  1.00  0.00     0.060 A 
HETATM    4  C3  UNL     1      45.147  11.201  -3.064  1.00  0.00     0.025 A 
HETATM    5  C4  UNL     1      46.346  11.371  -2.400  1.00  0.00     0.019 A 
HETATM    6  C5  UNL     1      46.402  11.264  -1.038  1.00  0.00     0.091 A 
HETATM    7  N2  UNL     1      45.318  10.994  -0.293  1.00  0.00    -0.358 N 
HETATM    8  C12 UNL     1      44.141  10.828  -0.947  1.00  0.00     0.113 A 
ENDROOT
BRANCH   7   9
HETATM    9  C6  UNL     1      45.312  10.870   1.130  1.00  0.00     0.204 C 
BRANCH   9  10
HETATM   10  C7  UNL     1      45.241  12.154   1.840  1.00  0.00     0.102 A 
HETATM   11  N3  UNL     1      46.042  12.555   2.831  1.00  0.00    -0.328 N 
HETATM   12  C8  UNL     1      45.677  13.781   3.231  1.00  0.00     0.155 A 
ATOM     13  H3  UNL     1      46.811  12.013   3.222  1.00  0.00     0.169 HD
HETATM   14  N4  UNL     1      46.170  14.615   4.197  1.00  0.00    -0.174 N 
HETATM   15  C11 UNL     1      44.609  14.128   2.442  1.00  0.00     0.148 A 
HETATM   16  C9  UNL     1      45.608  15.819   4.397  1.00  0.00     0.680 A 
ATOM     17  H4  UNL     1      46.965  14.322   4.765  1.00  0.00     0.186 HD
HETATM   18  N6  UNL     1      44.564  16.146   3.618  1.00  0.00    -0.154 N 
HETATM   19  C10 UNL     1      44.048  15.374   2.669  1.00  0.00     0.290 A 
ATOM     20  H6  UNL     1      44.133  17.059   3.768  1.00  0.00     0.187 HD
HETATM   21  O1  UNL     1      43.070  15.698   1.949  1.00  0.00    -0.265 OA
HETATM   22  N7  UNL     1      44.358  13.122   1.599  1.00  0.00    -0.337 N 
ATOM     23  H7  UNL     1      43.621  13.098   0.895  1.00  0.00     0.167 HD
BRANCH  16  24
HETATM   24  N5  UNL     1      46.066  16.620   5.311  1.00  0.00    -0.234 N 
ATOM     25  H52 UNL     1      46.820  16.349   5.943  1.00  0.00     0.174 HD
ATOM     26  H51 UNL     1      45.680  17.557   5.423  1.00  0.00     0.174 HD
ENDBRANCH  16  24
ENDBRANCH   9  10
ENDBRANCH   7   9
TORSDOF 3
ENDMDL
MODEL 2
REMARK VINA RESULT: -6.540516465      2.635      7.066
REMARK  3 active torsions:
REMARK  status: ('A' for Active; 'I' for Inactive)
REMARK    1  A    between atoms: N2_7  and  C6_8 
REMARK    2  A    between atoms: C6_8  and  C7_9 
REMARK    3  A    between atoms: C9_15  and  N5_16 
ROOT
HETATM    1  N1  UNL     1      46.461  16.333   5.424  1.00  0.00    -0.191 NA
HETATM    2  C1  UNL     1      45.995  15.672   4.597  1.00  0.00     0.101 C 
HETATM    3  C2  UNL     1      45.407  14.849   3.555  1.00  0.00     0.060 A 
HETATM    4  C3  UNL     1      44.407  15.410   2.804  1.00  0.00     0.025 A 
HETATM    5  C4  UNL     1      43.848  14.628   1.813  1.00  0.00     0.019 A 
HETATM    6  C5  UNL     1      44.291  13.350   1.609  1.00  0.00     0.091 A 
HETATM    7  N2  UNL     1      45.271  12.803   2.346  1.00  0.00    -0.358 N 
HETATM    8  C12 UNL     1      45.820  13.573   3.319  1.00  0.00     0.113 A 
ENDROOT
BRANCH   7   9
HETATM    9  C6  UNL     1      45.777  11.477   2.181  1.00  0.00     0.204 C 
BRANCH   9  10
HETATM   10  C7  UNL     1      46.227  11.176   0.816  1.00  0.00     0.102 A 
HETATM   11  N3  UNL     1      47.456  11.368   0.329  1.00  0.00    -0.328 N 
HETATM   12  C8  UNL     1      47.494  10.978  -0.953  1.00  0.00     0.155 A 
ATOM     13  H3  UNL     1      48.243  11.752   0.851  1.00  0.00     0.169 HD
HETATM   14  N4  UNL     1      48.500  10.970  -1.879  1.00  0.00    -0.174 N 
HETATM   15  C11 UNL     1      46.229  10.532  -1.244  1.00  0.00     0.148 A 
HETATM   16  C9  UNL     1      48.266  10.515  -3.122  1.00  0.00     0.680 A 
ATOM     17  H4  UNL     1      49.428  11.311  -1.626  1.00  0.00     0.186 HD
HETATM   18  N6  UNL     1      47.024  10.082  -3.394  1.00  0.00    -0.154 N 
HETATM   19  C10 UNL     1      46.015  10.068  -2.531  1.00  0.00     0.290 A 
ATOM     20  H6  UNL     1      46.842   9.736  -4.336  1.00  0.00     0.187 HD
HETATM   21  O1  UNL     1      44.858   9.658  -2.804  1.00  0.00    -0.265 OA
HETATM   22  N7  UNL     1      45.470  10.661  -0.150  1.00  0.00    -0.337 N 
ATOM     23  H7  UNL     1      44.485  10.409  -0.071  1.00  0.00     0.167 HD
BRANCH  16  24
HETATM   24  N5  UNL     1      49.212  10.502  -4.012  1.00  0.00    -0.234 N 
ATOM     25  H52 UNL     1      49.694   9.645  -4.280  1.00  0.00     0.174 HD
ATOM     26  H51 UNL     1      49.503  11.364  -4.474  1.00  0.00     0.174 HD
ENDBRANCH  16  24
ENDBRANCH   9  10
ENDBRANCH   7   9
TORSDOF 3
ENDMDL
MODEL 3
REMARK VINA RESULT: -6.496876386      1.508      2.806
REMARK  3 active torsions:
REMARK  status: ('A' for Active; 'I' for Inactive)
REMARK    1  A    between atoms: N2_7  and  C6_8 
REMARK    2  A    between atoms: C6_8  and  C7_9 
REMARK    3  A    between atoms: C9_15  and  N5_16 
ROOT
HETATM    1  N1  UNL     1      50.446  11.778  -1.833  1.00  0.00    -0.191 NA
HETATM    2  C1  UNL     1      49.317  11.564  -1.708  1.00  0.00     0.101 C 
HETATM    3  C2  UNL     1      47.898  11.292  -1.557  1.00  0.00     0.060 A 
HETATM    4  C3  UNL     1      47.162  11.155  -2.705  1.00  0.00     0.025 A 
HETATM    5  C4  UNL     1      45.814  10.896  -2.562  1.00  0.00     0.019 A 
HETATM    6  C5  UNL     1      45.258  10.786  -1.316  1.00  0.00     0.091 A 
HETATM    7  N2  UNL     1      45.982  10.922  -0.193  1.00  0.00    -0.358 N 
HETATM    8  C12 UNL     1      47.308  11.176  -0.335  1.00  0.00     0.113 A 
ENDROOT
BRANCH   7   9
HETATM    9  C6  UNL     1      45.462  10.819   1.133  1.00  0.00     0.204 C 
BRANCH   9  10
HETATM   10  C7  UNL     1      45.348  12.106   1.831  1.00  0.00     0.102 A 
HETATM   11  N3  UNL     1      46.100  12.520   2.854  1.00  0.00    -0.328 N 
HETATM   12  C8  UNL     1      45.708  13.745   3.230  1.00  0.00     0.155 A 
ATOM     13  H3  UNL     1      46.856  11.986   3.283  1.00  0.00     0.169 HD
HETATM   14  N4  UNL     1      46.150  14.588   4.211  1.00  0.00    -0.174 N 
HETATM   15  C11 UNL     1      44.674  14.078   2.391  1.00  0.00     0.148 A 
HETATM   16  C9  UNL     1      45.569  15.789   4.379  1.00  0.00     0.680 A 
ATOM     17  H4  UNL     1      46.921  14.306   4.816  1.00  0.00     0.186 HD
HETATM   18  N6  UNL     1      44.558  16.102   3.552  1.00  0.00    -0.154 N 
HETATM   19  C10 UNL     1      44.093  15.320   2.586  1.00  0.00     0.290 A 
ATOM     20  H6  UNL     1      44.114  17.012   3.676  1.00  0.00     0.187 HD
HETATM   21  O1  UNL     1      43.145  15.631   1.820  1.00  0.00    -0.265 OA
HETATM   22  N7  UNL     1      44.469  13.064   1.544  1.00  0.00    -0.337 N 
ATOM     23  H7  UNL     1      43.764  13.030   0.808  1.00  0.00     0.167 HD
BRANCH  16  24
HETATM   24  N5  UNL     1      45.979  16.599   5.307  1.00  0.00    -0.234 N 
ATOM     25  H52 UNL     1      45.334  17.164   5.859  1.00  0.00     0.174 HD
ATOM     26  H51 UNL     1      46.974  16.694   5.512  1.00  0.00     0.174 HD
ENDBRANCH  16  24
ENDBRANCH   9  10
ENDBRANCH   7   9
TORSDOF 3
ENDMDL
MODEL 4
REMARK VINA RESULT: -6.447431411      2.622      7.242
REMARK  3 active torsions:
REMARK  status: ('A' for Active; 'I' for Inactive)
REMARK    1  A    between atoms: N2_7  and  C6_8 
REMARK    2  A    between atoms: C6_8  and  C7_9 
REMARK    3  A    between atoms: C9_15  and  N5_16 
ROOT
HETATM    1  N1  UNL     1      46.481  16.567   5.457  1.00  0.00    -0.191 NA
HETATM    2  C1  UNL     1      46.015  15.883   4.650  1.00  0.00     0.101 C 
HETATM    3  C2  UNL     1      45.427  15.029   3.632  1.00  0.00     0.060 A 
HETATM    4  C3  UNL     1      44.416  15.563   2.875  1.00  0.00     0.025 A 
HETATM    5  C4  UNL     1      43.857  14.753   1.907  1.00  0.00     0.019 A 
HETATM    6  C5  UNL     1      44.310  13.474   1.730  1.00  0.00     0.091 A 
HETATM    7  N2  UNL     1      45.300  12.954   2.473  1.00  0.00    -0.358 N 
HETATM    8  C12 UNL     1      45.849  13.752   3.424  1.00  0.00     0.113 A 
ENDROOT
BRANCH   7   9
HETATM    9  C6  UNL     1      45.816  11.629   2.337  1.00  0.00     0.204 C 
BRANCH   9  10
HETATM   10  C7  UNL     1      46.162  11.263   0.957  1.00  0.00     0.102 A 
HETATM   11  N3  UNL     1      45.355  10.676   0.069  1.00  0.00    -0.328 N 
HETATM   12  C8  UNL     1      46.014  10.498  -1.084  1.00  0.00     0.155 A 
ATOM     13  H3  UNL     1      44.387  10.407   0.241  1.00  0.00     0.169 HD
HETATM   14  N4  UNL     1      45.639   9.950  -2.279  1.00  0.00    -0.174 N 
HETATM   15  C11 UNL     1      47.274  11.001  -0.874  1.00  0.00     0.148 A 
HETATM   16  C9  UNL     1      46.514   9.893  -3.298  1.00  0.00     0.680 A 
ATOM     17  H4  UNL     1      44.693   9.585  -2.398  1.00  0.00     0.186 HD
HETATM   18  N6  UNL     1      47.743  10.389  -3.079  1.00  0.00    -0.154 N 
HETATM   19  C10 UNL     1      48.156  10.929  -1.939  1.00  0.00     0.290 A 
ATOM     20  H6  UNL     1      48.411  10.347  -3.849  1.00  0.00     0.187 HD
HETATM   21  O1  UNL     1      49.312  11.389  -1.754  1.00  0.00    -0.265 OA
HETATM   22  N7  UNL     1      47.344  11.464   0.378  1.00  0.00    -0.337 N 
ATOM     23  H7  UNL     1      48.159  11.895   0.814  1.00  0.00     0.167 HD
BRANCH  16  24
HETATM   24  N5  UNL     1      46.170   9.375  -4.438  1.00  0.00    -0.234 N 
ATOM     25  H52 UNL     1      46.065   8.370  -4.569  1.00  0.00     0.174 HD
ATOM     26  H51 UNL     1      45.993   9.971  -5.247  1.00  0.00     0.174 HD
ENDBRANCH  16  24
ENDBRANCH   9  10
ENDBRANCH   7   9
TORSDOF 3
ENDMDL
MODEL 5
REMARK VINA RESULT: -6.402942402      1.143      1.999
REMARK  3 active torsions:
REMARK  status: ('A' for Active; 'I' for Inactive)
REMARK    1  A    between atoms: N2_7  and  C6_8 
REMARK    2  A    between atoms: C6_8  and  C7_9 
REMARK    3  A    between atoms: C9_15  and  N5_16 
ROOT
HETATM    1  N1  UNL     1      47.715  12.329  -4.227  1.00  0.00    -0.191 NA
HETATM    2  C1  UNL     1      46.886  11.988  -3.497  1.00  0.00     0.101 C 
HETATM    3  C2  UNL     1      45.842  11.555  -2.585  1.00  0.00     0.060 A 
HETATM    4  C3  UNL     1      44.612  11.283  -3.126  1.00  0.00     0.025 A 
HETATM    5  C4  UNL     1      43.619  10.872  -2.260  1.00  0.00     0.019 A 
HETATM    6  C5  UNL     1      43.876  10.748  -0.921  1.00  0.00     0.091 A 
HETATM    7  N2  UNL     1      45.082  11.015  -0.394  1.00  0.00    -0.358 N 
HETATM    8  C12 UNL     1      46.057  11.419  -1.247  1.00  0.00     0.113 A 
ENDROOT
BRANCH   7   9
HETATM    9  C6  UNL     1      45.413  10.906   0.991  1.00  0.00     0.204 C 
BRANCH   9  10
HETATM   10  C7  UNL     1      45.303  12.169   1.732  1.00  0.00     0.102 A 
HETATM   11  N3  UNL     1      46.076  12.559   2.749  1.00  0.00    -0.328 N 
HETATM   12  C8  UNL     1      45.681  13.767   3.173  1.00  0.00     0.155 A 
ATOM     13  H3  UNL     1      46.848  12.020   3.142  1.00  0.00     0.169 HD
HETATM   14  N4  UNL     1      46.139  14.584   4.170  1.00  0.00    -0.174 N 
HETATM   15  C11 UNL     1      44.622  14.115   2.372  1.00  0.00     0.148 A 
HETATM   16  C9  UNL     1      45.550  15.772   4.390  1.00  0.00     0.680 A 
ATOM     17  H4  UNL     1      46.928  14.291   4.746  1.00  0.00     0.186 HD
HETATM   18  N6  UNL     1      44.515  16.100   3.598  1.00  0.00    -0.154 N 
HETATM   19  C10 UNL     1      44.033  15.343   2.620  1.00  0.00     0.290 A 
ATOM     20  H6  UNL     1      44.065  17.000   3.762  1.00  0.00     0.187 HD
HETATM   21  O1  UNL     1      43.063  15.668   1.889  1.00  0.00    -0.265 OA
HETATM   22  N7  UNL     1      44.407  13.126   1.498  1.00  0.00    -0.337 N 
ATOM     23  H7  UNL     1      43.684  13.107   0.779  1.00  0.00     0.167 HD
BRANCH  16  24
HETATM   24  N5  UNL     1      45.975  16.557   5.333  1.00  0.00    -0.234 N 
ATOM     25  H52 UNL     1      45.830  16.348   6.320  1.00  0.00     0.174 HD
ATOM     26  H51 UNL     1      46.473  17.418   5.108  1.00  0.00     0.174 HD
ENDBRANCH  16  24
ENDBRANCH   9  10
ENDBRANCH   7   9
TORSDOF 3
ENDMDL
