MODEL 1
REMARK VINA RESULT: -6.080586344      0.000      0.000
REMARK  6 active torsions:
REMARK  status: ('A' for Active; 'I' for Inactive)
REMARK    1  A    between atoms: C2_2  and  C3_3 
REMARK    2  A    between atoms: C3_3  and  C4_4 
REMARK    3  A    between atoms: C4_4  and  C5_5 
REMARK    4  A    between atoms: C5_5  and  N1_6 
REMARK    5  A    between atoms: N1_6  and  C6_8 
REMARK    6  A    between atoms: C6_8  and  C7_12 
ROOT
HETATM    1  C6  UNL     1      -3.075  30.112  -5.272  1.00  0.00     0.102 C 
HETATM    2  N2  UNL     1      -3.719  29.020  -5.116  1.00  0.00    -0.387 N 
ATOM      3  H21 UNL     1      -4.617  29.019  -4.632  1.00  0.00     0.157 HD
ATOM      4  H22 UNL     1      -3.343  28.142  -5.474  1.00  0.00     0.157 HD
ENDROOT
BRANCH   1   5
HETATM    5  N1  UNL     1      -1.830  30.114  -5.942  1.00  0.00    -0.378 N 
ATOM      6  H1  UNL     1      -0.989  30.512  -5.524  1.00  0.00     0.160 HD
BRANCH   5   7
HETATM    7  C5  UNL     1      -1.823  29.506  -7.282  1.00  0.00     0.121 C 
BRANCH   7   8
HETATM    8  C4  UNL     1      -2.315  30.591  -8.218  1.00  0.00     0.020 C 
BRANCH   8   9
HETATM    9  C3  UNL     1      -1.414  30.789  -9.398  1.00  0.00     0.001 C 
BRANCH   9  10
HETATM   10  C2  UNL     1      -1.995  31.735 -10.417  1.00  0.00    -0.004 C 
HETATM   11  C1  UNL     1      -3.246  31.200 -11.052  1.00  0.00     0.005 C 
ENDBRANCH   9  10
ENDBRANCH   8   9
ENDBRANCH   7   8
ENDBRANCH   5   7
ENDBRANCH   1   5
BRANCH   1  12
HETATM   12  C7  UNL     1      -3.614  31.373  -4.757  1.00  0.00     0.252 C 
HETATM   13  C8  UNL     1      -2.523  32.234  -4.160  1.00  0.00     0.041 C 
HETATM   14  C9  UNL     1      -3.217  33.290  -3.312  1.00  0.00     0.004 C 
HETATM   15  C10 UNL     1      -3.920  32.653  -2.127  1.00  0.00     0.027 C 
HETATM   16  C11 UNL     1      -4.107  31.184  -2.451  1.00  0.00     0.233 C 
HETATM   17  N3  UNL     1      -4.660  31.112  -3.797  1.00  0.00    -0.064 N 
ATOM     18  H32 UNL     1      -5.461  31.732  -3.919  1.00  0.00     0.278 HD
ATOM     19  H31 UNL     1      -5.134  30.226  -3.973  1.00  0.00     0.278 HD
ENDBRANCH   1  12
TORSDOF 6
ENDMDL
MODEL 2
REMARK VINA RESULT: -6.063015946      1.243      1.980
REMARK  6 active torsions:
REMARK  status: ('A' for Active; 'I' for Inactive)
REMARK    1  A    between atoms: C2_2  and  C3_3 
REMARK    2  A    between atoms: C3_3  and  C4_4 
REMARK    3  A    between atoms: C4_4  and  C5_5 
REMARK    4  A    between atoms: C5_5  and  N1_6 
REMARK    5  A    between atoms: N1_6  and  C6_8 
REMARK    6  A    between atoms: C6_8  and  C7_12 
ROOT
HETATM    1  C6  UNL     1      -2.398  29.857  -6.639  1.00  0.00     0.102 C 
HETATM    2  N2  UNL     1      -1.152  29.964  -6.382  1.00  0.00    -0.387 N 
ATOM      3  H21 UNL     1      -0.843  30.370  -5.498  1.00  0.00     0.157 HD
ATOM      4  H22 UNL     1      -0.456  29.644  -7.054  1.00  0.00     0.157 HD
ENDROOT
BRANCH   1   5
HETATM    5  N1  UNL     1      -2.826  29.295  -7.863  1.00  0.00    -0.378 N 
ATOM      6  H1  UNL     1      -3.536  28.564  -7.905  1.00  0.00     0.160 HD
BRANCH   5   7
HETATM    7  C5  UNL     1      -2.183  29.829  -9.073  1.00  0.00     0.121 C 
BRANCH   7   8
HETATM    8  C4  UNL     1      -2.774  31.211  -9.266  1.00  0.00     0.020 C 
BRANCH   8   9
HETATM    9  C3  UNL     1      -2.981  31.555 -10.708  1.00  0.00     0.001 C 
BRANCH   9  10
HETATM   10  C2  UNL     1      -2.852  30.356 -11.614  1.00  0.00    -0.004 C 
HETATM   11  C1  UNL     1      -4.049  30.176 -12.503  1.00  0.00     0.005 C 
ENDBRANCH   9  10
ENDBRANCH   8   9
ENDBRANCH   7   8
ENDBRANCH   5   7
ENDBRANCH   1   5
BRANCH   1  12
HETATM   12  C7  UNL     1      -3.399  30.317  -5.672  1.00  0.00     0.252 C 
HETATM   13  C8  UNL     1      -3.015  31.657  -5.081  1.00  0.00     0.041 C 
HETATM   14  C9  UNL     1      -3.867  31.841  -3.834  1.00  0.00     0.004 C 
HETATM   15  C10 UNL     1      -3.501  30.816  -2.776  1.00  0.00     0.027 C 
HETATM   16  C11 UNL     1      -2.785  29.680  -3.477  1.00  0.00     0.233 C 
HETATM   17  N3  UNL     1      -3.587  29.326  -4.641  1.00  0.00    -0.064 N 
ATOM     18  H32 UNL     1      -4.571  29.194  -4.406  1.00  0.00     0.278 HD
ATOM     19  H31 UNL     1      -3.390  28.381  -4.973  1.00  0.00     0.278 HD
ENDBRANCH   1  12
TORSDOF 6
ENDMDL
MODEL 3
REMARK VINA RESULT: -6.061890791      1.917      6.674
REMARK  6 active torsions:
REMARK  status: ('A' for Active; 'I' for Inactive)
REMARK    1  A    between atoms: C2_2  and  C3_3 
REMARK    2  A    between atoms: C3_3  and  C4_4 
REMARK    3  A    between atoms: C4_4  and  C5_5 
REMARK    4  A    between atoms: C5_5  and  N1_6 
REMARK    5  A    between atoms: N1_6  and  C6_8 
REMARK    6  A    between atoms: C6_8  and  C7_12 
ROOT
HETATM    1  C6  UNL     1      -2.502  30.226  -8.480  1.00  0.00     0.102 C 
HETATM    2  N2  UNL     1      -2.361  31.478  -8.270  1.00  0.00    -0.387 N 
ATOM      3  H21 UNL     1      -2.101  32.100  -9.036  1.00  0.00     0.157 HD
ATOM      4  H22 UNL     1      -2.508  31.866  -7.339  1.00  0.00     0.157 HD
ENDROOT
BRANCH   1   5
HETATM    5  N1  UNL     1      -2.862  29.363  -7.419  1.00  0.00    -0.378 N 
ATOM      6  H1  UNL     1      -3.571  28.638  -7.527  1.00  0.00     0.160 HD
BRANCH   5   7
HETATM    7  C5  UNL     1      -2.151  29.578  -6.150  1.00  0.00     0.121 C 
BRANCH   7   8
HETATM    8  C4  UNL     1      -3.212  29.478  -5.073  1.00  0.00     0.020 C 
BRANCH   8   9
HETATM    9  C3  UNL     1      -3.421  30.771  -4.346  1.00  0.00     0.001 C 
BRANCH   9  10
HETATM   10  C2  UNL     1      -3.401  30.602  -2.848  1.00  0.00    -0.004 C 
HETATM   11  C1  UNL     1      -4.176  31.674  -2.138  1.00  0.00     0.005 C 
ENDBRANCH   9  10
ENDBRANCH   8   9
ENDBRANCH   7   8
ENDBRANCH   5   7
ENDBRANCH   1   5
BRANCH   1  12
HETATM   12  C7  UNL     1      -2.291  29.667  -9.818  1.00  0.00     0.252 C 
HETATM   13  C8  UNL     1      -1.672  30.689 -10.747  1.00  0.00     0.041 C 
HETATM   14  C9  UNL     1      -1.873  30.167 -12.162  1.00  0.00     0.004 C 
HETATM   15  C10 UNL     1      -3.347  30.140 -12.522  1.00  0.00     0.027 C 
HETATM   16  C11 UNL     1      -4.128  30.167 -11.224  1.00  0.00     0.233 C 
HETATM   17  N3  UNL     1      -3.535  29.164 -10.349  1.00  0.00    -0.064 N 
ATOM     18  H32 UNL     1      -3.420  28.264 -10.816  1.00  0.00     0.278 HD
ATOM     19  H31 UNL     1      -4.176  28.865  -9.614  1.00  0.00     0.278 HD
ENDBRANCH   1  12
TORSDOF 6
ENDMDL
MODEL 4
REMARK VINA RESULT: -6.041717758      1.459      2.304
REMARK  6 active torsions:
REMARK  status: ('A' for Active; 'I' for Inactive)
REMARK    1  A    between atoms: C2_2  and  C3_3 
REMARK    2  A    between atoms: C3_3  and  C4_4 
REMARK    3  A    between atoms: C4_4  and  C5_5 
REMARK    4  A    between atoms: C5_5  and  N1_6 
REMARK    5  A    between atoms: N1_6  and  C6_8 
REMARK    6  A    between atoms: C6_8  and  C7_12 
ROOT
HETATM    1  C6  UNL     1      -2.615  30.240  -6.897  1.00  0.00     0.102 C 
HETATM    2  N2  UNL     1      -3.121  29.124  -7.256  1.00  0.00    -0.387 N 
ATOM      3  H21 UNL     1      -3.332  28.409  -6.559  1.00  0.00     0.157 HD
ATOM      4  H22 UNL     1      -3.319  28.937  -8.238  1.00  0.00     0.157 HD
ENDROOT
BRANCH   1   5
HETATM    5  N1  UNL     1      -2.322  31.231  -7.863  1.00  0.00    -0.378 N 
ATOM      6  H1  UNL     1      -2.604  32.204  -7.743  1.00  0.00     0.160 HD
BRANCH   5   7
HETATM    7  C5  UNL     1      -1.588  30.770  -9.051  1.00  0.00     0.121 C 
BRANCH   7   8
HETATM    8  C4  UNL     1      -2.185  31.534 -10.214  1.00  0.00     0.020 C 
BRANCH   8   9
HETATM    9  C3  UNL     1      -3.545  31.037 -10.596  1.00  0.00     0.001 C 
BRANCH   9  10
HETATM   10  C2  UNL     1      -3.636  30.659 -12.053  1.00  0.00    -0.004 C 
HETATM   11  C1  UNL     1      -2.358  30.068 -12.575  1.00  0.00     0.005 C 
ENDBRANCH   9  10
ENDBRANCH   8   9
ENDBRANCH   7   8
ENDBRANCH   5   7
ENDBRANCH   1   5
BRANCH   1  12
HETATM   12  C7  UNL     1      -2.330  30.509  -5.485  1.00  0.00     0.252 C 
HETATM   13  C8  UNL     1      -3.034  29.516  -4.585  1.00  0.00     0.041 C 
HETATM   14  C9  UNL     1      -3.015  30.110  -3.185  1.00  0.00     0.004 C 
HETATM   15  C10 UNL     1      -3.855  31.373  -3.124  1.00  0.00     0.027 C 
HETATM   16  C11 UNL     1      -4.018  31.875  -4.545  1.00  0.00     0.233 C 
HETATM   17  N3  UNL     1      -2.694  31.865  -5.153  1.00  0.00    -0.064 N 
ATOM     18  H32 UNL     1      -1.996  32.320  -4.565  1.00  0.00     0.278 HD
ATOM     19  H31 UNL     1      -2.635  32.489  -5.958  1.00  0.00     0.278 HD
ENDBRANCH   1  12
TORSDOF 6
ENDMDL
MODEL 5
REMARK VINA RESULT: -5.933530127      1.397      1.682
REMARK  6 active torsions:
REMARK  status: ('A' for Active; 'I' for Inactive)
REMARK    1  A    between atoms: C2_2  and  C3_3 
REMARK    2  A    between atoms: C3_3  and  C4_4 
REMARK    3  A    between atoms: C4_4  and  C5_5 
REMARK    4  A    between atoms: C5_5  and  N1_6 
REMARK    5  A    between atoms: N1_6  and  C6_8 
REMARK    6  A    between atoms: C6_8  and  C7_12 
ROOT
HETATM    1  C6  UNL     1      -3.111  29.812  -5.430  1.00  0.00     0.102 C 
HETATM    2  N2  UNL     1      -3.953  28.979  -4.953  1.00  0.00    -0.387 N 
ATOM      3  H21 UNL     1      -3.931  28.738  -3.962  1.00  0.00     0.157 HD
ATOM      4  H22 UNL     1      -4.654  28.549  -5.556  1.00  0.00     0.157 HD
ENDROOT
BRANCH   1   5
HETATM    5  N1  UNL     1      -3.141  30.146  -6.804  1.00  0.00    -0.378 N 
ATOM      6  H1  UNL     1      -3.667  30.946  -7.155  1.00  0.00     0.160 HD
BRANCH   5   7
HETATM    7  C5  UNL     1      -2.366  29.269  -7.693  1.00  0.00     0.121 C 
BRANCH   7   8
HETATM    8  C4  UNL     1      -1.566  30.200  -8.580  1.00  0.00     0.020 C 
BRANCH   8   9
HETATM    9  C3  UNL     1      -2.360  31.383  -9.042  1.00  0.00     0.001 C 
BRANCH   9  10
HETATM   10  C2  UNL     1      -2.203  31.645 -10.518  1.00  0.00    -0.004 C 
HETATM   11  C1  UNL     1      -3.291  31.010 -11.335  1.00  0.00     0.005 C 
ENDBRANCH   9  10
ENDBRANCH   8   9
ENDBRANCH   7   8
ENDBRANCH   5   7
ENDBRANCH   1   5
BRANCH   1  12
HETATM   12  C7  UNL     1      -2.104  30.430  -4.563  1.00  0.00     0.252 C 
HETATM   13  C8  UNL     1      -2.254  29.966  -3.131  1.00  0.00     0.041 C 
HETATM   14  C9  UNL     1      -1.464  30.943  -2.273  1.00  0.00     0.004 C 
HETATM   15  C10 UNL     1      -2.091  32.325  -2.315  1.00  0.00     0.027 C 
HETATM   16  C11 UNL     1      -2.969  32.384  -3.548  1.00  0.00     0.233 C 
HETATM   17  N3  UNL     1      -2.180  31.868  -4.658  1.00  0.00    -0.064 N 
ATOM     18  H32 UNL     1      -1.257  32.301  -4.710  1.00  0.00     0.278 HD
ATOM     19  H31 UNL     1      -2.536  32.177  -5.563  1.00  0.00     0.278 HD
ENDBRANCH   1  12
TORSDOF 6
ENDMDL
