MODEL 1
REMARK VINA RESULT: -6.541998946      0.000      0.000
REMARK  5 active torsions:
REMARK  status: ('A' for Active; 'I' for Inactive)
REMARK    1  A    between atoms: N1_2  and  C2_5 
REMARK    2  A    between atoms: C2_5  and  C3_6 
REMARK    3  A    between atoms: C3_6  and  C4_7 
REMARK    4  A    between atoms: C4_7  and  N2_8 
REMARK    5  A    between atoms: N2_8  and  C5_10 
ROOT
HETATM    1  C5  UNL     1      -2.241  30.368  -8.765  1.00  0.00     0.081 C 
HETATM    2  C6  UNL     1      -3.037  31.633  -8.981  1.00  0.00     0.030 C 
HETATM    3  C7  UNL     1      -2.825  31.866 -10.492  1.00  0.00    -0.004 C 
HETATM    4  C8  UNL     1      -1.334  32.000 -10.660  1.00  0.00     0.006 C 
HETATM    5  C9  UNL     1      -0.775  30.573 -10.682  1.00  0.00     0.008 C 
HETATM    6  C10 UNL     1      -1.991  29.796 -10.126  1.00  0.00     0.017 C 
HETATM    7  C11 UNL     1      -3.029  30.455 -10.981  1.00  0.00    -0.031 A 
HETATM    8  C12 UNL     1      -2.940  30.136 -12.426  1.00  0.00     0.011 A 
HETATM    9  C13 UNL     1      -4.194  29.900 -11.581  1.00  0.00     0.011 A 
ENDROOT
BRANCH   1  10
HETATM   10  N2  UNL     1      -2.832  29.489  -7.834  1.00  0.00    -0.417 N 
ATOM     11  H2  UNL     1      -3.662  28.955  -8.094  1.00  0.00     0.153 HD
BRANCH  10  12
HETATM   12  C4  UNL     1      -2.280  29.344  -6.543  1.00  0.00     0.115 C 
BRANCH  12  13
HETATM   13  C3  UNL     1      -3.167  29.362  -5.360  1.00  0.00     0.046 C 
BRANCH  13  14
HETATM   14  C2  UNL     1      -3.404  30.817  -4.915  1.00  0.00     0.233 C 
BRANCH  14  15
HETATM   15  N1  UNL     1      -4.461  30.950  -3.968  1.00  0.00    -0.079 N 
HETATM   16  C1  UNL     1      -4.024  31.235  -2.620  1.00  0.00     0.266 C 
ATOM     17  H12 UNL     1      -5.056  30.121  -3.980  1.00  0.00     0.276 HD
ATOM     18  H11 UNL     1      -5.132  31.653  -4.280  1.00  0.00     0.276 HD
ENDBRANCH  14  15
ENDBRANCH  13  14
ENDBRANCH  12  13
ENDBRANCH  10  12
ENDBRANCH   1  10
TORSDOF 5
ENDMDL
MODEL 2
REMARK VINA RESULT: -6.266363428      1.383      2.317
REMARK  5 active torsions:
REMARK  status: ('A' for Active; 'I' for Inactive)
REMARK    1  A    between atoms: N1_2  and  C2_5 
REMARK    2  A    between atoms: C2_5  and  C3_6 
REMARK    3  A    between atoms: C3_6  and  C4_7 
REMARK    4  A    between atoms: C4_7  and  N2_8 
REMARK    5  A    between atoms: N2_8  and  C5_10 
ROOT
HETATM    1  C5  UNL     1      -2.716  30.671  -9.605  1.00  0.00     0.081 C 
HETATM    2  C6  UNL     1      -3.025  29.228  -9.927  1.00  0.00     0.030 C 
HETATM    3  C7  UNL     1      -3.029  29.261 -11.470  1.00  0.00    -0.004 C 
HETATM    4  C8  UNL     1      -4.101  30.252 -11.837  1.00  0.00     0.006 C 
HETATM    5  C9  UNL     1      -3.469  31.641 -11.692  1.00  0.00     0.008 C 
HETATM    6  C10 UNL     1      -2.207  31.281 -10.874  1.00  0.00     0.017 C 
HETATM    7  C11 UNL     1      -1.795  30.098 -11.694  1.00  0.00    -0.031 A 
HETATM    8  C12 UNL     1      -1.338  30.419 -13.067  1.00  0.00     0.011 A 
HETATM    9  C13 UNL     1      -0.491  29.652 -12.049  1.00  0.00     0.011 A 
ENDROOT
BRANCH   1  10
HETATM   10  N2  UNL     1      -1.881  30.825  -8.478  1.00  0.00    -0.417 N 
ATOM     11  H2  UNL     1      -1.692  31.757  -8.109  1.00  0.00     0.153 HD
BRANCH  10  12
HETATM   12  C4  UNL     1      -1.308  29.693  -7.859  1.00  0.00     0.115 C 
BRANCH  12  13
HETATM   13  C3  UNL     1      -1.599  29.408  -6.437  1.00  0.00     0.046 C 
BRANCH  13  14
HETATM   14  C2  UNL     1      -3.060  29.780  -6.126  1.00  0.00     0.233 C 
BRANCH  14  15
HETATM   15  N1  UNL     1      -3.518  29.262  -4.878  1.00  0.00    -0.079 N 
HETATM   16  C1  UNL     1      -2.830  29.792  -3.723  1.00  0.00     0.266 C 
ATOM     17  H12 UNL     1      -3.478  28.243  -4.880  1.00  0.00     0.276 HD
ATOM     18  H11 UNL     1      -4.525  29.398  -4.785  1.00  0.00     0.276 HD
ENDBRANCH  14  15
ENDBRANCH  13  14
ENDBRANCH  12  13
ENDBRANCH  10  12
ENDBRANCH   1  10
TORSDOF 5
ENDMDL
MODEL 3
REMARK VINA RESULT: -6.142687513      1.361      2.497
REMARK  5 active torsions:
REMARK  status: ('A' for Active; 'I' for Inactive)
REMARK    1  A    between atoms: N1_2  and  C2_5 
REMARK    2  A    between atoms: C2_5  and  C3_6 
REMARK    3  A    between atoms: C3_6  and  C4_7 
REMARK    4  A    between atoms: C4_7  and  N2_8 
REMARK    5  A    between atoms: N2_8  and  C5_10 
ROOT
HETATM    1  C5  UNL     1      -3.284  29.542 -10.201  1.00  0.00     0.081 C 
HETATM    2  C6  UNL     1      -3.575  28.466 -11.220  1.00  0.00     0.030 C 
HETATM    3  C7  UNL     1      -3.228  29.198 -12.534  1.00  0.00    -0.004 C 
HETATM    4  C8  UNL     1      -4.145  30.391 -12.571  1.00  0.00     0.006 C 
HETATM    5  C9  UNL     1      -3.503  31.454 -11.673  1.00  0.00     0.008 C 
HETATM    6  C10 UNL     1      -2.475  30.582 -10.913  1.00  0.00     0.017 C 
HETATM    7  C11 UNL     1      -1.940  29.857 -12.108  1.00  0.00    -0.031 A 
HETATM    8  C12 UNL     1      -1.171  30.697 -13.056  1.00  0.00     0.011 A 
HETATM    9  C13 UNL     1      -0.610  29.437 -12.393  1.00  0.00     0.011 A 
ENDROOT
BRANCH   1  10
HETATM   10  N2  UNL     1      -2.720  29.044  -9.008  1.00  0.00    -0.417 N 
ATOM     11  H2  UNL     1      -2.787  28.050  -8.790  1.00  0.00     0.153 HD
BRANCH  10  12
HETATM   12  C4  UNL     1      -2.063  29.917  -8.115  1.00  0.00     0.115 C 
BRANCH  12  13
HETATM   13  C3  UNL     1      -2.770  30.401  -6.909  1.00  0.00     0.046 C 
BRANCH  13  14
HETATM   14  C2  UNL     1      -2.553  29.410  -5.751  1.00  0.00     0.233 C 
BRANCH  14  15
HETATM   15  N1  UNL     1      -3.637  29.381  -4.826  1.00  0.00    -0.079 N 
HETATM   16  C1  UNL     1      -3.687  30.513  -3.928  1.00  0.00     0.266 C 
ATOM     17  H12 UNL     1      -3.630  28.508  -4.297  1.00  0.00     0.276 HD
ATOM     18  H11 UNL     1      -4.524  29.280  -5.319  1.00  0.00     0.276 HD
ENDBRANCH  14  15
ENDBRANCH  13  14
ENDBRANCH  12  13
ENDBRANCH  10  12
ENDBRANCH   1  10
TORSDOF 5
ENDMDL
MODEL 4
REMARK VINA RESULT: -5.973345999      1.262      1.912
REMARK  5 active torsions:
REMARK  status: ('A' for Active; 'I' for Inactive)
REMARK    1  A    between atoms: N1_2  and  C2_5 
REMARK    2  A    between atoms: C2_5  and  C3_6 
REMARK    3  A    between atoms: C3_6  and  C4_7 
REMARK    4  A    between atoms: C4_7  and  N2_8 
REMARK    5  A    between atoms: N2_8  and  C5_10 
ROOT
HETATM    1  C5  UNL     1      -2.100  29.950  -9.484  1.00  0.00     0.081 C 
HETATM    2  C6  UNL     1      -3.134  29.203 -10.292  1.00  0.00     0.030 C 
HETATM    3  C7  UNL     1      -3.068  29.960 -11.636  1.00  0.00    -0.004 C 
HETATM    4  C8  UNL     1      -3.415  31.386 -11.298  1.00  0.00     0.006 C 
HETATM    5  C9  UNL     1      -2.134  32.019 -10.743  1.00  0.00     0.008 C 
HETATM    6  C10 UNL     1      -1.299  30.746 -10.467  1.00  0.00     0.017 C 
HETATM    7  C11 UNL     1      -1.570  30.069 -11.774  1.00  0.00    -0.031 A 
HETATM    8  C12 UNL     1      -0.966  30.729 -12.956  1.00  0.00     0.011 A 
HETATM    9  C13 UNL     1      -0.708  29.269 -12.576  1.00  0.00     0.011 A 
ENDROOT
BRANCH   1  10
HETATM   10  N2  UNL     1      -1.355  29.117  -8.624  1.00  0.00    -0.417 N 
ATOM     11  H2  UNL     1      -0.735  28.407  -9.014  1.00  0.00     0.153 HD
BRANCH  10  12
HETATM   12  C4  UNL     1      -1.465  29.262  -7.224  1.00  0.00     0.115 C 
BRANCH  12  13
HETATM   13  C3  UNL     1      -2.802  29.365  -6.600  1.00  0.00     0.046 C 
BRANCH  13  14
HETATM   14  C2  UNL     1      -2.649  29.687  -5.103  1.00  0.00     0.233 C 
BRANCH  14  15
HETATM   15  N1  UNL     1      -3.891  29.949  -4.454  1.00  0.00    -0.079 N 
HETATM   16  C1  UNL     1      -3.830  30.974  -3.436  1.00  0.00     0.266 C 
ATOM     17  H12 UNL     1      -4.279  29.088  -4.068  1.00  0.00     0.276 HD
ATOM     18  H11 UNL     1      -4.611  30.173  -5.141  1.00  0.00     0.276 HD
ENDBRANCH  14  15
ENDBRANCH  13  14
ENDBRANCH  12  13
ENDBRANCH  10  12
ENDBRANCH   1  10
TORSDOF 5
ENDMDL
MODEL 5
REMARK VINA RESULT: -5.972771102      1.985      6.823
REMARK  5 active torsions:
REMARK  status: ('A' for Active; 'I' for Inactive)
REMARK    1  A    between atoms: N1_2  and  C2_5 
REMARK    2  A    between atoms: C2_5  and  C3_6 
REMARK    3  A    between atoms: C3_6  and  C4_7 
REMARK    4  A    between atoms: C4_7  and  N2_8 
REMARK    5  A    between atoms: N2_8  and  C5_10 
ROOT
HETATM    1  C5  UNL     1      -3.792  30.559  -4.224  1.00  0.00     0.081 C 
HETATM    2  C6  UNL     1      -3.264  31.792  -4.918  1.00  0.00     0.030 C 
HETATM    3  C7  UNL     1      -2.757  32.617  -3.716  1.00  0.00    -0.004 C 
HETATM    4  C8  UNL     1      -3.971  32.831  -2.850  1.00  0.00     0.006 C 
HETATM    5  C9  UNL     1      -4.151  31.542  -2.040  1.00  0.00     0.008 C 
HETATM    6  C10 UNL     1      -3.230  30.589  -2.837  1.00  0.00     0.017 C 
HETATM    7  C11 UNL     1      -2.063  31.520  -2.949  1.00  0.00    -0.031 A 
HETATM    8  C12 UNL     1      -1.373  31.813  -1.670  1.00  0.00     0.011 A 
HETATM    9  C13 UNL     1      -0.669  31.238  -2.901  1.00  0.00     0.011 A 
ENDROOT
BRANCH   1  10
HETATM   10  N2  UNL     1      -3.565  29.370  -4.948  1.00  0.00    -0.417 N 
ATOM     11  H2  UNL     1      -3.784  28.468  -4.526  1.00  0.00     0.153 HD
BRANCH  10  12
HETATM   12  C4  UNL     1      -3.035  29.425  -6.255  1.00  0.00     0.115 C 
BRANCH  12  13
HETATM   13  C3  UNL     1      -1.573  29.324  -6.459  1.00  0.00     0.046 C 
BRANCH  13  14
HETATM   14  C2  UNL     1      -1.260  29.338  -7.966  1.00  0.00     0.233 C 
BRANCH  14  15
HETATM   15  N1  UNL     1      -1.129  30.654  -8.500  1.00  0.00    -0.079 N 
HETATM   16  C1  UNL     1      -0.991  30.705  -9.938  1.00  0.00     0.266 C 
ATOM     17  H12 UNL     1      -0.355  31.145  -8.051  1.00  0.00     0.276 HD
ATOM     18  H11 UNL     1      -1.907  31.240  -8.197  1.00  0.00     0.276 HD
ENDBRANCH  14  15
ENDBRANCH  13  14
ENDBRANCH  12  13
ENDBRANCH  10  12
ENDBRANCH   1  10
TORSDOF 5
ENDMDL
