MODEL 1
REMARK VINA RESULT: -5.281564357      0.000      0.000
REMARK  3 active torsions:
REMARK  status: ('A' for Active; 'I' for Inactive)
REMARK    1  A    between atoms: C2_2  and  O1_3 
REMARK    2  A    between atoms: O1_3  and  C3_4 
REMARK    3  A    between atoms: C3_4  and  N1_5 
ROOT
HETATM    1  N1  UNL     1       8.330  -0.314  85.231  1.00  0.00    -0.097 NA
HETATM    2  N2  UNL     1       7.409   0.656  85.527  1.00  0.00    -0.023 NA
HETATM    3  N3  UNL     1       6.273   0.457  84.766  1.00  0.00    -0.257 N 
ATOM      4  H3  UNL     1       5.394   0.969  84.841  1.00  0.00     0.187 HD
HETATM    5  C4  UNL     1       6.565  -0.599  83.860  1.00  0.00     0.202 C 
HETATM    6  N4  UNL     1       5.888  -0.926  82.786  1.00  0.00    -0.369 N 
ATOM      7  H41 UNL     1       6.097  -1.684  82.136  1.00  0.00     0.159 HD
ATOM      8  H42 UNL     1       5.044  -0.479  82.429  1.00  0.00     0.159 HD
HETATM    9  N5  UNL     1       7.745  -1.224  84.358  1.00  0.00    -0.271 N 
ATOM     10  H5  UNL     1       8.092  -2.154  84.122  1.00  0.00     0.185 HD
ENDROOT
BRANCH   1  11
HETATM   11  C3  UNL     1       8.878  -0.962  86.406  1.00  0.00     0.303 C 
BRANCH  11  12
HETATM   12  O1  UNL     1       8.913  -2.323  86.151  1.00  0.00    -0.374 OA
BRANCH  12  13
HETATM   13  C2  UNL     1       9.047  -3.073  87.325  1.00  0.00     0.165 C 
HETATM   14  C1  UNL     1      10.378  -3.823  87.316  1.00  0.00     0.033 C 
ENDBRANCH  12  13
ENDBRANCH  11  12
ENDBRANCH   1  11
TORSDOF 3
ENDMDL
MODEL 2
REMARK VINA RESULT: -5.037015180      6.852      7.790
REMARK  3 active torsions:
REMARK  status: ('A' for Active; 'I' for Inactive)
REMARK    1  A    between atoms: C2_2  and  O1_3 
REMARK    2  A    between atoms: O1_3  and  C3_4 
REMARK    3  A    between atoms: C3_4  and  N1_5 
ROOT
HETATM    1  N1  UNL     1       1.440  -6.704  84.482  1.00  0.00    -0.097 NA
HETATM    2  N2  UNL     1       2.701  -7.219  84.340  1.00  0.00    -0.023 NA
HETATM    3  N3  UNL     1       3.506  -6.294  83.703  1.00  0.00    -0.257 N 
ATOM      4  H3  UNL     1       4.510  -6.368  83.545  1.00  0.00     0.187 HD
HETATM    5  C4  UNL     1       2.663  -5.218  83.311  1.00  0.00     0.202 C 
HETATM    6  N4  UNL     1       2.944  -4.269  82.450  1.00  0.00    -0.369 N 
ATOM      7  H41 UNL     1       2.340  -3.497  82.169  1.00  0.00     0.159 HD
ATOM      8  H42 UNL     1       3.810  -4.150  81.925  1.00  0.00     0.159 HD
HETATM    9  N5  UNL     1       1.452  -5.385  84.043  1.00  0.00    -0.271 N 
ATOM     10  H5  UNL     1       0.736  -4.678  84.213  1.00  0.00     0.185 HD
ENDROOT
BRANCH   1  11
HETATM   11  C3  UNL     1       0.920  -6.824  85.830  1.00  0.00     0.303 C 
BRANCH  11  12
HETATM   12  O1  UNL     1       2.004  -6.908  86.687  1.00  0.00    -0.374 OA
BRANCH  12  13
HETATM   13  C2  UNL     1       2.337  -5.663  87.235  1.00  0.00     0.165 C 
HETATM   14  C1  UNL     1       3.853  -5.480  87.230  1.00  0.00     0.033 C 
ENDBRANCH  12  13
ENDBRANCH  11  12
ENDBRANCH   1  11
TORSDOF 3
ENDMDL
MODEL 3
REMARK VINA RESULT: -4.883392176      7.263      8.268
REMARK  3 active torsions:
REMARK  status: ('A' for Active; 'I' for Inactive)
REMARK    1  A    between atoms: C2_2  and  O1_3 
REMARK    2  A    between atoms: O1_3  and  C3_4 
REMARK    3  A    between atoms: C3_4  and  N1_5 
ROOT
HETATM    1  N1  UNL     1       1.455  -6.238  86.511  1.00  0.00    -0.097 NA
HETATM    2  N2  UNL     1       1.910  -5.076  87.076  1.00  0.00    -0.023 NA
HETATM    3  N3  UNL     1       3.273  -5.169  87.282  1.00  0.00    -0.257 N 
ATOM      4  H3  UNL     1       3.891  -4.424  87.604  1.00  0.00     0.187 HD
HETATM    5  C4  UNL     1       3.647  -6.502  86.960  1.00  0.00     0.202 C 
HETATM    6  N4  UNL     1       4.771  -7.102  87.269  1.00  0.00    -0.369 N 
ATOM      7  H41 UNL     1       5.040  -8.058  87.037  1.00  0.00     0.159 HD
ATOM      8  H42 UNL     1       5.557  -6.711  87.787  1.00  0.00     0.159 HD
HETATM    9  N5  UNL     1       2.549  -7.050  86.235  1.00  0.00    -0.271 N 
ATOM     10  H5  UNL     1       2.562  -7.874  85.633  1.00  0.00     0.185 HD
ENDROOT
BRANCH   1  11
HETATM   11  C3  UNL     1       0.629  -6.021  85.340  1.00  0.00     0.303 C 
BRANCH  11  12
HETATM   12  O1  UNL     1       1.241  -5.042  84.576  1.00  0.00    -0.374 OA
BRANCH  12  13
HETATM   13  C2  UNL     1       1.707  -5.544  83.354  1.00  0.00     0.165 C 
HETATM   14  C1  UNL     1       3.178  -5.179  83.168  1.00  0.00     0.033 C 
ENDBRANCH  12  13
ENDBRANCH  11  12
ENDBRANCH   1  11
TORSDOF 3
ENDMDL
MODEL 4
REMARK VINA RESULT: -4.687715808      7.116      8.094
REMARK  3 active torsions:
REMARK  status: ('A' for Active; 'I' for Inactive)
REMARK    1  A    between atoms: C2_2  and  O1_3 
REMARK    2  A    between atoms: O1_3  and  C3_4 
REMARK    3  A    between atoms: C3_4  and  N1_5 
ROOT
HETATM    1  N1  UNL     1       3.215  -6.980  85.823  1.00  0.00    -0.097 NA
HETATM    2  N2  UNL     1       1.997  -6.964  86.449  1.00  0.00    -0.023 NA
HETATM    3  N3  UNL     1       1.974  -5.944  87.381  1.00  0.00    -0.257 N 
ATOM      4  H3  UNL     1       1.170  -5.640  87.930  1.00  0.00     0.187 HD
HETATM    5  C4  UNL     1       3.287  -5.399  87.427  1.00  0.00     0.202 C 
HETATM    6  N4  UNL     1       3.783  -4.614  88.352  1.00  0.00    -0.369 N 
ATOM      7  H41 UNL     1       4.724  -4.223  88.384  1.00  0.00     0.159 HD
ATOM      8  H42 UNL     1       3.309  -4.266  89.185  1.00  0.00     0.159 HD
HETATM    9  N5  UNL     1       3.950  -5.885  86.263  1.00  0.00    -0.271 N 
ATOM     10  H5  UNL     1       4.796  -5.505  85.837  1.00  0.00     0.185 HD
ENDROOT
BRANCH   1  11
HETATM   11  C3  UNL     1       3.115  -7.022  84.377  1.00  0.00     0.303 C 
BRANCH  11  12
HETATM   12  O1  UNL     1       1.821  -6.662  84.040  1.00  0.00    -0.374 OA
BRANCH  12  13
HETATM   13  C2  UNL     1       1.764  -5.383  83.473  1.00  0.00     0.165 C 
HETATM   14  C1  UNL     1       3.126  -5.008  82.893  1.00  0.00     0.033 C 
ENDBRANCH  12  13
ENDBRANCH  11  12
ENDBRANCH   1  11
TORSDOF 3
ENDMDL
MODEL 5
REMARK VINA RESULT: -3.960191584      2.137      4.361
REMARK  3 active torsions:
REMARK  status: ('A' for Active; 'I' for Inactive)
REMARK    1  A    between atoms: C2_2  and  O1_3 
REMARK    2  A    between atoms: O1_3  and  C3_4 
REMARK    3  A    between atoms: C3_4  and  N1_5 
ROOT
HETATM    1  N1  UNL     1       7.839  -0.821  85.279  1.00  0.00    -0.097 NA
HETATM    2  N2  UNL     1       8.217  -0.082  86.369  1.00  0.00    -0.023 NA
HETATM    3  N3  UNL     1       9.246  -0.728  87.026  1.00  0.00    -0.257 N 
ATOM      4  H3  UNL     1       9.784  -0.369  87.815  1.00  0.00     0.187 HD
HETATM    5  C4  UNL     1       9.411  -1.990  86.391  1.00  0.00     0.202 C 
HETATM    6  N4  UNL     1      10.073  -3.024  86.852  1.00  0.00    -0.369 N 
ATOM      7  H41 UNL     1      10.192  -3.928  86.396  1.00  0.00     0.159 HD
ATOM      8  H42 UNL     1      10.575  -3.090  87.737  1.00  0.00     0.159 HD
HETATM    9  N5  UNL     1       8.709  -1.897  85.155  1.00  0.00    -0.271 N 
ATOM     10  H5  UNL     1       8.822  -2.501  84.340  1.00  0.00     0.185 HD
ENDROOT
BRANCH   1  11
HETATM   11  C3  UNL     1       7.759  -0.042  84.059  1.00  0.00     0.303 C 
BRANCH  11  12
HETATM   12  O1  UNL     1       6.785  -0.619  83.261  1.00  0.00    -0.374 OA
BRANCH  12  13
HETATM   13  C2  UNL     1       5.493  -0.293  83.692  1.00  0.00     0.165 C 
HETATM   14  C1  UNL     1       5.462   1.146  84.204  1.00  0.00     0.033 C 
ENDBRANCH  12  13
ENDBRANCH  11  12
ENDBRANCH   1  11
TORSDOF 3
ENDMDL
