MODEL 1
REMARK VINA RESULT: -4.269310393      0.000      0.000
REMARK  5 active torsions:
REMARK  status: ('A' for Active; 'I' for Inactive)
REMARK    1  A    between atoms: N1_1  and  C1_5 
REMARK    2  A    between atoms: C1_5  and  C2_6 
REMARK    3  A    between atoms: C2_6  and  O1_7 
REMARK    4  A    between atoms: O1_7  and  C3_8 
REMARK    5  A    between atoms: C6_14  and  N3_15 
ROOT
HETATM    1  C3  UNL     1       7.240  -0.426  85.481  1.00  0.00     0.179 C 
HETATM    2  C4  UNL     1       6.983  -0.742  84.037  1.00  0.00     0.266 C 
HETATM    3  N2  UNL     1       7.709   0.300  83.353  1.00  0.00    -0.071 N 
ATOM      4  H21 UNL     1       7.362   0.476  82.410  1.00  0.00     0.277 HD
ATOM      5  H22 UNL     1       8.656   0.024  83.094  1.00  0.00     0.277 HD
HETATM    6  C5  UNL     1       7.672   1.467  84.196  1.00  0.00     0.267 C 
HETATM    7  C6  UNL     1       6.889   1.073  85.447  1.00  0.00     0.239 C 
ENDROOT
BRANCH   1   8
HETATM    8  O1  UNL     1       8.507  -0.581  85.911  1.00  0.00    -0.380 OA
BRANCH   8   9
HETATM    9  C2  UNL     1       9.053  -1.833  85.844  1.00  0.00     0.195 C 
BRANCH   9  10
HETATM   10  C1  UNL     1       9.756  -2.191  87.140  1.00  0.00     0.255 C 
BRANCH  10  11
HETATM   11  N1  UNL     1      10.201  -0.962  87.751  1.00  0.00    -0.077 N 
ATOM     12  H13 UNL     1       9.772  -0.135  87.336  1.00  0.00     0.274 HD
ATOM     13  H12 UNL     1       9.843  -0.838  88.698  1.00  0.00     0.274 HD
ATOM     14  H11 UNL     1      11.220  -0.944  87.707  1.00  0.00     0.274 HD
ENDBRANCH  10  11
ENDBRANCH   9  10
ENDBRANCH   8   9
ENDBRANCH   1   8
BRANCH   7  15
HETATM   15  N3  UNL     1       5.497   1.193  85.128  1.00  0.00    -0.071 N 
ATOM     16  H33 UNL     1       5.267   0.809  84.212  1.00  0.00     0.274 HD
ATOM     17  H32 UNL     1       4.909   0.573  85.686  1.00  0.00     0.274 HD
ATOM     18  H31 UNL     1       5.236   2.174  85.222  1.00  0.00     0.274 HD
ENDBRANCH   7  15
TORSDOF 5
ENDMDL
MODEL 2
REMARK VINA RESULT: -4.223156809      1.277      1.944
REMARK  5 active torsions:
REMARK  status: ('A' for Active; 'I' for Inactive)
REMARK    1  A    between atoms: N1_1  and  C1_5 
REMARK    2  A    between atoms: C1_5  and  C2_6 
REMARK    3  A    between atoms: C2_6  and  O1_7 
REMARK    4  A    between atoms: O1_7  and  C3_8 
REMARK    5  A    between atoms: C6_14  and  N3_15 
ROOT
HETATM    1  C3  UNL     1       7.994  -0.402  84.358  1.00  0.00     0.179 C 
HETATM    2  C4  UNL     1       7.915   0.966  83.748  1.00  0.00     0.266 C 
HETATM    3  N2  UNL     1       6.661   1.466  84.256  1.00  0.00    -0.071 N 
ATOM      4  H21 UNL     1       6.261   2.204  83.677  1.00  0.00     0.277 HD
ATOM      5  H22 UNL     1       6.764   2.011  85.111  1.00  0.00     0.277 HD
HETATM    6  C5  UNL     1       5.785   0.332  84.412  1.00  0.00     0.267 C 
HETATM    7  C6  UNL     1       6.585  -0.895  83.981  1.00  0.00     0.239 C 
ENDROOT
BRANCH   1   8
HETATM    8  O1  UNL     1       8.145  -0.454  85.695  1.00  0.00    -0.380 OA
BRANCH   8   9
HETATM    9  C2  UNL     1       8.413  -1.671  86.259  1.00  0.00     0.195 C 
BRANCH   9  10
HETATM   10  C1  UNL     1       9.744  -1.652  86.988  1.00  0.00     0.255 C 
BRANCH  10  11
HETATM   11  N1  UNL     1      10.054  -3.009  87.369  1.00  0.00    -0.077 N 
ATOM     12  H13 UNL     1       9.597  -3.291  88.236  1.00  0.00     0.274 HD
ATOM     13  H12 UNL     1       9.622  -3.701  86.757  1.00  0.00     0.274 HD
ATOM     14  H11 UNL     1      11.070  -3.096  87.410  1.00  0.00     0.274 HD
ENDBRANCH  10  11
ENDBRANCH   9  10
ENDBRANCH   8   9
ENDBRANCH   1   8
BRANCH   7  15
HETATM   15  N3  UNL     1       6.510  -0.966  82.551  1.00  0.00    -0.071 N 
ATOM     16  H33 UNL     1       7.022  -0.214  82.092  1.00  0.00     0.274 HD
ATOM     17  H32 UNL     1       7.041  -1.747  82.166  1.00  0.00     0.274 HD
ATOM     18  H31 UNL     1       5.525  -0.990  82.289  1.00  0.00     0.274 HD
ENDBRANCH   7  15
TORSDOF 5
ENDMDL
MODEL 3
REMARK VINA RESULT: -3.632158112      7.468      8.573
REMARK  5 active torsions:
REMARK  status: ('A' for Active; 'I' for Inactive)
REMARK    1  A    between atoms: N1_1  and  C1_5 
REMARK    2  A    between atoms: C1_5  and  C2_6 
REMARK    3  A    between atoms: C2_6  and  O1_7 
REMARK    4  A    between atoms: O1_7  and  C3_8 
REMARK    5  A    between atoms: C6_14  and  N3_15 
ROOT
HETATM    1  C3  UNL     1       2.166  -6.351  85.225  1.00  0.00     0.179 C 
HETATM    2  C4  UNL     1       1.343  -6.825  86.387  1.00  0.00     0.266 C 
HETATM    3  N2  UNL     1       1.575  -5.801  87.375  1.00  0.00    -0.071 N 
ATOM      4  H21 UNL     1       1.412  -6.122  88.330  1.00  0.00     0.277 HD
ATOM      5  H22 UNL     1       0.869  -5.065  87.362  1.00  0.00     0.277 HD
HETATM    6  C5  UNL     1       2.911  -5.305  87.167  1.00  0.00     0.267 C 
HETATM    7  C6  UNL     1       3.480  -6.079  85.980  1.00  0.00     0.239 C 
ENDROOT
BRANCH   1   8
HETATM    8  O1  UNL     1       1.752  -5.221  84.620  1.00  0.00    -0.380 OA
BRANCH   8   9
HETATM    9  C2  UNL     1       1.637  -5.234  83.257  1.00  0.00     0.195 C 
BRANCH   9  10
HETATM   10  C1  UNL     1       3.001  -5.224  82.595  1.00  0.00     0.255 C 
BRANCH  10  11
HETATM   11  N1  UNL     1       3.698  -4.042  83.043  1.00  0.00    -0.077 N 
ATOM     12  H13 UNL     1       3.164  -3.186  82.892  1.00  0.00     0.274 HD
ATOM     13  H12 UNL     1       3.763  -3.983  84.059  1.00  0.00     0.274 HD
ATOM     14  H11 UNL     1       4.610  -4.027  82.586  1.00  0.00     0.274 HD
ENDBRANCH  10  11
ENDBRANCH   9  10
ENDBRANCH   8   9
ENDBRANCH   1   8
BRANCH   7  15
HETATM   15  N3  UNL     1       3.966  -7.329  86.485  1.00  0.00    -0.071 N 
ATOM     16  H33 UNL     1       4.937  -7.280  86.791  1.00  0.00     0.274 HD
ATOM     17  H32 UNL     1       3.553  -7.579  87.384  1.00  0.00     0.274 HD
ATOM     18  H31 UNL     1       3.812  -8.039  85.769  1.00  0.00     0.274 HD
ENDBRANCH   7  15
TORSDOF 5
ENDMDL
MODEL 4
REMARK VINA RESULT: -3.365584511      7.560      8.034
REMARK  5 active torsions:
REMARK  status: ('A' for Active; 'I' for Inactive)
REMARK    1  A    between atoms: N1_1  and  C1_5 
REMARK    2  A    between atoms: C1_5  and  C2_6 
REMARK    3  A    between atoms: C2_6  and  O1_7 
REMARK    4  A    between atoms: O1_7  and  C3_8 
REMARK    5  A    between atoms: C6_14  and  N3_15 
ROOT
HETATM    1  C3  UNL     1       2.897  -6.611  85.447  1.00  0.00     0.179 C 
HETATM    2  C4  UNL     1       2.973  -7.352  84.144  1.00  0.00     0.266 C 
HETATM    3  N2  UNL     1       2.378  -6.421  83.217  1.00  0.00    -0.071 N 
ATOM      4  H21 UNL     1       2.007  -6.871  82.381  1.00  0.00     0.277 HD
ATOM      5  H22 UNL     1       3.064  -5.826  82.753  1.00  0.00     0.277 HD
HETATM    6  C5  UNL     1       1.384  -5.674  83.945  1.00  0.00     0.267 C 
HETATM    7  C6  UNL     1       1.416  -6.196  85.380  1.00  0.00     0.239 C 
ENDROOT
BRANCH   1   8
HETATM    8  O1  UNL     1       3.667  -5.512  85.556  1.00  0.00    -0.380 OA
BRANCH   8   9
HETATM    9  C2  UNL     1       4.421  -5.373  86.689  1.00  0.00     0.195 C 
BRANCH   9  10
HETATM   10  C1  UNL     1       3.551  -5.414  87.931  1.00  0.00     0.255 C 
BRANCH  10  11
HETATM   11  N1  UNL     1       3.865  -4.251  88.726  1.00  0.00    -0.077 N 
ATOM     12  H13 UNL     1       4.863  -4.160  88.917  1.00  0.00     0.274 HD
ATOM     13  H12 UNL     1       3.746  -3.377  88.213  1.00  0.00     0.274 HD
ATOM     14  H11 UNL     1       3.301  -4.293  89.574  1.00  0.00     0.274 HD
ENDBRANCH  10  11
ENDBRANCH   9  10
ENDBRANCH   8   9
ENDBRANCH   1   8
BRANCH   7  15
HETATM   15  N3  UNL     1       0.621  -7.389  85.413  1.00  0.00    -0.071 N 
ATOM     16  H33 UNL     1      -0.327  -7.222  85.746  1.00  0.00     0.274 HD
ATOM     17  H32 UNL     1       0.380  -7.729  84.482  1.00  0.00     0.274 HD
ATOM     18  H31 UNL     1       1.120  -8.083  85.970  1.00  0.00     0.274 HD
ENDBRANCH   7  15
TORSDOF 5
ENDMDL
MODEL 5
REMARK VINA RESULT: -3.189006349      7.736      8.789
REMARK  5 active torsions:
REMARK  status: ('A' for Active; 'I' for Inactive)
REMARK    1  A    between atoms: N1_1  and  C1_5 
REMARK    2  A    between atoms: C1_5  and  C2_6 
REMARK    3  A    between atoms: C2_6  and  O1_7 
REMARK    4  A    between atoms: O1_7  and  C3_8 
REMARK    5  A    between atoms: C6_14  and  N3_15 
ROOT
HETATM    1  C3  UNL     1       1.017  -5.521  85.534  1.00  0.00     0.179 C 
HETATM    2  C4  UNL     1       1.421  -5.002  86.883  1.00  0.00     0.266 C 
HETATM    3  N2  UNL     1       2.803  -5.406  86.974  1.00  0.00    -0.071 N 
ATOM      4  H21 UNL     1       3.136  -5.477  87.936  1.00  0.00     0.277 HD
ATOM      5  H22 UNL     1       3.452  -4.684  86.663  1.00  0.00     0.277 HD
HETATM    6  C5  UNL     1       2.934  -6.638  86.239  1.00  0.00     0.267 C 
HETATM    7  C6  UNL     1       1.549  -6.958  85.680  1.00  0.00     0.239 C 
ENDROOT
BRANCH   1   8
HETATM    8  O1  UNL     1       1.595  -4.932  84.470  1.00  0.00    -0.380 OA
BRANCH   8   9
HETATM    9  C2  UNL     1       1.716  -5.669  83.323  1.00  0.00     0.195 C 
BRANCH   9  10
HETATM   10  C1  UNL     1       3.106  -5.531  82.732  1.00  0.00     0.255 C 
BRANCH  10  11
HETATM   11  N1  UNL     1       3.638  -4.257  83.153  1.00  0.00    -0.077 N 
ATOM     12  H13 UNL     1       2.918  -3.540  83.250  1.00  0.00     0.274 HD
ATOM     13  H12 UNL     1       3.956  -4.261  84.122  1.00  0.00     0.274 HD
ATOM     14  H11 UNL     1       4.372  -3.994  82.496  1.00  0.00     0.274 HD
ENDBRANCH  10  11
ENDBRANCH   9  10
ENDBRANCH   8   9
ENDBRANCH   1   8
BRANCH   7  15
HETATM   15  N3  UNL     1       0.809  -7.599  86.726  1.00  0.00    -0.071 N 
ATOM     16  H33 UNL     1       0.240  -6.946  87.264  1.00  0.00     0.274 HD
ATOM     17  H32 UNL     1       0.050  -8.182  86.374  1.00  0.00     0.274 HD
ATOM     18  H31 UNL     1       1.470  -8.117  87.306  1.00  0.00     0.274 HD
ENDBRANCH   7  15
TORSDOF 5
ENDMDL
