MODEL 1
REMARK VINA RESULT: -4.630214587      0.000      0.000
REMARK  5 active torsions:
REMARK  status: ('A' for Active; 'I' for Inactive)
REMARK    1  A    between atoms: N1_1  and  C1_5 
REMARK    2  A    between atoms: C1_5  and  C2_6 
REMARK    3  A    between atoms: C2_6  and  N2_7 
REMARK    4  A    between atoms: N2_7  and  C3_10 
REMARK    5  A    between atoms: C6_16  and  N4_17 
ROOT
HETATM    1  C3  UNL     1       7.695   0.115  84.465  1.00  0.00     0.243 C 
HETATM    2  C4  UNL     1       7.292   1.162  85.513  1.00  0.00     0.267 C 
HETATM    3  N3  UNL     1       5.862   0.898  85.603  1.00  0.00    -0.071 N 
ATOM      4  H31 UNL     1       5.351   1.469  86.276  1.00  0.00     0.277 HD
ATOM      5  H32 UNL     1       5.605   0.008  86.031  1.00  0.00     0.277 HD
HETATM    6  C5  UNL     1       5.470   1.064  84.209  1.00  0.00     0.267 C 
HETATM    7  C6  UNL     1       6.538   0.248  83.500  1.00  0.00     0.241 C 
ENDROOT
BRANCH   1   8
HETATM    8  N2  UNL     1       7.705  -1.156  85.134  1.00  0.00    -0.066 N 
ATOM      9  H22 UNL     1       7.101  -1.820  84.650  1.00  0.00     0.277 HD
ATOM     10  H21 UNL     1       7.214  -1.094  86.027  1.00  0.00     0.277 HD
BRANCH   8  11
HETATM   11  C2  UNL     1       9.016  -1.712  85.319  1.00  0.00     0.260 C 
BRANCH  11  12
HETATM   12  C1  UNL     1       9.118  -2.096  86.793  1.00  0.00     0.257 C 
BRANCH  12  13
HETATM   13  N1  UNL     1       9.897  -1.055  87.431  1.00  0.00    -0.078 N 
ATOM     14  H13 UNL     1       9.358  -0.212  87.632  1.00  0.00     0.274 HD
ATOM     15  H12 UNL     1      10.151  -1.273  88.395  1.00  0.00     0.274 HD
ATOM     16  H11 UNL     1      10.701  -0.888  86.828  1.00  0.00     0.274 HD
ENDBRANCH  12  13
ENDBRANCH  11  12
ENDBRANCH   8  11
ENDBRANCH   1   8
BRANCH   7  17
HETATM   17  N4  UNL     1       5.944  -0.995  83.126  1.00  0.00    -0.071 N 
ATOM     18  H43 UNL     1       6.335  -1.327  82.244  1.00  0.00     0.274 HD
ATOM     19  H42 UNL     1       6.258  -1.742  83.745  1.00  0.00     0.274 HD
ATOM     20  H41 UNL     1       4.925  -0.975  83.080  1.00  0.00     0.274 HD
ENDBRANCH   7  17
TORSDOF 5
ENDMDL
MODEL 2
REMARK VINA RESULT: -4.074693345      1.564      2.319
REMARK  5 active torsions:
REMARK  status: ('A' for Active; 'I' for Inactive)
REMARK    1  A    between atoms: N1_1  and  C1_5 
REMARK    2  A    between atoms: C1_5  and  C2_6 
REMARK    3  A    between atoms: C2_6  and  N2_7 
REMARK    4  A    between atoms: N2_7  and  C3_10 
REMARK    5  A    between atoms: C6_16  and  N4_17 
ROOT
HETATM    1  C3  UNL     1       7.367  -0.658  85.426  1.00  0.00     0.243 C 
HETATM    2  C4  UNL     1       7.567  -0.632  83.905  1.00  0.00     0.267 C 
HETATM    3  N3  UNL     1       8.020   0.741  83.729  1.00  0.00    -0.071 N 
ATOM      4  H31 UNL     1       8.250   1.010  82.772  1.00  0.00     0.277 HD
ATOM      5  H32 UNL     1       8.945   0.952  84.103  1.00  0.00     0.277 HD
HETATM    6  C5  UNL     1       6.913   1.469  84.337  1.00  0.00     0.267 C 
HETATM    7  C6  UNL     1       6.724   0.696  85.632  1.00  0.00     0.241 C 
ENDROOT
BRANCH   1   8
HETATM    8  N2  UNL     1       8.676  -0.736  86.014  1.00  0.00    -0.066 N 
ATOM      9  H22 UNL     1       8.655  -0.404  86.978  1.00  0.00     0.277 HD
ATOM     10  H21 UNL     1       9.294  -0.036  85.602  1.00  0.00     0.277 HD
BRANCH   8  11
HETATM   11  C2  UNL     1       9.275  -2.039  85.943  1.00  0.00     0.260 C 
BRANCH  11  12
HETATM   12  C1  UNL     1       9.841  -2.329  87.330  1.00  0.00     0.257 C 
BRANCH  12  13
HETATM   13  N1  UNL     1      10.321  -3.696  87.295  1.00  0.00    -0.078 N 
ATOM     14  H13 UNL     1      11.337  -3.767  87.241  1.00  0.00     0.274 HD
ATOM     15  H12 UNL     1      10.208  -4.187  88.182  1.00  0.00     0.274 HD
ATOM     16  H11 UNL     1       9.842  -4.148  86.517  1.00  0.00     0.274 HD
ENDBRANCH  12  13
ENDBRANCH  11  12
ENDBRANCH   8  11
ENDBRANCH   1   8
BRANCH   7  17
HETATM   17  N4  UNL     1       7.312   1.468  86.678  1.00  0.00    -0.071 N 
ATOM     18  H43 UNL     1       6.850   2.375  86.756  1.00  0.00     0.274 HD
ATOM     19  H42 UNL     1       7.076   1.075  87.589  1.00  0.00     0.274 HD
ATOM     20  H41 UNL     1       8.322   1.588  86.592  1.00  0.00     0.274 HD
ENDBRANCH   7  17
TORSDOF 5
ENDMDL
MODEL 3
REMARK VINA RESULT: -3.232389936      6.992      8.050
REMARK  5 active torsions:
REMARK  status: ('A' for Active; 'I' for Inactive)
REMARK    1  A    between atoms: N1_1  and  C1_5 
REMARK    2  A    between atoms: C1_5  and  C2_6 
REMARK    3  A    between atoms: C2_6  and  N2_7 
REMARK    4  A    between atoms: N2_7  and  C3_10 
REMARK    5  A    between atoms: C6_16  and  N4_17 
ROOT
HETATM    1  C3  UNL     1       2.976  -6.912  85.835  1.00  0.00     0.243 C 
HETATM    2  C4  UNL     1       1.482  -6.732  86.137  1.00  0.00     0.267 C 
HETATM    3  N3  UNL     1       1.477  -5.351  86.600  1.00  0.00    -0.071 N 
ATOM      4  H31 UNL     1       0.563  -4.973  86.849  1.00  0.00     0.277 HD
ATOM      5  H32 UNL     1       1.670  -4.648  85.887  1.00  0.00     0.277 HD
HETATM    6  C5  UNL     1       2.444  -5.429  87.688  1.00  0.00     0.267 C 
HETATM    7  C6  UNL     1       3.574  -6.200  87.028  1.00  0.00     0.241 C 
ENDROOT
BRANCH   1   8
HETATM    8  N2  UNL     1       3.233  -6.222  84.601  1.00  0.00    -0.066 N 
ATOM      9  H22 UNL     1       4.088  -6.570  84.169  1.00  0.00     0.277 HD
ATOM     10  H21 UNL     1       3.510  -5.257  84.782  1.00  0.00     0.277 HD
BRANCH   8  11
HETATM   11  C2  UNL     1       2.143  -6.264  83.666  1.00  0.00     0.260 C 
BRANCH  11  12
HETATM   12  C1  UNL     1       2.182  -4.947  82.898  1.00  0.00     0.257 C 
BRANCH  12  13
HETATM   13  N1  UNL     1       3.548  -4.471  82.976  1.00  0.00    -0.078 N 
ATOM     14  H13 UNL     1       3.818  -4.168  83.911  1.00  0.00     0.274 HD
ATOM     15  H12 UNL     1       4.241  -5.212  82.879  1.00  0.00     0.274 HD
ATOM     16  H11 UNL     1       3.636  -3.739  82.272  1.00  0.00     0.274 HD
ENDBRANCH  12  13
ENDBRANCH  11  12
ENDBRANCH   8  11
ENDBRANCH   1   8
BRANCH   7  17
HETATM   17  N4  UNL     1       4.593  -5.257  86.693  1.00  0.00    -0.071 N 
ATOM     18  H43 UNL     1       4.194  -4.459  86.200  1.00  0.00     0.274 HD
ATOM     19  H42 UNL     1       4.936  -4.789  87.532  1.00  0.00     0.274 HD
ATOM     20  H41 UNL     1       5.370  -5.653  86.163  1.00  0.00     0.274 HD
ENDBRANCH   7  17
TORSDOF 5
ENDMDL
MODEL 4
REMARK VINA RESULT: -3.050774791      7.267      8.220
REMARK  5 active torsions:
REMARK  status: ('A' for Active; 'I' for Inactive)
REMARK    1  A    between atoms: N1_1  and  C1_5 
REMARK    2  A    between atoms: C1_5  and  C2_6 
REMARK    3  A    between atoms: C2_6  and  N2_7 
REMARK    4  A    between atoms: N2_7  and  C3_10 
REMARK    5  A    between atoms: C6_16  and  N4_17 
ROOT
HETATM    1  C3  UNL     1       2.815  -5.821  85.320  1.00  0.00     0.243 C 
HETATM    2  C4  UNL     1       4.086  -5.635  86.160  1.00  0.00     0.267 C 
HETATM    3  N3  UNL     1       3.819  -6.572  87.242  1.00  0.00    -0.071 N 
ATOM      4  H31 UNL     1       4.553  -6.654  87.945  1.00  0.00     0.277 HD
ATOM      5  H32 UNL     1       3.836  -7.559  86.984  1.00  0.00     0.277 HD
HETATM    6  C5  UNL     1       2.538  -6.068  87.724  1.00  0.00     0.267 C 
HETATM    7  C6  UNL     1       1.779  -5.890  86.420  1.00  0.00     0.241 C 
ENDROOT
BRANCH   1   8
HETATM    8  N2  UNL     1       2.958  -7.071  84.626  1.00  0.00    -0.066 N 
ATOM      9  H22 UNL     1       2.290  -7.755  84.980  1.00  0.00     0.277 HD
ATOM     10  H21 UNL     1       3.831  -7.528  84.889  1.00  0.00     0.277 HD
BRANCH   8  11
HETATM   11  C2  UNL     1       2.858  -6.964  83.197  1.00  0.00     0.260 C 
BRANCH  11  12
HETATM   12  C1  UNL     1       2.204  -5.615  82.910  1.00  0.00     0.257 C 
BRANCH  12  13
HETATM   13  N1  UNL     1       3.279  -4.710  82.555  1.00  0.00    -0.078 N 
ATOM     14  H13 UNL     1       2.953  -3.787  82.272  1.00  0.00     0.274 HD
ATOM     15  H12 UNL     1       3.834  -4.408  83.355  1.00  0.00     0.274 HD
ATOM     16  H11 UNL     1       3.827  -5.184  81.837  1.00  0.00     0.274 HD
ENDBRANCH  12  13
ENDBRANCH  11  12
ENDBRANCH   8  11
ENDBRANCH   1   8
BRANCH   7  17
HETATM   17  N4  UNL     1       0.874  -6.988  86.302  1.00  0.00    -0.071 N 
ATOM     18  H43 UNL     1      -0.089  -6.670  86.410  1.00  0.00     0.274 HD
ATOM     19  H42 UNL     1       0.840  -7.321  85.339  1.00  0.00     0.274 HD
ATOM     20  H41 UNL     1       1.069  -7.760  86.939  1.00  0.00     0.274 HD
ENDBRANCH   7  17
TORSDOF 5
ENDMDL
MODEL 5
REMARK VINA RESULT: -3.018151025      7.360      7.849
REMARK  5 active torsions:
REMARK  status: ('A' for Active; 'I' for Inactive)
REMARK    1  A    between atoms: N1_1  and  C1_5 
REMARK    2  A    between atoms: C1_5  and  C2_6 
REMARK    3  A    between atoms: C2_6  and  N2_7 
REMARK    4  A    between atoms: N2_7  and  C3_10 
REMARK    5  A    between atoms: C6_16  and  N4_17 
ROOT
HETATM    1  C3  UNL     1       1.963  -7.172  85.555  1.00  0.00     0.243 C 
HETATM    2  C4  UNL     1       2.932  -7.000  84.377  1.00  0.00     0.267 C 
HETATM    3  N3  UNL     1       2.821  -5.564  84.161  1.00  0.00    -0.071 N 
ATOM      4  H31 UNL     1       3.408  -5.183  83.419  1.00  0.00     0.277 HD
ATOM      5  H32 UNL     1       3.218  -4.976  84.895  1.00  0.00     0.277 HD
HETATM    6  C5  UNL     1       1.384  -5.433  83.957  1.00  0.00     0.267 C 
HETATM    7  C6  UNL     1       0.842  -6.259  85.111  1.00  0.00     0.241 C 
ENDROOT
BRANCH   1   8
HETATM    8  N2  UNL     1       2.641  -6.679  86.722  1.00  0.00    -0.066 N 
ATOM      9  H22 UNL     1       2.301  -7.152  87.559  1.00  0.00     0.277 HD
ATOM     10  H21 UNL     1       2.345  -5.725  86.930  1.00  0.00     0.277 HD
BRANCH   8  11
HETATM   11  C2  UNL     1       4.073  -6.756  86.647  1.00  0.00     0.260 C 
BRANCH  11  12
HETATM   12  C1  UNL     1       4.599  -5.363  86.980  1.00  0.00     0.257 C 
BRANCH  12  13
HETATM   13  N1  UNL     1       3.758  -4.855  88.045  1.00  0.00    -0.078 N 
ATOM     14  H13 UNL     1       3.044  -4.204  87.721  1.00  0.00     0.274 HD
ATOM     15  H12 UNL     1       3.124  -5.556  88.429  1.00  0.00     0.274 HD
ATOM     16  H11 UNL     1       4.387  -4.454  88.740  1.00  0.00     0.274 HD
ENDBRANCH  12  13
ENDBRANCH  11  12
ENDBRANCH   8  11
ENDBRANCH   1   8
BRANCH   7  17
HETATM   17  N4  UNL     1       0.401  -5.346  86.116  1.00  0.00    -0.071 N 
ATOM     18  H43 UNL     1       1.084  -5.288  86.871  1.00  0.00     0.274 HD
ATOM     19  H42 UNL     1       0.441  -4.388  85.772  1.00  0.00     0.274 HD
ATOM     20  H41 UNL     1      -0.526  -5.552  86.489  1.00  0.00     0.274 HD
ENDBRANCH   7  17
TORSDOF 5
ENDMDL
