MODEL 1
REMARK VINA RESULT: -4.508198539      0.000      0.000
REMARK  5 active torsions:
REMARK  status: ('A' for Active; 'I' for Inactive)
REMARK    1  A    between atoms: N1_1  and  C1_5 
REMARK    2  A    between atoms: C1_5  and  C2_6 
REMARK    3  A    between atoms: C2_6  and  N2_7 
REMARK    4  A    between atoms: N2_7  and  C3_10 
REMARK    5  A    between atoms: C5_15  and  N4_16 
ROOT
HETATM    1  C3  UNL     1       7.520  -0.252  85.791  1.00  0.00     0.215 C 
HETATM    2  C4  UNL     1       7.512   1.087  85.044  1.00  0.00     0.267 C 
HETATM    3  N3  UNL     1       6.618   0.914  83.919  1.00  0.00    -0.044 N 
ATOM      4  H31 UNL     1       7.002   1.278  83.046  1.00  0.00     0.279 HD
ATOM      5  H32 UNL     1       5.798   1.518  83.967  1.00  0.00     0.279 HD
HETATM    6  C5  UNL     1       6.278  -0.493  83.841  1.00  0.00     0.382 C 
HETATM    7  C6  UNL     1       7.421  -1.194  84.588  1.00  0.00     0.097 C 
ENDROOT
BRANCH   1   8
HETATM    8  N2  UNL     1       8.731  -0.429  86.533  1.00  0.00    -0.068 N 
ATOM      9  H22 UNL     1       8.607  -0.284  87.535  1.00  0.00     0.277 HD
ATOM     10  H21 UNL     1       9.408   0.317  86.370  1.00  0.00     0.277 HD
BRANCH   8  11
HETATM   11  C2  UNL     1       9.257  -1.746  86.215  1.00  0.00     0.260 C 
BRANCH  11  12
HETATM   12  C1  UNL     1      10.004  -2.263  87.446  1.00  0.00     0.257 C 
BRANCH  12  13
HETATM   13  N1  UNL     1      10.121  -3.707  87.407  1.00  0.00    -0.078 N 
ATOM     14  H13 UNL     1       9.918  -4.127  88.315  1.00  0.00     0.274 HD
ATOM     15  H12 UNL     1       9.366  -4.132  86.869  1.00  0.00     0.274 HD
ATOM     16  H11 UNL     1      11.037  -3.986  87.058  1.00  0.00     0.274 HD
ENDBRANCH  12  13
ENDBRANCH  11  12
ENDBRANCH   8  11
ENDBRANCH   1   8
BRANCH   6  17
HETATM   17  N4  UNL     1       6.166  -0.990  82.501  1.00  0.00    -0.050 N 
ATOM     18  H43 UNL     1       5.543  -1.797  82.469  1.00  0.00     0.276 HD
ATOM     19  H42 UNL     1       5.635  -0.340  81.920  1.00  0.00     0.276 HD
ATOM     20  H41 UNL     1       7.061  -1.211  82.066  1.00  0.00     0.276 HD
ENDBRANCH   6  17
TORSDOF 5
ENDMDL
MODEL 2
REMARK VINA RESULT: -4.308434786      0.974      1.603
REMARK  5 active torsions:
REMARK  status: ('A' for Active; 'I' for Inactive)
REMARK    1  A    between atoms: N1_1  and  C1_5 
REMARK    2  A    between atoms: C1_5  and  C2_6 
REMARK    3  A    between atoms: C2_6  and  N2_7 
REMARK    4  A    between atoms: N2_7  and  C3_10 
REMARK    5  A    between atoms: C5_15  and  N4_16 
ROOT
HETATM    1  C3  UNL     1       8.028   0.003  85.424  1.00  0.00     0.215 C 
HETATM    2  C4  UNL     1       7.442  -1.105  84.539  1.00  0.00     0.267 C 
HETATM    3  N3  UNL     1       6.362  -0.493  83.794  1.00  0.00    -0.044 N 
ATOM      4  H31 UNL     1       5.515  -1.063  83.783  1.00  0.00     0.279 HD
ATOM      5  H32 UNL     1       6.530  -0.483  82.788  1.00  0.00     0.279 HD
HETATM    6  C5  UNL     1       6.143   0.830  84.342  1.00  0.00     0.382 C 
HETATM    7  C6  UNL     1       6.733   0.748  85.757  1.00  0.00     0.097 C 
ENDROOT
BRANCH   1   8
HETATM    8  N2  UNL     1       8.668  -0.538  86.583  1.00  0.00    -0.068 N 
ATOM      9  H22 UNL     1       8.061  -0.548  87.403  1.00  0.00     0.277 HD
ATOM     10  H21 UNL     1       9.392   0.075  86.958  1.00  0.00     0.277 HD
BRANCH   8  11
HETATM   11  C2  UNL     1       9.170  -1.858  86.239  1.00  0.00     0.260 C 
BRANCH  11  12
HETATM   12  C1  UNL     1      10.031  -2.352  87.402  1.00  0.00     0.257 C 
BRANCH  12  13
HETATM   13  N1  UNL     1      10.173  -3.794  87.360  1.00  0.00    -0.078 N 
ATOM     14  H13 UNL     1       9.591  -4.210  86.634  1.00  0.00     0.274 HD
ATOM     15  H12 UNL     1      11.087  -4.072  87.003  1.00  0.00     0.274 HD
ATOM     16  H11 UNL     1       9.985  -4.202  88.275  1.00  0.00     0.274 HD
ENDBRANCH  12  13
ENDBRANCH  11  12
ENDBRANCH   8  11
ENDBRANCH   1   8
BRANCH   6  17
HETATM   17  N4  UNL     1       4.765   1.220  84.388  1.00  0.00    -0.050 N 
ATOM     18  H43 UNL     1       4.677   2.193  84.679  1.00  0.00     0.276 HD
ATOM     19  H42 UNL     1       4.380   1.287  83.445  1.00  0.00     0.276 HD
ATOM     20  H41 UNL     1       4.184   0.618  84.970  1.00  0.00     0.276 HD
ENDBRANCH   6  17
TORSDOF 5
ENDMDL
MODEL 3
REMARK VINA RESULT: -3.843382586      6.901      8.485
REMARK  5 active torsions:
REMARK  status: ('A' for Active; 'I' for Inactive)
REMARK    1  A    between atoms: N1_1  and  C1_5 
REMARK    2  A    between atoms: C1_5  and  C2_6 
REMARK    3  A    between atoms: C2_6  and  N2_7 
REMARK    4  A    between atoms: N2_7  and  C3_10 
REMARK    5  A    between atoms: C5_15  and  N4_16 
ROOT
HETATM    1  C3  UNL     1       2.062  -6.881  86.078  1.00  0.00     0.215 C 
HETATM    2  C4  UNL     1       3.548  -7.090  85.762  1.00  0.00     0.267 C 
HETATM    3  N3  UNL     1       4.280  -6.495  86.860  1.00  0.00    -0.044 N 
ATOM      4  H31 UNL     1       5.060  -5.915  86.550  1.00  0.00     0.279 HD
ATOM      5  H32 UNL     1       4.823  -7.178  87.390  1.00  0.00     0.279 HD
HETATM    6  C5  UNL     1       3.330  -5.770  87.680  1.00  0.00     0.382 C 
HETATM    7  C6  UNL     1       2.152  -5.500  86.733  1.00  0.00     0.097 C 
ENDROOT
BRANCH   1   8
HETATM    8  N2  UNL     1       1.269  -6.877  84.888  1.00  0.00    -0.068 N 
ATOM      9  H22 UNL     1       0.296  -7.131  85.059  1.00  0.00     0.277 HD
ATOM     10  H21 UNL     1       1.500  -7.644  84.255  1.00  0.00     0.277 HD
BRANCH   8  11
HETATM   11  C2  UNL     1       1.410  -5.571  84.265  1.00  0.00     0.260 C 
BRANCH  11  12
HETATM   12  C1  UNL     1       2.239  -5.745  82.991  1.00  0.00     0.257 C 
BRANCH  12  13
HETATM   13  N1  UNL     1       3.232  -4.695  82.878  1.00  0.00    -0.078 N 
ATOM     14  H13 UNL     1       3.926  -4.908  82.162  1.00  0.00     0.274 HD
ATOM     15  H12 UNL     1       2.840  -3.848  82.466  1.00  0.00     0.274 HD
ATOM     16  H11 UNL     1       3.666  -4.510  83.781  1.00  0.00     0.274 HD
ENDBRANCH  12  13
ENDBRANCH  11  12
ENDBRANCH   8  11
ENDBRANCH   1   8
BRANCH   6  17
HETATM   17  N4  UNL     1       3.843  -4.544  88.217  1.00  0.00    -0.050 N 
ATOM     18  H43 UNL     1       4.174  -4.682  89.171  1.00  0.00     0.276 HD
ATOM     19  H42 UNL     1       4.722  -4.294  87.764  1.00  0.00     0.276 HD
ATOM     20  H41 UNL     1       3.184  -3.767  88.175  1.00  0.00     0.276 HD
ENDBRANCH   6  17
TORSDOF 5
ENDMDL
MODEL 4
REMARK VINA RESULT: -3.520741939      1.280      4.852
REMARK  5 active torsions:
REMARK  status: ('A' for Active; 'I' for Inactive)
REMARK    1  A    between atoms: N1_1  and  C1_5 
REMARK    2  A    between atoms: C1_5  and  C2_6 
REMARK    3  A    between atoms: C2_6  and  N2_7 
REMARK    4  A    between atoms: N2_7  and  C3_10 
REMARK    5  A    between atoms: C5_15  and  N4_16 
ROOT
HETATM    1  C3  UNL     1       9.340  -1.886  85.491  1.00  0.00     0.215 C 
HETATM    2  C4  UNL     1       9.217  -1.192  86.853  1.00  0.00     0.267 C 
HETATM    3  N3  UNL     1       9.992  -1.988  87.781  1.00  0.00    -0.044 N 
ATOM      4  H31 UNL     1       9.503  -2.163  88.660  1.00  0.00     0.279 HD
ATOM      5  H32 UNL     1      10.788  -1.482  88.169  1.00  0.00     0.279 HD
HETATM    6  C5  UNL     1      10.377  -3.207  87.099  1.00  0.00     0.382 C 
HETATM    7  C6  UNL     1       9.348  -3.341  85.967  1.00  0.00     0.097 C 
ENDROOT
BRANCH   1   8
HETATM    8  N2  UNL     1       8.224  -1.587  84.648  1.00  0.00    -0.068 N 
ATOM      9  H22 UNL     1       7.511  -2.316  84.661  1.00  0.00     0.277 HD
ATOM     10  H21 UNL     1       8.452  -1.638  83.655  1.00  0.00     0.277 HD
BRANCH   8  11
HETATM   11  C2  UNL     1       7.706  -0.287  85.041  1.00  0.00     0.260 C 
BRANCH  11  12
HETATM   12  C1  UNL     1       6.550   0.062  84.102  1.00  0.00     0.257 C 
BRANCH  12  13
HETATM   13  N1  UNL     1       6.375  -0.969  83.099  1.00  0.00    -0.078 N 
ATOM     14  H13 UNL     1       7.193  -1.052  82.495  1.00  0.00     0.274 HD
ATOM     15  H12 UNL     1       6.391  -1.902  83.510  1.00  0.00     0.274 HD
ATOM     16  H11 UNL     1       5.523  -0.808  82.561  1.00  0.00     0.274 HD
ENDBRANCH  12  13
ENDBRANCH  11  12
ENDBRANCH   8  11
ENDBRANCH   1   8
BRANCH   6  17
HETATM   17  N4  UNL     1      10.365  -4.370  87.937  1.00  0.00    -0.050 N 
ATOM     18  H43 UNL     1      10.694  -5.187  87.422  1.00  0.00     0.276 HD
ATOM     19  H42 UNL     1      11.096  -4.308  88.646  1.00  0.00     0.276 HD
ATOM     20  H41 UNL     1       9.461  -4.560  88.369  1.00  0.00     0.276 HD
ENDBRANCH   6  17
TORSDOF 5
ENDMDL
MODEL 5
REMARK VINA RESULT: -3.456865537      6.910      8.394
REMARK  5 active torsions:
REMARK  status: ('A' for Active; 'I' for Inactive)
REMARK    1  A    between atoms: N1_1  and  C1_5 
REMARK    2  A    between atoms: C1_5  and  C2_6 
REMARK    3  A    between atoms: C2_6  and  N2_7 
REMARK    4  A    between atoms: N2_7  and  C3_10 
REMARK    5  A    between atoms: C5_15  and  N4_16 
ROOT
HETATM    1  C3  UNL     1       2.663  -6.298  85.330  1.00  0.00     0.215 C 
HETATM    2  C4  UNL     1       1.602  -6.718  86.355  1.00  0.00     0.267 C 
HETATM    3  N3  UNL     1       1.814  -5.883  87.518  1.00  0.00    -0.044 N 
ATOM      4  H31 UNL     1       1.795  -6.409  88.393  1.00  0.00     0.279 HD
ATOM      5  H32 UNL     1       1.024  -5.268  87.714  1.00  0.00     0.279 HD
HETATM    6  C5  UNL     1       3.055  -5.162  87.321  1.00  0.00     0.382 C 
HETATM    7  C6  UNL     1       3.819  -6.009  86.293  1.00  0.00     0.097 C 
ENDROOT
BRANCH   1   8
HETATM    8  N2  UNL     1       2.958  -7.360  84.418  1.00  0.00    -0.068 N 
ATOM      9  H22 UNL     1       2.399  -8.196  84.589  1.00  0.00     0.277 HD
ATOM     10  H21 UNL     1       3.876  -7.776  84.578  1.00  0.00     0.277 HD
BRANCH   8  11
HETATM   11  C2  UNL     1       2.801  -6.843  83.069  1.00  0.00     0.260 C 
BRANCH  11  12
HETATM   12  C1  UNL     1       2.234  -5.425  83.171  1.00  0.00     0.257 C 
BRANCH  12  13
HETATM   13  N1  UNL     1       3.182  -4.456  82.659  1.00  0.00    -0.078 N 
ATOM     14  H13 UNL     1       4.106  -4.575  83.074  1.00  0.00     0.274 HD
ATOM     15  H12 UNL     1       3.425  -4.643  81.686  1.00  0.00     0.274 HD
ATOM     16  H11 UNL     1       2.831  -3.507  82.785  1.00  0.00     0.274 HD
ENDBRANCH  12  13
ENDBRANCH  11  12
ENDBRANCH   8  11
ENDBRANCH   1   8
BRANCH   6  17
HETATM   17  N4  UNL     1       3.827  -4.995  88.517  1.00  0.00    -0.050 N 
ATOM     18  H43 UNL     1       4.048  -4.011  88.667  1.00  0.00     0.276 HD
ATOM     19  H42 UNL     1       3.252  -5.171  89.342  1.00  0.00     0.276 HD
ATOM     20  H41 UNL     1       4.675  -5.561  88.544  1.00  0.00     0.276 HD
ENDBRANCH   6  17
TORSDOF 5
ENDMDL
