MODEL 1
REMARK VINA RESULT: -5.461404314      0.000      0.000
REMARK  4 active torsions:
REMARK  status: ('A' for Active; 'I' for Inactive)
REMARK    1  A    between atoms: N1_1  and  C1_5 
REMARK    2  A    between atoms: C1_5  and  C2_6 
REMARK    3  A    between atoms: C2_6  and  N2_7 
REMARK    4  A    between atoms: N2_7  and  C3_9 
ROOT
HETATM    1  N2  UNL     1       2.266  -7.169  85.047  1.00  0.00    -0.223 N 
ATOM      2  H2  UNL     1       2.027  -8.126  85.306  1.00  0.00     0.177 HD
ENDROOT
BRANCH   1   3
HETATM    3  C2  UNL     1       3.035  -6.987  83.859  1.00  0.00     0.165 C 
BRANCH   3   4
HETATM    4  C1  UNL     1       2.579  -5.796  83.042  1.00  0.00     0.249 C 
BRANCH   4   5
HETATM    5  N1  UNL     1       3.583  -4.750  83.024  1.00  0.00    -0.078 N 
ATOM      6  H13 UNL     1       3.372  -4.017  83.701  1.00  0.00     0.274 HD
ATOM      7  H12 UNL     1       4.468  -5.075  83.415  1.00  0.00     0.274 HD
ATOM      8  H11 UNL     1       3.707  -4.368  82.086  1.00  0.00     0.274 HD
ENDBRANCH   4   5
ENDBRANCH   3   4
ENDBRANCH   1   3
BRANCH   1   9
HETATM    9  C3  UNL     1       1.850  -6.235  85.814  1.00  0.00     0.703 A 
HETATM   10  N3  UNL     1       2.673  -5.627  86.715  1.00  0.00    -0.117 N 
HETATM   11  N4  UNL     1       1.959  -4.715  87.355  1.00  0.00     0.006 NA
ATOM     12  H3  UNL     1       3.659  -5.837  86.869  1.00  0.00     0.202 HD
HETATM   13  N5  UNL     1       0.707  -4.709  86.900  1.00  0.00     0.006 NA
HETATM   14  N6  UNL     1       0.667  -5.650  85.958  1.00  0.00    -0.117 N 
ATOM     15  H6  UNL     1      -0.164  -5.890  85.418  1.00  0.00     0.202 HD
ENDBRANCH   1   9
TORSDOF 4
ENDMDL
MODEL 2
REMARK VINA RESULT: -5.334626100      0.169      1.202
REMARK  4 active torsions:
REMARK  status: ('A' for Active; 'I' for Inactive)
REMARK    1  A    between atoms: N1_1  and  C1_5 
REMARK    2  A    between atoms: C1_5  and  C2_6 
REMARK    3  A    between atoms: C2_6  and  N2_7 
REMARK    4  A    between atoms: N2_7  and  C3_9 
ROOT
HETATM    1  N2  UNL     1       2.186  -7.078  84.891  1.00  0.00    -0.223 N 
ATOM      2  H2  UNL     1       1.858  -8.025  85.083  1.00  0.00     0.177 HD
ENDROOT
BRANCH   1   3
HETATM    3  C2  UNL     1       2.864  -6.860  83.655  1.00  0.00     0.165 C 
BRANCH   3   4
HETATM    4  C1  UNL     1       2.477  -5.552  82.997  1.00  0.00     0.249 C 
BRANCH   4   5
HETATM    5  N1  UNL     1       3.587  -4.618  82.983  1.00  0.00    -0.078 N 
ATOM      6  H13 UNL     1       4.148  -4.692  83.832  1.00  0.00     0.274 HD
ATOM      7  H12 UNL     1       4.296  -4.891  82.302  1.00  0.00     0.274 HD
ATOM      8  H11 UNL     1       3.268  -3.662  82.828  1.00  0.00     0.274 HD
ENDBRANCH   4   5
ENDBRANCH   3   4
ENDBRANCH   1   3
BRANCH   1   9
HETATM    9  C3  UNL     1       1.954  -6.189  85.779  1.00  0.00     0.703 A 
HETATM   10  N3  UNL     1       0.717  -5.637  85.936  1.00  0.00    -0.117 N 
HETATM   11  N4  UNL     1       0.795  -4.758  86.922  1.00  0.00     0.006 NA
ATOM     12  H3  UNL     1      -0.117  -5.861  85.392  1.00  0.00     0.202 HD
HETATM   13  N5  UNL     1       2.034  -4.721  87.408  1.00  0.00     0.006 NA
HETATM   14  N6  UNL     1       2.723  -5.607  86.691  1.00  0.00    -0.117 N 
ATOM     15  H6  UNL     1       3.714  -5.811  86.824  1.00  0.00     0.202 HD
ENDBRANCH   1   9
TORSDOF 4
ENDMDL
MODEL 3
REMARK VINA RESULT: -5.036921748      7.096      7.976
REMARK  4 active torsions:
REMARK  status: ('A' for Active; 'I' for Inactive)
REMARK    1  A    between atoms: N1_1  and  C1_5 
REMARK    2  A    between atoms: C1_5  and  C2_6 
REMARK    3  A    between atoms: C2_6  and  N2_7 
REMARK    4  A    between atoms: N2_7  and  C3_9 
ROOT
HETATM    1  N2  UNL     1       7.805  -0.051  84.344  1.00  0.00    -0.223 N 
ATOM      2  H2  UNL     1       8.321   0.243  83.514  1.00  0.00     0.177 HD
ENDROOT
BRANCH   1   3
HETATM    3  C2  UNL     1       6.476   0.447  84.496  1.00  0.00     0.165 C 
BRANCH   3   4
HETATM    4  C1  UNL     1       5.480  -0.261  83.602  1.00  0.00     0.249 C 
BRANCH   4   5
HETATM    5  N1  UNL     1       6.148  -1.030  82.569  1.00  0.00    -0.078 N 
ATOM      6  H13 UNL     1       6.962  -1.521  82.937  1.00  0.00     0.274 HD
ATOM      7  H12 UNL     1       5.592  -1.837  82.286  1.00  0.00     0.274 HD
ATOM      8  H11 UNL     1       6.394  -0.446  81.770  1.00  0.00     0.274 HD
ENDBRANCH   4   5
ENDBRANCH   3   4
ENDBRANCH   1   3
BRANCH   1   9
HETATM    9  C3  UNL     1       8.405  -0.833  85.158  1.00  0.00     0.703 A 
HETATM   10  N3  UNL     1       9.017  -1.975  84.735  1.00  0.00    -0.117 N 
HETATM   11  N4  UNL     1       9.540  -2.564  85.798  1.00  0.00     0.006 NA
ATOM     12  H3  UNL     1       9.064  -2.314  83.773  1.00  0.00     0.202 HD
HETATM   13  N5  UNL     1       9.290  -1.845  86.891  1.00  0.00     0.006 NA
HETATM   14  N6  UNL     1       8.593  -0.791  86.471  1.00  0.00    -0.117 N 
ATOM     15  H6  UNL     1       8.247  -0.048  87.079  1.00  0.00     0.202 HD
ENDBRANCH   1   9
TORSDOF 4
ENDMDL
MODEL 4
REMARK VINA RESULT: -4.996003859      6.993      7.800
REMARK  4 active torsions:
REMARK  status: ('A' for Active; 'I' for Inactive)
REMARK    1  A    between atoms: N1_1  and  C1_5 
REMARK    2  A    between atoms: C1_5  and  C2_6 
REMARK    3  A    between atoms: C2_6  and  N2_7 
REMARK    4  A    between atoms: N2_7  and  C3_9 
ROOT
HETATM    1  N2  UNL     1       8.070  -0.990  84.598  1.00  0.00    -0.223 N 
ATOM      2  H2  UNL     1       8.692  -1.277  83.842  1.00  0.00     0.177 HD
ENDROOT
BRANCH   1   3
HETATM    3  C2  UNL     1       8.557  -1.132  85.932  1.00  0.00     0.165 C 
BRANCH   3   4
HETATM    4  C1  UNL     1       9.632  -2.191  86.055  1.00  0.00     0.249 C 
BRANCH   4   5
HETATM    5  N1  UNL     1       9.619  -2.810  87.367  1.00  0.00    -0.078 N 
ATOM      6  H13 UNL     1       9.214  -3.745  87.335  1.00  0.00     0.274 HD
ATOM      7  H12 UNL     1      10.560  -3.056  87.673  1.00  0.00     0.274 HD
ATOM      8  H11 UNL     1       9.145  -2.220  88.052  1.00  0.00     0.274 HD
ENDBRANCH   4   5
ENDBRANCH   3   4
ENDBRANCH   1   3
BRANCH   1   9
HETATM    9  C3  UNL     1       6.922  -0.535  84.269  1.00  0.00     0.703 A 
HETATM   10  N3  UNL     1       6.205  -1.071  83.241  1.00  0.00    -0.117 N 
HETATM   11  N4  UNL     1       5.074  -0.392  83.147  1.00  0.00     0.006 NA
ATOM     12  H3  UNL     1       6.489  -1.854  82.652  1.00  0.00     0.202 HD
HETATM   13  N5  UNL     1       5.032   0.563  84.075  1.00  0.00     0.006 NA
HETATM   14  N6  UNL     1       6.176   0.453  84.748  1.00  0.00    -0.117 N 
ATOM     15  H6  UNL     1       6.445   1.050  85.531  1.00  0.00     0.202 HD
ENDBRANCH   1   9
TORSDOF 4
ENDMDL
MODEL 5
REMARK VINA RESULT: -4.882616928      0.872      1.173
REMARK  4 active torsions:
REMARK  status: ('A' for Active; 'I' for Inactive)
REMARK    1  A    between atoms: N1_1  and  C1_5 
REMARK    2  A    between atoms: C1_5  and  C2_6 
REMARK    3  A    between atoms: C2_6  and  N2_7 
REMARK    4  A    between atoms: N2_7  and  C3_9 
ROOT
HETATM    1  N2  UNL     1       2.610  -7.158  85.066  1.00  0.00    -0.223 N 
ATOM      2  H2  UNL     1       2.306  -8.105  85.297  1.00  0.00     0.177 HD
ENDROOT
BRANCH   1   3
HETATM    3  C2  UNL     1       2.860  -6.869  83.692  1.00  0.00     0.165 C 
BRANCH   3   4
HETATM    4  C1  UNL     1       2.255  -5.552  83.251  1.00  0.00     0.249 C 
BRANCH   4   5
HETATM    5  N1  UNL     1       3.277  -4.622  82.809  1.00  0.00    -0.078 N 
ATOM      6  H13 UNL     1       4.213  -4.974  83.007  1.00  0.00     0.274 HD
ATOM      7  H12 UNL     1       3.334  -4.585  81.791  1.00  0.00     0.274 HD
ATOM      8  H11 UNL     1       3.134  -3.694  83.210  1.00  0.00     0.274 HD
ENDBRANCH   4   5
ENDBRANCH   3   4
ENDBRANCH   1   3
BRANCH   1   9
HETATM    9  C3  UNL     1       2.733  -6.333  86.035  1.00  0.00     0.703 A 
HETATM   10  N3  UNL     1       3.956  -5.945  86.495  1.00  0.00    -0.117 N 
HETATM   11  N4  UNL     1       3.756  -5.097  87.491  1.00  0.00     0.006 NA
ATOM     12  H3  UNL     1       4.861  -6.252  86.137  1.00  0.00     0.202 HD
HETATM   13  N5  UNL     1       2.451  -4.922  87.691  1.00  0.00     0.006 NA
HETATM   14  N6  UNL     1       1.848  -5.690  86.786  1.00  0.00    -0.117 N 
ATOM     15  H6  UNL     1       0.836  -5.775  86.684  1.00  0.00     0.202 HD
ENDBRANCH   1   9
TORSDOF 4
ENDMDL
