MODEL 1
REMARK VINA RESULT: -4.138677608      0.000      0.000
REMARK  4 active torsions:
REMARK  status: ('A' for Active; 'I' for Inactive)
REMARK    1  A    between atoms: C3_3  and  C4_4 
REMARK    2  A    between atoms: N2_9  and  C7_10 
REMARK    3  A    between atoms: C7_10  and  C8_11 
REMARK    4  A    between atoms: C8_11  and  N3_12 
ROOT
HETATM    1  C1  UNL     1      18.857  -0.217  40.256  1.00  0.00     0.112 C 
HETATM    2  C2  UNL     1      19.652  -1.411  40.557  1.00  0.00    -0.103 C 
HETATM    3  C3  UNL     1      20.306  -2.408  40.826  1.00  0.00    -0.030 C 
ENDROOT
BRANCH   3   4
HETATM    4  C4  UNL     1      21.070  -3.577  41.167  1.00  0.00     0.163 A 
HETATM    5  N1  UNL     1      21.949  -4.260  40.400  1.00  0.00    -0.344 N 
HETATM    6  C5  UNL     1      22.456  -5.294  41.074  1.00  0.00     0.107 A 
ATOM      7  H1  UNL     1      22.191  -4.019  39.439  1.00  0.00     0.167 HD
HETATM    8  C6  UNL     1      21.873  -5.260  42.318  1.00  0.00     0.110 A 
HETATM    9  N2  UNL     1      21.020  -4.205  42.376  1.00  0.00    -0.333 N 
BRANCH   9  10
HETATM   10  C7  UNL     1      20.229  -3.853  43.524  1.00  0.00     0.158 C 
BRANCH  10  11
HETATM   11  C8  UNL     1      19.360  -4.975  44.013  1.00  0.00     0.249 C 
BRANCH  11  12
HETATM   12  N3  UNL     1      17.988  -4.663  43.617  1.00  0.00    -0.078 N 
ATOM     13  H33 UNL     1      17.627  -3.818  44.059  1.00  0.00     0.274 HD
ATOM     14  H32 UNL     1      17.914  -4.347  42.650  1.00  0.00     0.274 HD
ATOM     15  H31 UNL     1      17.423  -5.489  43.812  1.00  0.00     0.274 HD
ENDBRANCH  11  12
ENDBRANCH  10  11
ENDBRANCH   9  10
ENDBRANCH   3   4
TORSDOF 4
ENDMDL
MODEL 2
REMARK VINA RESULT: -4.043665683      2.048      4.021
REMARK  4 active torsions:
REMARK  status: ('A' for Active; 'I' for Inactive)
REMARK    1  A    between atoms: C3_3  and  C4_4 
REMARK    2  A    between atoms: N2_9  and  C7_10 
REMARK    3  A    between atoms: C7_10  and  C8_11 
REMARK    4  A    between atoms: C8_11  and  N3_12 
ROOT
HETATM    1  C1  UNL     1      21.640  -7.006  43.693  1.00  0.00     0.112 C 
HETATM    2  C2  UNL     1      21.627  -5.854  42.787  1.00  0.00    -0.103 C 
HETATM    3  C3  UNL     1      21.613  -4.906  42.016  1.00  0.00    -0.030 C 
ENDROOT
BRANCH   3   4
HETATM    4  C4  UNL     1      21.598  -3.806  41.090  1.00  0.00     0.163 A 
HETATM    5  N1  UNL     1      22.304  -3.659  39.947  1.00  0.00    -0.344 N 
HETATM    6  C5  UNL     1      22.014  -2.496  39.363  1.00  0.00     0.107 A 
ATOM      7  H1  UNL     1      22.967  -4.343  39.582  1.00  0.00     0.167 HD
HETATM    8  C6  UNL     1      21.087  -1.884  40.171  1.00  0.00     0.110 A 
HETATM    9  N2  UNL     1      20.829  -2.689  41.234  1.00  0.00    -0.333 N 
BRANCH   9  10
HETATM   10  C7  UNL     1      19.908  -2.378  42.293  1.00  0.00     0.158 C 
BRANCH  10  11
HETATM   11  C8  UNL     1      19.813  -0.909  42.585  1.00  0.00     0.249 C 
BRANCH  11  12
HETATM   12  N3  UNL     1      18.451  -0.491  42.259  1.00  0.00    -0.078 N 
ATOM     13  H33 UNL     1      17.947  -1.175  41.695  1.00  0.00     0.274 HD
ATOM     14  H32 UNL     1      17.826  -0.501  43.065  1.00  0.00     0.274 HD
ATOM     15  H31 UNL     1      18.515   0.425  41.814  1.00  0.00     0.274 HD
ENDBRANCH  11  12
ENDBRANCH  10  11
ENDBRANCH   9  10
ENDBRANCH   3   4
TORSDOF 4
ENDMDL
MODEL 3
REMARK VINA RESULT: -3.994535338      1.629      2.273
REMARK  4 active torsions:
REMARK  status: ('A' for Active; 'I' for Inactive)
REMARK    1  A    between atoms: C3_3  and  C4_4 
REMARK    2  A    between atoms: N2_9  and  C7_10 
REMARK    3  A    between atoms: C7_10  and  C8_11 
REMARK    4  A    between atoms: C8_11  and  N3_12 
ROOT
HETATM    1  C1  UNL     1      18.774  -0.029  40.158  1.00  0.00     0.112 C 
HETATM    2  C2  UNL     1      19.568  -1.215  40.492  1.00  0.00    -0.103 C 
HETATM    3  C3  UNL     1      20.223  -2.202  40.790  1.00  0.00    -0.030 C 
ENDROOT
BRANCH   3   4
HETATM    4  C4  UNL     1      20.992  -3.358  41.164  1.00  0.00     0.163 A 
HETATM    5  N1  UNL     1      21.378  -4.398  40.391  1.00  0.00    -0.344 N 
HETATM    6  C5  UNL     1      22.081  -5.278  41.106  1.00  0.00     0.107 A 
ATOM      7  H1  UNL     1      21.162  -4.496  39.399  1.00  0.00     0.167 HD
HETATM    8  C6  UNL     1      22.140  -4.773  42.382  1.00  0.00     0.110 A 
HETATM    9  N2  UNL     1      21.470  -3.591  42.420  1.00  0.00    -0.333 N 
BRANCH   9  10
HETATM   10  C7  UNL     1      21.320  -2.772  43.591  1.00  0.00     0.158 C 
BRANCH  10  11
HETATM   11  C8  UNL     1      22.456  -1.813  43.795  1.00  0.00     0.249 C 
BRANCH  11  12
HETATM   12  N3  UNL     1      21.952  -0.474  43.495  1.00  0.00    -0.078 N 
ATOM     13  H33 UNL     1      21.020  -0.482  43.082  1.00  0.00     0.274 HD
ATOM     14  H32 UNL     1      21.719   0.061  44.332  1.00  0.00     0.274 HD
ATOM     15  H31 UNL     1      22.647  -0.014  42.907  1.00  0.00     0.274 HD
ENDBRANCH  11  12
ENDBRANCH  10  11
ENDBRANCH   9  10
ENDBRANCH   3   4
TORSDOF 4
ENDMDL
MODEL 4
REMARK VINA RESULT: -3.910179157      2.230      3.927
REMARK  4 active torsions:
REMARK  status: ('A' for Active; 'I' for Inactive)
REMARK    1  A    between atoms: C3_3  and  C4_4 
REMARK    2  A    between atoms: N2_9  and  C7_10 
REMARK    3  A    between atoms: C7_10  and  C8_11 
REMARK    4  A    between atoms: C8_11  and  N3_12 
ROOT
HETATM    1  C1  UNL     1      18.255  -4.888  44.384  1.00  0.00     0.112 C 
HETATM    2  C2  UNL     1      19.066  -4.319  43.305  1.00  0.00    -0.103 C 
HETATM    3  C3  UNL     1      19.726  -3.838  42.395  1.00  0.00    -0.030 C 
ENDROOT
BRANCH   3   4
HETATM    4  C4  UNL     1      20.481  -3.272  41.311  1.00  0.00     0.163 A 
HETATM    5  N1  UNL     1      21.529  -3.809  40.645  1.00  0.00    -0.344 N 
HETATM    6  C5  UNL     1      21.962  -2.973  39.700  1.00  0.00     0.107 A 
ATOM      7  H1  UNL     1      21.931  -4.726  40.838  1.00  0.00     0.167 HD
HETATM    8  C6  UNL     1      21.154  -1.863  39.773  1.00  0.00     0.110 A 
HETATM    9  N2  UNL     1      20.243  -2.046  40.764  1.00  0.00    -0.333 N 
BRANCH   9  10
HETATM   10  C7  UNL     1      19.231  -1.094  41.133  1.00  0.00     0.158 C 
BRANCH  10  11
HETATM   11  C8  UNL     1      19.580  -0.303  42.360  1.00  0.00     0.249 C 
BRANCH  11  12
HETATM   12  N3  UNL     1      19.001   1.029  42.194  1.00  0.00    -0.078 N 
ATOM     13  H33 UNL     1      19.681   1.725  41.891  1.00  0.00     0.274 HD
ATOM     14  H32 UNL     1      18.377   1.096  41.390  1.00  0.00     0.274 HD
ATOM     15  H31 UNL     1      18.546   1.272  43.075  1.00  0.00     0.274 HD
ENDBRANCH  11  12
ENDBRANCH  10  11
ENDBRANCH   9  10
ENDBRANCH   3   4
TORSDOF 4
ENDMDL
MODEL 5
REMARK VINA RESULT: -3.899453528      2.923      4.233
REMARK  4 active torsions:
REMARK  status: ('A' for Active; 'I' for Inactive)
REMARK    1  A    between atoms: C3_3  and  C4_4 
REMARK    2  A    between atoms: N2_9  and  C7_10 
REMARK    3  A    between atoms: C7_10  and  C8_11 
REMARK    4  A    between atoms: C8_11  and  N3_12 
ROOT
HETATM    1  C1  UNL     1      21.669  -2.480  39.538  1.00  0.00     0.112 C 
HETATM    2  C2  UNL     1      20.948  -1.748  40.583  1.00  0.00    -0.103 C 
HETATM    3  C3  UNL     1      20.364  -1.137  41.465  1.00  0.00    -0.030 C 
ENDROOT
BRANCH   3   4
HETATM    4  C4  UNL     1      19.694  -0.425  42.519  1.00  0.00     0.163 A 
HETATM    5  N1  UNL     1      19.150   0.812  42.485  1.00  0.00    -0.344 N 
HETATM    6  C5  UNL     1      18.618   1.123  43.668  1.00  0.00     0.107 A 
ATOM      7  H1  UNL     1      19.147   1.423  41.668  1.00  0.00     0.167 HD
HETATM    8  C6  UNL     1      18.834   0.037  44.481  1.00  0.00     0.110 A 
HETATM    9  N2  UNL     1      19.496  -0.916  43.776  1.00  0.00    -0.333 N 
BRANCH   9  10
HETATM   10  C7  UNL     1      19.895  -2.194  44.300  1.00  0.00     0.158 C 
BRANCH  10  11
HETATM   11  C8  UNL     1      18.752  -3.152  44.464  1.00  0.00     0.249 C 
BRANCH  11  12
HETATM   12  N3  UNL     1      18.753  -4.030  43.295  1.00  0.00    -0.078 N 
ATOM     13  H33 UNL     1      18.796  -3.521  42.413  1.00  0.00     0.274 HD
ATOM     14  H32 UNL     1      19.622  -4.551  43.188  1.00  0.00     0.274 HD
ATOM     15  H31 UNL     1      17.932  -4.632  43.369  1.00  0.00     0.274 HD
ENDBRANCH  11  12
ENDBRANCH  10  11
ENDBRANCH   9  10
ENDBRANCH   3   4
TORSDOF 4
ENDMDL
