MODEL 1
REMARK VINA RESULT: -5.132998867      0.000      0.000
REMARK  6 active torsions:
REMARK  status: ('A' for Active; 'I' for Inactive)
REMARK    1  A    between atoms: C3_3  and  C4_4 
REMARK    2  A    between atoms: C5_5  and  C6_6 
REMARK    3  A    between atoms: C7_7  and  C8_8 
REMARK    4  A    between atoms: C8_8  and  C9_9 
REMARK    5  A    between atoms: C9_9  and  C11_11 
REMARK    6  A    between atoms: C11_11  and  N1_12 
ROOT
HETATM    1  C1  UNL     1      21.617  -1.290  44.596  1.00  0.00     0.112 C 
HETATM    2  C2  UNL     1      20.667  -0.901  43.552  1.00  0.00    -0.106 C 
HETATM    3  C3  UNL     1      19.864  -0.595  42.685  1.00  0.00    -0.078 C 
ENDROOT
BRANCH   3   4
HETATM    4  C4  UNL     1      18.901  -0.232  41.682  1.00  0.00     0.073 C 
HETATM    5  C5  UNL     1      19.053  -0.601  40.433  1.00  0.00     0.073 C 
BRANCH   5   6
HETATM    6  C6  UNL     1      20.230  -1.389  40.091  1.00  0.00    -0.078 C 
HETATM    7  C7  UNL     1      21.210  -2.026  39.794  1.00  0.00    -0.102 C 
BRANCH   7   8
HETATM    8  C8  UNL     1      22.412  -2.779  39.426  1.00  0.00     0.100 C 
BRANCH   8   9
HETATM    9  C9  UNL     1      23.065  -3.312  40.695  1.00  0.00     0.018 C 
HETATM   10  C10 UNL     1      23.553  -2.207  41.580  1.00  0.00     0.012 C 
BRANCH   9  11
HETATM   11  C11 UNL     1      22.024  -4.179  41.378  1.00  0.00     0.234 C 
BRANCH  11  12
HETATM   12  N1  UNL     1      22.144  -5.529  40.858  1.00  0.00    -0.079 N 
ATOM     13  H13 UNL     1      22.802  -5.594  40.082  1.00  0.00     0.274 HD
ATOM     14  H12 UNL     1      22.627  -6.157  41.501  1.00  0.00     0.274 HD
ATOM     15  H11 UNL     1      21.211  -5.860  40.611  1.00  0.00     0.274 HD
ENDBRANCH  11  12
ENDBRANCH   9  11
ENDBRANCH   8   9
ENDBRANCH   7   8
ENDBRANCH   5   6
ENDBRANCH   3   4
TORSDOF 6
ENDMDL
MODEL 2
REMARK VINA RESULT: -4.963086805      2.715      4.661
REMARK  6 active torsions:
REMARK  status: ('A' for Active; 'I' for Inactive)
REMARK    1  A    between atoms: C3_3  and  C4_4 
REMARK    2  A    between atoms: C5_5  and  C6_6 
REMARK    3  A    between atoms: C7_7  and  C8_8 
REMARK    4  A    between atoms: C8_8  and  C9_9 
REMARK    5  A    between atoms: C9_9  and  C11_11 
REMARK    6  A    between atoms: C11_11  and  N1_12 
ROOT
HETATM    1  C1  UNL     1      18.831  -0.558  40.575  1.00  0.00     0.112 C 
HETATM    2  C2  UNL     1      20.035  -1.305  40.206  1.00  0.00    -0.106 C 
HETATM    3  C3  UNL     1      21.041  -1.916  39.880  1.00  0.00    -0.078 C 
ENDROOT
BRANCH   3   4
HETATM    4  C4  UNL     1      22.238  -2.614  39.500  1.00  0.00     0.073 C 
HETATM    5  C5  UNL     1      22.658  -3.654  40.179  1.00  0.00     0.073 C 
BRANCH   5   6
HETATM    6  C6  UNL     1      21.877  -4.081  41.331  1.00  0.00    -0.078 C 
HETATM    7  C7  UNL     1      21.228  -4.454  42.277  1.00  0.00    -0.102 C 
BRANCH   7   8
HETATM    8  C8  UNL     1      20.445  -4.932  43.420  1.00  0.00     0.100 C 
BRANCH   8   9
HETATM    9  C9  UNL     1      19.122  -4.178  43.457  1.00  0.00     0.018 C 
HETATM   10  C10 UNL     1      18.017  -5.014  44.024  1.00  0.00     0.012 C 
BRANCH   9  11
HETATM   11  C11 UNL     1      19.369  -2.922  44.272  1.00  0.00     0.234 C 
BRANCH  11  12
HETATM   12  N1  UNL     1      18.398  -1.921  43.868  1.00  0.00    -0.079 N 
ATOM     13  H13 UNL     1      18.796  -1.213  43.250  1.00  0.00     0.274 HD
ATOM     14  H12 UNL     1      17.698  -2.289  43.223  1.00  0.00     0.274 HD
ATOM     15  H11 UNL     1      17.984  -1.519  44.710  1.00  0.00     0.274 HD
ENDBRANCH  11  12
ENDBRANCH   9  11
ENDBRANCH   8   9
ENDBRANCH   7   8
ENDBRANCH   5   6
ENDBRANCH   3   4
TORSDOF 6
ENDMDL
MODEL 3
REMARK VINA RESULT: -4.805456224      2.641      4.528
REMARK  6 active torsions:
REMARK  status: ('A' for Active; 'I' for Inactive)
REMARK    1  A    between atoms: C3_3  and  C4_4 
REMARK    2  A    between atoms: C5_5  and  C6_6 
REMARK    3  A    between atoms: C7_7  and  C8_8 
REMARK    4  A    between atoms: C8_8  and  C9_9 
REMARK    5  A    between atoms: C9_9  and  C11_11 
REMARK    6  A    between atoms: C11_11  and  N1_12 
ROOT
HETATM    1  C1  UNL     1      18.893  -4.078  44.268  1.00  0.00     0.112 C 
HETATM    2  C2  UNL     1      20.017  -4.710  43.574  1.00  0.00    -0.106 C 
HETATM    3  C3  UNL     1      20.942  -5.241  42.979  1.00  0.00    -0.078 C 
ENDROOT
BRANCH   3   4
HETATM    4  C4  UNL     1      22.030  -5.844  42.262  1.00  0.00     0.073 C 
HETATM    5  C5  UNL     1      22.509  -5.295  41.171  1.00  0.00     0.073 C 
BRANCH   5   6
HETATM    6  C6  UNL     1      21.903  -4.055  40.707  1.00  0.00    -0.078 C 
HETATM    7  C7  UNL     1      21.403  -3.020  40.341  1.00  0.00    -0.102 C 
BRANCH   7   8
HETATM    8  C8  UNL     1      20.806  -1.751  39.917  1.00  0.00     0.100 C 
BRANCH   8   9
HETATM    9  C9  UNL     1      19.710  -1.372  40.904  1.00  0.00     0.018 C 
HETATM   10  C10 UNL     1      20.267  -0.965  42.232  1.00  0.00     0.012 C 
BRANCH   9  11
HETATM   11  C11 UNL     1      18.913  -0.258  40.250  1.00  0.00     0.234 C 
BRANCH  11  12
HETATM   12  N1  UNL     1      17.507  -0.470  40.547  1.00  0.00    -0.079 N 
ATOM     13  H13 UNL     1      17.347  -0.750  41.514  1.00  0.00     0.274 HD
ATOM     14  H12 UNL     1      16.973   0.399  40.564  1.00  0.00     0.274 HD
ATOM     15  H11 UNL     1      17.138  -1.145  39.877  1.00  0.00     0.274 HD
ENDBRANCH  11  12
ENDBRANCH   9  11
ENDBRANCH   8   9
ENDBRANCH   7   8
ENDBRANCH   5   6
ENDBRANCH   3   4
TORSDOF 6
ENDMDL
MODEL 4
REMARK VINA RESULT: -4.785639042      2.009      4.293
REMARK  6 active torsions:
REMARK  status: ('A' for Active; 'I' for Inactive)
REMARK    1  A    between atoms: C3_3  and  C4_4 
REMARK    2  A    between atoms: C5_5  and  C6_6 
REMARK    3  A    between atoms: C7_7  and  C8_8 
REMARK    4  A    between atoms: C8_8  and  C9_9 
REMARK    5  A    between atoms: C9_9  and  C11_11 
REMARK    6  A    between atoms: C11_11  and  N1_12 
ROOT
HETATM    1  C1  UNL     1      18.882  -0.538  40.565  1.00  0.00     0.112 C 
HETATM    2  C2  UNL     1      20.074  -1.294  40.174  1.00  0.00    -0.106 C 
HETATM    3  C3  UNL     1      21.059  -1.928  39.829  1.00  0.00    -0.078 C 
ENDROOT
BRANCH   3   4
HETATM    4  C4  UNL     1      22.224  -2.654  39.407  1.00  0.00     0.073 C 
HETATM    5  C5  UNL     1      23.020  -3.223  40.281  1.00  0.00     0.073 C 
BRANCH   5   6
HETATM    6  C6  UNL     1      22.689  -3.095  41.693  1.00  0.00    -0.078 C 
HETATM    7  C7  UNL     1      22.405  -2.971  42.859  1.00  0.00    -0.102 C 
BRANCH   7   8
HETATM    8  C8  UNL     1      22.042  -2.803  44.269  1.00  0.00     0.100 C 
BRANCH   8   9
HETATM    9  C9  UNL     1      20.779  -1.957  44.352  1.00  0.00     0.018 C 
HETATM   10  C10 UNL     1      20.972  -0.602  43.744  1.00  0.00     0.012 C 
BRANCH   9  11
HETATM   11  C11 UNL     1      19.687  -2.748  43.657  1.00  0.00     0.234 C 
BRANCH  11  12
HETATM   12  N1  UNL     1      18.422  -2.074  43.886  1.00  0.00    -0.079 N 
ATOM     13  H13 UNL     1      17.695  -2.705  44.224  1.00  0.00     0.274 HD
ATOM     14  H12 UNL     1      18.449  -1.450  44.692  1.00  0.00     0.274 HD
ATOM     15  H11 UNL     1      18.156  -1.594  43.026  1.00  0.00     0.274 HD
ENDBRANCH  11  12
ENDBRANCH   9  11
ENDBRANCH   8   9
ENDBRANCH   7   8
ENDBRANCH   5   6
ENDBRANCH   3   4
TORSDOF 6
ENDMDL
MODEL 5
REMARK VINA RESULT: -4.770532302      2.685      4.642
REMARK  6 active torsions:
REMARK  status: ('A' for Active; 'I' for Inactive)
REMARK    1  A    between atoms: C3_3  and  C4_4 
REMARK    2  A    between atoms: C5_5  and  C6_6 
REMARK    3  A    between atoms: C7_7  and  C8_8 
REMARK    4  A    between atoms: C8_8  and  C9_9 
REMARK    5  A    between atoms: C9_9  and  C11_11 
REMARK    6  A    between atoms: C11_11  and  N1_12 
ROOT
HETATM    1  C1  UNL     1      18.675  -0.259  40.366  1.00  0.00     0.112 C 
HETATM    2  C2  UNL     1      19.847  -1.089  40.077  1.00  0.00    -0.106 C 
HETATM    3  C3  UNL     1      20.832  -1.775  39.856  1.00  0.00    -0.078 C 
ENDROOT
BRANCH   3   4
HETATM    4  C4  UNL     1      21.984  -2.599  39.614  1.00  0.00     0.073 C 
HETATM    5  C5  UNL     1      22.228  -3.654  40.354  1.00  0.00     0.073 C 
BRANCH   5   6
HETATM    6  C6  UNL     1      21.297  -3.966  41.430  1.00  0.00    -0.078 C 
HETATM    7  C7  UNL     1      20.517  -4.205  42.318  1.00  0.00    -0.102 C 
BRANCH   7   8
HETATM    8  C8  UNL     1      19.554  -4.478  43.388  1.00  0.00     0.100 C 
BRANCH   8   9
HETATM    9  C9  UNL     1      19.551  -3.304  44.357  1.00  0.00     0.018 C 
HETATM   10  C10 UNL     1      19.413  -1.993  43.647  1.00  0.00     0.012 C 
BRANCH   9  11
HETATM   11  C11 UNL     1      18.413  -3.554  45.328  1.00  0.00     0.234 C 
BRANCH  11  12
HETATM   12  N1  UNL     1      17.170  -3.171  44.681  1.00  0.00    -0.079 N 
ATOM     13  H13 UNL     1      17.301  -2.903  43.706  1.00  0.00     0.274 HD
ATOM     14  H12 UNL     1      16.548  -3.964  44.524  1.00  0.00     0.274 HD
ATOM     15  H11 UNL     1      16.735  -2.434  45.236  1.00  0.00     0.274 HD
ENDBRANCH  11  12
ENDBRANCH   9  11
ENDBRANCH   8   9
ENDBRANCH   7   8
ENDBRANCH   5   6
ENDBRANCH   3   4
TORSDOF 6
ENDMDL
