MODEL 1
REMARK VINA RESULT: -4.975543980      0.000      0.000
REMARK  3 active torsions:
REMARK  status: ('A' for Active; 'I' for Inactive)
REMARK    1  A    between atoms: C2_2  and  C3_3 
REMARK    2  A    between atoms: C3_3  and  N1_4 
REMARK    3  A    between atoms: N1_4  and  C4_6 
ROOT
HETATM    1  C4  UNL     1      19.167  -0.447  41.713  1.00  0.00     0.123 A 
HETATM    2  N2  UNL     1      18.916   0.876  41.658  1.00  0.00    -0.285 N 
ATOM      3  H2  UNL     1      18.657   1.386  40.813  1.00  0.00     0.188 HD
HETATM    4  N3  UNL     1      19.054   1.422  42.863  1.00  0.00    -0.303 N 
ATOM      5  H3  UNL     1      18.916   2.410  43.078  1.00  0.00     0.186 HD
HETATM    6  C5  UNL     1      19.402   0.478  43.758  1.00  0.00     0.031 A 
HETATM    7  C6  UNL     1      19.664   0.608  45.209  1.00  0.00     0.070 C 
HETATM    8  C7  UNL     1      19.473  -0.696  43.034  1.00  0.00     0.007 A 
HETATM    9  C8  UNL     1      19.827  -2.015  43.608  1.00  0.00     0.054 C 
ENDROOT
BRANCH   1  10
HETATM   10  N1  UNL     1      19.140  -1.322  40.764  1.00  0.00    -0.375 N 
ATOM     11  H1  UNL     1      18.313  -1.897  40.602  1.00  0.00     0.161 HD
BRANCH  10  12
HETATM   12  C3  UNL     1      20.312  -1.458  39.944  1.00  0.00     0.121 C 
BRANCH  12  13
HETATM   13  C2  UNL     1      21.003  -2.786  40.121  1.00  0.00     0.015 C 
HETATM   14  C1  UNL     1      22.452  -2.741  39.719  1.00  0.00     0.006 C 
ENDBRANCH  12  13
ENDBRANCH  10  12
ENDBRANCH   1  10
TORSDOF 3
ENDMDL
MODEL 2
REMARK VINA RESULT: -4.787907114      3.035      4.976
REMARK  3 active torsions:
REMARK  status: ('A' for Active; 'I' for Inactive)
REMARK    1  A    between atoms: C2_2  and  C3_3 
REMARK    2  A    between atoms: C3_3  and  N1_4 
REMARK    3  A    between atoms: N1_4  and  C4_6 
ROOT
HETATM    1  C4  UNL     1      21.924  -3.270  41.098  1.00  0.00     0.123 A 
HETATM    2  N2  UNL     1      22.698  -4.077  40.345  1.00  0.00    -0.285 N 
ATOM      3  H2  UNL     1      23.194  -3.790  39.502  1.00  0.00     0.188 HD
HETATM    4  N3  UNL     1      22.724  -5.304  40.862  1.00  0.00    -0.303 N 
ATOM      5  H3  UNL     1      23.242  -6.092  40.472  1.00  0.00     0.186 HD
HETATM    6  C5  UNL     1      21.967  -5.350  41.974  1.00  0.00     0.031 A 
HETATM    7  C6  UNL     1      21.696  -6.489  42.881  1.00  0.00     0.070 C 
HETATM    8  C7  UNL     1      21.465  -4.072  42.122  1.00  0.00     0.007 A 
HETATM    9  C8  UNL     1      20.568  -3.646  43.222  1.00  0.00     0.054 C 
ENDROOT
BRANCH   1  10
HETATM   10  N1  UNL     1      21.647  -2.021  40.933  1.00  0.00    -0.375 N 
ATOM     11  H1  UNL     1      22.046  -1.307  41.543  1.00  0.00     0.161 HD
BRANCH  10  12
HETATM   12  C3  UNL     1      20.758  -1.668  39.861  1.00  0.00     0.121 C 
BRANCH  12  13
HETATM   13  C2  UNL     1      19.402  -1.220  40.343  1.00  0.00     0.015 C 
HETATM   14  C1  UNL     1      19.472  -0.463  41.642  1.00  0.00     0.006 C 
ENDBRANCH  12  13
ENDBRANCH  10  12
ENDBRANCH   1  10
TORSDOF 3
ENDMDL
MODEL 3
REMARK VINA RESULT: -4.702513651      1.311      1.906
REMARK  3 active torsions:
REMARK  status: ('A' for Active; 'I' for Inactive)
REMARK    1  A    between atoms: C2_2  and  C3_3 
REMARK    2  A    between atoms: C3_3  and  N1_4 
REMARK    3  A    between atoms: N1_4  and  C4_6 
ROOT
HETATM    1  C4  UNL     1      19.887  -1.780  40.959  1.00  0.00     0.123 A 
HETATM    2  N2  UNL     1      18.746  -1.247  40.479  1.00  0.00    -0.285 N 
ATOM      3  H2  UNL     1      18.274  -1.549  39.626  1.00  0.00     0.188 HD
HETATM    4  N3  UNL     1      18.322  -0.270  41.277  1.00  0.00    -0.303 N 
ATOM      5  H3  UNL     1      17.479   0.285  41.126  1.00  0.00     0.186 HD
HETATM    6  C5  UNL     1      19.170  -0.123  42.313  1.00  0.00     0.031 A 
HETATM    7  C6  UNL     1      19.112   0.827  43.447  1.00  0.00     0.070 C 
HETATM    8  C7  UNL     1      20.152  -1.072  42.112  1.00  0.00     0.007 A 
HETATM    9  C8  UNL     1      21.310  -1.283  43.012  1.00  0.00     0.054 C 
ENDROOT
BRANCH   1  10
HETATM   10  N1  UNL     1      20.604  -2.739  40.478  1.00  0.00    -0.375 N 
ATOM     11  H1  UNL     1      20.411  -3.712  40.715  1.00  0.00     0.161 HD
BRANCH  10  12
HETATM   12  C3  UNL     1      21.683  -2.391  39.596  1.00  0.00     0.121 C 
BRANCH  12  13
HETATM   13  C2  UNL     1      23.024  -2.878  40.085  1.00  0.00     0.015 C 
HETATM   14  C1  UNL     1      22.919  -4.134  40.905  1.00  0.00     0.006 C 
ENDBRANCH  12  13
ENDBRANCH  10  12
ENDBRANCH   1  10
TORSDOF 3
ENDMDL
MODEL 4
REMARK VINA RESULT: -4.689662122      0.974      1.014
REMARK  3 active torsions:
REMARK  status: ('A' for Active; 'I' for Inactive)
REMARK    1  A    between atoms: C2_2  and  C3_3 
REMARK    2  A    between atoms: C3_3  and  N1_4 
REMARK    3  A    between atoms: N1_4  and  C4_6 
ROOT
HETATM    1  C4  UNL     1      18.988  -0.314  42.344  1.00  0.00     0.123 A 
HETATM    2  N2  UNL     1      19.071   0.991  42.018  1.00  0.00    -0.285 N 
ATOM      3  H2  UNL     1      19.216   1.349  41.074  1.00  0.00     0.188 HD
HETATM    4  N3  UNL     1      18.935   1.747  43.105  1.00  0.00    -0.303 N 
ATOM      5  H3  UNL     1      18.961   2.767  43.117  1.00  0.00     0.186 HD
HETATM    6  C5  UNL     1      18.758   0.966  44.188  1.00  0.00     0.031 A 
HETATM    7  C6  UNL     1      18.565   1.352  45.604  1.00  0.00     0.070 C 
HETATM    8  C7  UNL     1      18.792  -0.329  43.708  1.00  0.00     0.007 A 
HETATM    9  C8  UNL     1      18.638  -1.538  44.550  1.00  0.00     0.054 C 
ENDROOT
BRANCH   1  10
HETATM   10  N1  UNL     1      19.069  -1.351  41.579  1.00  0.00    -0.375 N 
ATOM     11  H1  UNL     1      18.235  -1.774  41.174  1.00  0.00     0.161 HD
BRANCH  10  12
HETATM   12  C3  UNL     1      20.376  -1.889  41.318  1.00  0.00     0.121 C 
BRANCH  12  13
HETATM   13  C2  UNL     1      20.794  -1.747  39.877  1.00  0.00     0.015 C 
HETATM   14  C1  UNL     1      22.005  -2.574  39.541  1.00  0.00     0.006 C 
ENDBRANCH  12  13
ENDBRANCH  10  12
ENDBRANCH   1  10
TORSDOF 3
ENDMDL
MODEL 5
REMARK VINA RESULT: -4.517259952      2.153      3.233
REMARK  3 active torsions:
REMARK  status: ('A' for Active; 'I' for Inactive)
REMARK    1  A    between atoms: C2_2  and  C3_3 
REMARK    2  A    between atoms: C3_3  and  N1_4 
REMARK    3  A    between atoms: N1_4  and  C4_6 
ROOT
HETATM    1  C4  UNL     1      20.091  -2.027  42.333  1.00  0.00     0.123 A 
HETATM    2  N2  UNL     1      19.126  -1.450  43.077  1.00  0.00    -0.285 N 
ATOM      3  H2  UNL     1      18.924  -1.679  44.050  1.00  0.00     0.188 HD
HETATM    4  N3  UNL     1      18.474  -0.539  42.358  1.00  0.00    -0.303 N 
ATOM      5  H3  UNL     1      17.701   0.032  42.700  1.00  0.00     0.186 HD
HETATM    6  C5  UNL     1      18.986  -0.483  41.115  1.00  0.00     0.031 A 
HETATM    7  C6  UNL     1      18.590   0.373  39.973  1.00  0.00     0.070 C 
HETATM    8  C7  UNL     1      20.002  -1.418  41.100  1.00  0.00     0.007 A 
HETATM    9  C8  UNL     1      20.856  -1.709  39.925  1.00  0.00     0.054 C 
ENDROOT
BRANCH   1  10
HETATM   10  N1  UNL     1      20.932  -2.949  42.663  1.00  0.00    -0.375 N 
ATOM     11  H1  UNL     1      21.874  -2.714  42.976  1.00  0.00     0.161 HD
BRANCH  10  12
HETATM   12  C3  UNL     1      20.497  -4.315  42.576  1.00  0.00     0.121 C 
BRANCH  12  13
HETATM   13  C2  UNL     1      21.636  -5.284  42.382  1.00  0.00     0.015 C 
HETATM   14  C1  UNL     1      22.492  -4.939  41.194  1.00  0.00     0.006 C 
ENDBRANCH  12  13
ENDBRANCH  10  12
ENDBRANCH   1  10
TORSDOF 3
ENDMDL
