MODEL 1
REMARK VINA RESULT: -5.168655782      0.000      0.000
REMARK  2 active torsions:
REMARK  status: ('A' for Active; 'I' for Inactive)
REMARK    1  A    between atoms: C4_4  and  C5_5 
REMARK    2  A    between atoms: C5_5  and  N1_6 
ROOT
HETATM    1  C1  UNL     1      18.776  -0.204  40.727  1.00  0.00     0.017 A 
HETATM    2  C2  UNL     1      19.576  -0.994  39.926  1.00  0.00     0.003 A 
HETATM    3  C3  UNL     1      20.724  -1.610  40.380  1.00  0.00     0.027 A 
HETATM    4  C4  UNL     1      21.076  -1.414  41.716  1.00  0.00     0.027 A 
HETATM    5  N3  UNL     1      20.298  -0.645  42.501  1.00  0.00    -0.368 N 
ATOM      6  H3  UNL     1      20.563  -0.508  43.477  1.00  0.00     0.165 HD
HETATM    7  C9  UNL     1      19.183  -0.053  42.040  1.00  0.00     0.088 A 
ENDROOT
BRANCH   4   8
HETATM    8  C5  UNL     1      22.307  -2.075  42.204  1.00  0.00     0.186 C 
BRANCH   8   9
HETATM    9  N1  UNL     1      22.371  -3.470  41.849  1.00  0.00    -0.346 N 
HETATM   10  C6  UNL     1      21.759  -4.488  42.480  1.00  0.00     0.109 A 
HETATM   11  C7  UNL     1      22.056  -5.672  41.850  1.00  0.00     0.106 A 
HETATM   12  N2  UNL     1      22.861  -5.364  40.822  1.00  0.00    -0.361 N 
HETATM   13  C8  UNL     1      23.041  -4.040  40.834  1.00  0.00     0.182 A 
ATOM     14  H2  UNL     1      23.263  -6.022  40.153  1.00  0.00     0.166 HD
ENDBRANCH   8   9
ENDBRANCH   4   8
TORSDOF 2
ENDMDL
MODEL 2
REMARK VINA RESULT: -4.964008296      1.106      1.233
REMARK  2 active torsions:
REMARK  status: ('A' for Active; 'I' for Inactive)
REMARK    1  A    between atoms: C4_4  and  C5_5 
REMARK    2  A    between atoms: C5_5  and  N1_6 
ROOT
HETATM    1  C1  UNL     1      19.233  -0.592  40.614  1.00  0.00     0.017 A 
HETATM    2  C2  UNL     1      20.059  -1.288  39.753  1.00  0.00     0.003 A 
HETATM    3  C3  UNL     1      21.161  -2.001  40.178  1.00  0.00     0.027 A 
HETATM    4  C4  UNL     1      21.437  -2.008  41.545  1.00  0.00     0.027 A 
HETATM    5  N3  UNL     1      20.634  -1.332  42.388  1.00  0.00    -0.368 N 
ATOM      6  H3  UNL     1      20.843  -1.344  43.386  1.00  0.00     0.165 HD
HETATM    7  C9  UNL     1      19.564  -0.642  41.955  1.00  0.00     0.088 A 
ENDROOT
BRANCH   4   8
HETATM    8  C5  UNL     1      22.619  -2.774  42.001  1.00  0.00     0.186 C 
BRANCH   8   9
HETATM    9  N1  UNL     1      22.280  -4.084  42.496  1.00  0.00    -0.346 N 
HETATM   10  C6  UNL     1      22.038  -4.421  43.776  1.00  0.00     0.109 A 
HETATM   11  C7  UNL     1      21.748  -5.760  43.857  1.00  0.00     0.106 A 
HETATM   12  N2  UNL     1      21.816  -6.242  42.606  1.00  0.00    -0.361 N 
HETATM   13  C8  UNL     1      22.136  -5.224  41.801  1.00  0.00     0.182 A 
ATOM     14  H2  UNL     1      21.653  -7.208  42.322  1.00  0.00     0.166 HD
ENDBRANCH   8   9
ENDBRANCH   4   8
TORSDOF 2
ENDMDL
MODEL 3
REMARK VINA RESULT: -4.915388178      2.066      3.012
REMARK  2 active torsions:
REMARK  status: ('A' for Active; 'I' for Inactive)
REMARK    1  A    between atoms: C4_4  and  C5_5 
REMARK    2  A    between atoms: C5_5  and  N1_6 
ROOT
HETATM    1  C1  UNL     1      20.546  -1.743  39.929  1.00  0.00     0.017 A 
HETATM    2  C2  UNL     1      21.830  -2.173  39.658  1.00  0.00     0.003 A 
HETATM    3  C3  UNL     1      22.334  -3.374  40.113  1.00  0.00     0.027 A 
HETATM    4  C4  UNL     1      21.492  -4.178  40.881  1.00  0.00     0.027 A 
HETATM    5  N3  UNL     1      20.240  -3.763  41.148  1.00  0.00    -0.368 N 
ATOM      6  H3  UNL     1      19.631  -4.358  41.710  1.00  0.00     0.165 HD
HETATM    7  C9  UNL     1      19.766  -2.589  40.696  1.00  0.00     0.088 A 
ENDROOT
BRANCH   4   8
HETATM    8  C5  UNL     1      22.034  -5.467  41.369  1.00  0.00     0.186 C 
BRANCH   8   9
HETATM    9  N1  UNL     1      21.901  -5.626  42.795  1.00  0.00    -0.346 N 
HETATM   10  C6  UNL     1      21.520  -6.739  43.447  1.00  0.00     0.109 A 
HETATM   11  C7  UNL     1      21.513  -6.506  44.800  1.00  0.00     0.106 A 
HETATM   12  N2  UNL     1      21.895  -5.231  44.969  1.00  0.00    -0.361 N 
HETATM   13  C8  UNL     1      22.124  -4.716  43.758  1.00  0.00     0.182 A 
ATOM     14  H2  UNL     1      21.992  -4.743  45.860  1.00  0.00     0.166 HD
ENDBRANCH   8   9
ENDBRANCH   4   8
TORSDOF 2
ENDMDL
MODEL 4
REMARK VINA RESULT: -4.907661641      1.286      1.600
REMARK  2 active torsions:
REMARK  status: ('A' for Active; 'I' for Inactive)
REMARK    1  A    between atoms: C4_4  and  C5_5 
REMARK    2  A    between atoms: C5_5  and  N1_6 
ROOT
HETATM    1  C1  UNL     1      19.287  -0.645  40.709  1.00  0.00     0.017 A 
HETATM    2  C2  UNL     1      20.086  -1.350  39.830  1.00  0.00     0.003 A 
HETATM    3  C3  UNL     1      21.184  -2.082  40.231  1.00  0.00     0.027 A 
HETATM    4  C4  UNL     1      21.486  -2.100  41.593  1.00  0.00     0.027 A 
HETATM    5  N3  UNL     1      20.709  -1.415  42.454  1.00  0.00    -0.368 N 
ATOM      6  H3  UNL     1      20.937  -1.435  43.448  1.00  0.00     0.165 HD
HETATM    7  C9  UNL     1      19.643  -0.707  42.044  1.00  0.00     0.088 A 
ENDROOT
BRANCH   4   8
HETATM    8  C5  UNL     1      22.664  -2.887  42.023  1.00  0.00     0.186 C 
BRANCH   8   9
HETATM    9  N1  UNL     1      22.306  -4.138  42.641  1.00  0.00    -0.346 N 
HETATM   10  C6  UNL     1      22.052  -5.300  42.013  1.00  0.00     0.109 A 
HETATM   11  C7  UNL     1      21.746  -6.270  42.936  1.00  0.00     0.106 A 
HETATM   12  N2  UNL     1      21.816  -5.685  44.141  1.00  0.00    -0.361 N 
HETATM   13  C8  UNL     1      22.153  -4.406  43.949  1.00  0.00     0.182 A 
ATOM     14  H2  UNL     1      21.643  -6.134  45.041  1.00  0.00     0.166 HD
ENDBRANCH   8   9
ENDBRANCH   4   8
TORSDOF 2
ENDMDL
MODEL 5
REMARK VINA RESULT: -4.862554643      1.527      4.797
REMARK  2 active torsions:
REMARK  status: ('A' for Active; 'I' for Inactive)
REMARK    1  A    between atoms: C4_4  and  C5_5 
REMARK    2  A    between atoms: C5_5  and  N1_6 
ROOT
HETATM    1  C1  UNL     1      23.237  -4.085  40.630  1.00  0.00     0.017 A 
HETATM    2  C2  UNL     1      22.967  -2.933  39.918  1.00  0.00     0.003 A 
HETATM    3  C3  UNL     1      21.724  -2.336  39.894  1.00  0.00     0.027 A 
HETATM    4  C4  UNL     1      20.704  -2.937  40.632  1.00  0.00     0.027 A 
HETATM    5  N3  UNL     1      20.963  -4.059  41.329  1.00  0.00    -0.368 N 
ATOM      6  H3  UNL     1      20.211  -4.492  41.866  1.00  0.00     0.165 HD
HETATM    7  C9  UNL     1      22.181  -4.628  41.340  1.00  0.00     0.088 A 
ENDROOT
BRANCH   4   8
HETATM    8  C5  UNL     1      19.371  -2.295  40.607  1.00  0.00     0.186 C 
BRANCH   8   9
HETATM    9  N1  UNL     1      19.290  -1.140  41.465  1.00  0.00    -0.346 N 
HETATM   10  C6  UNL     1      19.528  -1.105  42.788  1.00  0.00     0.109 A 
HETATM   11  C7  UNL     1      19.350   0.173  43.258  1.00  0.00     0.106 A 
HETATM   12  N2  UNL     1      18.998   0.922  42.202  1.00  0.00    -0.361 N 
HETATM   13  C8  UNL     1      18.966   0.121  41.134  1.00  0.00     0.182 A 
ATOM     14  H2  UNL     1      18.792   1.922  42.213  1.00  0.00     0.166 HD
ENDBRANCH   8   9
ENDBRANCH   4   8
TORSDOF 2
ENDMDL
