MODEL 1
REMARK VINA RESULT: -6.050081443      0.000      0.000
REMARK  8 active torsions:
REMARK  status: ('A' for Active; 'I' for Inactive)
REMARK    1  A    between atoms: N1_6  and  C6_7 
REMARK    2  A    between atoms: C6_7  and  C7_8 
REMARK    3  A    between atoms: C7_8  and  C8_9 
REMARK    4  A    between atoms: C8_9  and  N2_10 
REMARK       I    between atoms: N2_10  and  C9_12 
REMARK       I    between atoms: C9_12  and  N3_14 
REMARK    5  A    between atoms: N3_14  and  C10_16 
REMARK    6  A    between atoms: C10_16  and  C11_17 
REMARK    7  A    between atoms: C11_17  and  C12_18 
REMARK    8  A    between atoms: C12_18  and  C13_19 
ROOT
HETATM    1  N2  UNL     1      33.774  10.828  12.024  1.00  0.00    -0.323 N 
ATOM      2  H2  UNL     1      32.931  11.384  12.168  1.00  0.00     0.169 HD
HETATM    3  C9  UNL     1      34.436  10.486  13.197  1.00  0.00     0.319 C 
HETATM    4  O1  UNL     1      35.474   9.780  13.322  1.00  0.00    -0.247 OA
HETATM    5  N3  UNL     1      33.910  10.977  14.455  1.00  0.00    -0.343 N 
ATOM      6  H3  UNL     1      33.055  11.533  14.434  1.00  0.00     0.164 HD
ENDROOT
BRANCH   1   7
HETATM    7  C8  UNL     1      34.055  10.549  10.677  1.00  0.00     0.067 C 
BRANCH   7   8
HETATM    8  C7  UNL     1      34.741  11.553   9.860  1.00  0.00     0.075 C 
BRANCH   8   9
HETATM    9  C6  UNL     1      36.203  11.748   9.957  1.00  0.00     0.277 C 
BRANCH   9  10
HETATM   10  N1  UNL     1      36.482  13.094  10.452  1.00  0.00     0.089 N 
HETATM   11  C5  UNL     1      37.340  13.065  11.581  1.00  0.00     0.272 C 
HETATM   12  C4  UNL     1      36.505  13.159  12.834  1.00  0.00     0.031 C 
HETATM   13  C3  UNL     1      36.025  14.603  12.851  1.00  0.00     0.007 C 
HETATM   14  C2  UNL     1      35.211  14.900  11.623  1.00  0.00     0.010 C 
HETATM   15  C1  UNL     1      35.635  16.239  11.071  1.00  0.00     0.011 C 
HETATM   16  C18 UNL     1      35.286  13.876  10.561  1.00  0.00     0.276 C 
ENDBRANCH   9  10
ENDBRANCH   8   9
ENDBRANCH   7   8
ENDBRANCH   1   7
BRANCH   5  17
HETATM   17  C10 UNL     1      34.523  10.725  15.728  1.00  0.00     0.124 C 
BRANCH  17  18
HETATM   18  C11 UNL     1      35.417  11.852  16.103  1.00  0.00     0.020 C 
BRANCH  18  19
HETATM   19  C12 UNL     1      35.272  12.302  17.546  1.00  0.00     0.006 C 
BRANCH  19  20
HETATM   20  C13 UNL     1      36.163  13.485  17.823  1.00  0.00    -0.014 C 
HETATM   21  C14 UNL     1      36.755  13.993  16.533  1.00  0.00     0.004 C 
HETATM   22  C15 UNL     1      37.150  15.416  16.875  1.00  0.00     0.000 C 
HETATM   23  C16 UNL     1      36.472  15.781  18.159  1.00  0.00     0.000 C 
HETATM   24  C17 UNL     1      35.425  14.680  18.352  1.00  0.00     0.004 C 
ENDBRANCH  19  20
ENDBRANCH  18  19
ENDBRANCH  17  18
ENDBRANCH   5  17
TORSDOF 8
ENDMDL
MODEL 2
REMARK VINA RESULT: -5.649402551      4.481      7.204
REMARK  8 active torsions:
REMARK  status: ('A' for Active; 'I' for Inactive)
REMARK    1  A    between atoms: N1_6  and  C6_7 
REMARK    2  A    between atoms: C6_7  and  C7_8 
REMARK    3  A    between atoms: C7_8  and  C8_9 
REMARK    4  A    between atoms: C8_9  and  N2_10 
REMARK       I    between atoms: N2_10  and  C9_12 
REMARK       I    between atoms: C9_12  and  N3_14 
REMARK    5  A    between atoms: N3_14  and  C10_16 
REMARK    6  A    between atoms: C10_16  and  C11_17 
REMARK    7  A    between atoms: C11_17  and  C12_18 
REMARK    8  A    between atoms: C12_18  and  C13_19 
ROOT
HETATM    1  N2  UNL     1      34.913  13.064  19.463  1.00  0.00    -0.323 N 
ATOM      2  H2  UNL     1      34.358  13.694  20.042  1.00  0.00     0.169 HD
HETATM    3  C9  UNL     1      34.841  11.730  19.845  1.00  0.00     0.319 C 
HETATM    4  O1  UNL     1      35.390  10.738  19.294  1.00  0.00    -0.247 OA
HETATM    5  N3  UNL     1      34.055  11.388  21.013  1.00  0.00    -0.343 N 
ATOM      6  H3  UNL     1      33.560  12.138  21.496  1.00  0.00     0.164 HD
ENDROOT
BRANCH   1   7
HETATM    7  C8  UNL     1      35.611  13.704  18.426  1.00  0.00     0.067 C 
BRANCH   7   8
HETATM    8  C7  UNL     1      35.289  13.381  17.035  1.00  0.00     0.075 C 
BRANCH   8   9
HETATM    9  C6  UNL     1      36.303  13.507  15.966  1.00  0.00     0.277 C 
BRANCH   9  10
HETATM   10  N1  UNL     1      36.363  12.261  15.204  1.00  0.00     0.089 N 
HETATM   11  C5  UNL     1      36.059  12.475  13.835  1.00  0.00     0.272 C 
HETATM   12  C4  UNL     1      34.608  12.137  13.597  1.00  0.00     0.031 C 
HETATM   13  C3  UNL     1      34.561  10.619  13.689  1.00  0.00     0.007 C 
HETATM   14  C2  UNL     1      35.019  10.161  15.045  1.00  0.00     0.010 C 
HETATM   15  C1  UNL     1      35.954   8.989  14.872  1.00  0.00     0.011 C 
HETATM   16  C18 UNL     1      35.669  11.200  15.870  1.00  0.00     0.276 C 
ENDBRANCH   9  10
ENDBRANCH   8   9
ENDBRANCH   7   8
ENDBRANCH   1   7
BRANCH   5  17
HETATM   17  C10 UNL     1      33.934  10.054  21.530  1.00  0.00     0.124 C 
BRANCH  17  18
HETATM   18  C11 UNL     1      32.505   9.720  21.767  1.00  0.00     0.020 C 
BRANCH  18  19
HETATM   19  C12 UNL     1      31.779   9.201  20.538  1.00  0.00     0.006 C 
BRANCH  19  20
HETATM   20  C13 UNL     1      31.732   7.695  20.548  1.00  0.00    -0.014 C 
HETATM   21  C14 UNL     1      30.477   7.219  19.862  1.00  0.00     0.004 C 
HETATM   22  C15 UNL     1      30.815   5.791  19.481  1.00  0.00     0.000 C 
HETATM   23  C16 UNL     1      32.297   5.623  19.617  1.00  0.00     0.000 C 
HETATM   24  C17 UNL     1      32.823   7.057  19.740  1.00  0.00     0.004 C 
ENDBRANCH  19  20
ENDBRANCH  18  19
ENDBRANCH  17  18
ENDBRANCH   5  17
TORSDOF 8
ENDMDL
MODEL 3
REMARK VINA RESULT: -5.584121158      4.454      7.091
REMARK  8 active torsions:
REMARK  status: ('A' for Active; 'I' for Inactive)
REMARK    1  A    between atoms: N1_6  and  C6_7 
REMARK    2  A    between atoms: C6_7  and  C7_8 
REMARK    3  A    between atoms: C7_8  and  C8_9 
REMARK    4  A    between atoms: C8_9  and  N2_10 
REMARK       I    between atoms: N2_10  and  C9_12 
REMARK       I    between atoms: C9_12  and  N3_14 
REMARK    5  A    between atoms: N3_14  and  C10_16 
REMARK    6  A    between atoms: C10_16  and  C11_17 
REMARK    7  A    between atoms: C11_17  and  C12_18 
REMARK    8  A    between atoms: C12_18  and  C13_19 
ROOT
HETATM    1  N2  UNL     1      35.084  13.249  19.289  1.00  0.00    -0.323 N 
ATOM      2  H2  UNL     1      34.402  13.846  19.756  1.00  0.00     0.169 HD
HETATM    3  C9  UNL     1      35.050  11.921  19.698  1.00  0.00     0.319 C 
HETATM    4  O1  UNL     1      35.747  10.962  19.268  1.00  0.00    -0.247 OA
HETATM    5  N3  UNL     1      34.119  11.544  20.742  1.00  0.00    -0.343 N 
ATOM      6  H3  UNL     1      33.502  12.263  21.119  1.00  0.00     0.164 HD
ENDROOT
BRANCH   1   7
HETATM    7  C8  UNL     1      35.887  13.918  18.351  1.00  0.00     0.067 C 
BRANCH   7   8
HETATM    8  C7  UNL     1      35.951  13.423  16.975  1.00  0.00     0.075 C 
BRANCH   8   9
HETATM    9  C6  UNL     1      34.722  13.089  16.224  1.00  0.00     0.277 C 
BRANCH   9  10
HETATM   10  N1  UNL     1      35.079  12.378  14.998  1.00  0.00     0.089 N 
HETATM   11  C5  UNL     1      34.366  11.158  14.879  1.00  0.00     0.272 C 
HETATM   12  C4  UNL     1      35.240  10.029  15.370  1.00  0.00     0.031 C 
HETATM   13  C3  UNL     1      36.293   9.877  14.282  1.00  0.00     0.007 C 
HETATM   14  C2  UNL     1      37.073  11.151  14.124  1.00  0.00     0.010 C 
HETATM   15  C1  UNL     1      37.230  11.448  12.653  1.00  0.00     0.011 C 
HETATM   16  C18 UNL     1      36.499  12.326  14.812  1.00  0.00     0.276 C 
ENDBRANCH   9  10
ENDBRANCH   8   9
ENDBRANCH   7   8
ENDBRANCH   1   7
BRANCH   5  17
HETATM   17  C10 UNL     1      34.015  10.216  21.276  1.00  0.00     0.124 C 
BRANCH  17  18
HETATM   18  C11 UNL     1      32.597   9.890  21.581  1.00  0.00     0.020 C 
BRANCH  18  19
HETATM   19  C12 UNL     1      31.833   9.297  20.411  1.00  0.00     0.006 C 
BRANCH  19  20
HETATM   20  C13 UNL     1      31.726   7.801  20.553  1.00  0.00    -0.014 C 
HETATM   21  C14 UNL     1      30.440   7.319  19.931  1.00  0.00     0.004 C 
HETATM   22  C15 UNL     1      30.715   5.851  19.671  1.00  0.00     0.000 C 
HETATM   23  C16 UNL     1      32.191   5.634  19.797  1.00  0.00     0.000 C 
HETATM   24  C17 UNL     1      32.776   7.051  19.786  1.00  0.00     0.004 C 
ENDBRANCH  19  20
ENDBRANCH  18  19
ENDBRANCH  17  18
ENDBRANCH   5  17
TORSDOF 8
ENDMDL
MODEL 4
REMARK VINA RESULT: -5.570577849      2.575      4.548
REMARK  8 active torsions:
REMARK  status: ('A' for Active; 'I' for Inactive)
REMARK    1  A    between atoms: N1_6  and  C6_7 
REMARK    2  A    between atoms: C6_7  and  C7_8 
REMARK    3  A    between atoms: C7_8  and  C8_9 
REMARK    4  A    between atoms: C8_9  and  N2_10 
REMARK       I    between atoms: N2_10  and  C9_12 
REMARK       I    between atoms: C9_12  and  N3_14 
REMARK    5  A    between atoms: N3_14  and  C10_16 
REMARK    6  A    between atoms: C10_16  and  C11_17 
REMARK    7  A    between atoms: C11_17  and  C12_18 
REMARK    8  A    between atoms: C12_18  and  C13_19 
ROOT
HETATM    1  N2  UNL     1      36.967  13.539  12.773  1.00  0.00    -0.323 N 
ATOM      2  H2  UNL     1      37.957  13.704  12.957  1.00  0.00     0.169 HD
HETATM    3  C9  UNL     1      36.153  13.653  13.893  1.00  0.00     0.319 C 
HETATM    4  O1  UNL     1      34.899  13.539  13.951  1.00  0.00    -0.247 OA
HETATM    5  N3  UNL     1      36.773  13.935  15.171  1.00  0.00    -0.343 N 
ATOM      6  H3  UNL     1      37.785  14.067  15.196  1.00  0.00     0.164 HD
ENDROOT
BRANCH   1   7
HETATM    7  C8  UNL     1      36.677  13.237  11.432  1.00  0.00     0.067 C 
BRANCH   7   8
HETATM    8  C7  UNL     1      36.982  11.903  10.911  1.00  0.00     0.075 C 
BRANCH   8   9
HETATM    9  C6  UNL     1      35.950  10.845  10.868  1.00  0.00     0.277 C 
BRANCH   9  10
HETATM   10  N1  UNL     1      36.307   9.780  11.803  1.00  0.00     0.089 N 
HETATM   11  C5  UNL     1      35.193   9.381  12.585  1.00  0.00     0.272 C 
HETATM   12  C4  UNL     1      35.251  10.087  13.917  1.00  0.00     0.031 C 
HETATM   13  C3  UNL     1      36.398   9.406  14.648  1.00  0.00     0.007 C 
HETATM   14  C2  UNL     1      37.680   9.570  13.880  1.00  0.00     0.010 C 
HETATM   15  C1  UNL     1      38.407   8.247  13.860  1.00  0.00     0.011 C 
HETATM   16  C18 UNL     1      37.523  10.074  12.501  1.00  0.00     0.276 C 
ENDBRANCH   9  10
ENDBRANCH   8   9
ENDBRANCH   7   8
ENDBRANCH   1   7
BRANCH   5  17
HETATM   17  C10 UNL     1      36.047  14.038  16.405  1.00  0.00     0.124 C 
BRANCH  17  18
HETATM   18  C11 UNL     1      36.023  12.725  17.103  1.00  0.00     0.020 C 
BRANCH  18  19
HETATM   19  C12 UNL     1      35.570  12.803  18.550  1.00  0.00     0.006 C 
BRANCH  19  20
HETATM   20  C13 UNL     1      35.058  11.465  19.016  1.00  0.00    -0.014 C 
HETATM   21  C14 UNL     1      34.898  10.539  17.837  1.00  0.00     0.004 C 
HETATM   22  C15 UNL     1      34.912   9.165  18.477  1.00  0.00     0.000 C 
HETATM   23  C16 UNL     1      35.425   9.319  19.875  1.00  0.00     0.000 C 
HETATM   24  C17 UNL     1      36.023  10.729  19.898  1.00  0.00     0.004 C 
ENDBRANCH  19  20
ENDBRANCH  18  19
ENDBRANCH  17  18
ENDBRANCH   5  17
TORSDOF 8
ENDMDL
MODEL 5
REMARK VINA RESULT: -5.543876363      5.903      9.707
REMARK  8 active torsions:
REMARK  status: ('A' for Active; 'I' for Inactive)
REMARK    1  A    between atoms: N1_6  and  C6_7 
REMARK    2  A    between atoms: C6_7  and  C7_8 
REMARK    3  A    between atoms: C7_8  and  C8_9 
REMARK    4  A    between atoms: C8_9  and  N2_10 
REMARK       I    between atoms: N2_10  and  C9_12 
REMARK       I    between atoms: C9_12  and  N3_14 
REMARK    5  A    between atoms: N3_14  and  C10_16 
REMARK    6  A    between atoms: C10_16  and  C11_17 
REMARK    7  A    between atoms: C11_17  and  C12_18 
REMARK    8  A    between atoms: C12_18  and  C13_19 
ROOT
HETATM    1  N2  UNL     1      34.498   9.812  22.889  1.00  0.00    -0.323 N 
ATOM      2  H2  UNL     1      35.484   9.560  22.826  1.00  0.00     0.169 HD
HETATM    3  C9  UNL     1      34.017  10.507  21.786  1.00  0.00     0.319 C 
HETATM    4  O1  UNL     1      32.839  10.908  21.580  1.00  0.00    -0.247 OA
HETATM    5  N3  UNL     1      34.941  10.836  20.720  1.00  0.00    -0.343 N 
ATOM      6  H3  UNL     1      35.906  10.520  20.807  1.00  0.00     0.164 HD
ENDROOT
BRANCH   1   7
HETATM    7  C8  UNL     1      33.874   9.393  24.076  1.00  0.00     0.067 C 
BRANCH   7   8
HETATM    8  C7  UNL     1      32.817   8.382  24.016  1.00  0.00     0.075 C 
BRANCH   8   9
HETATM    9  C6  UNL     1      33.135   6.956  23.786  1.00  0.00     0.277 C 
BRANCH   9  10
HETATM   10  N1  UNL     1      32.580   6.536  22.501  1.00  0.00     0.089 N 
HETATM   11  C5  UNL     1      33.568   5.936  21.680  1.00  0.00     0.272 C 
HETATM   12  C4  UNL     1      34.096   6.969  20.714  1.00  0.00     0.031 C 
HETATM   13  C3  UNL     1      32.956   7.168  19.726  1.00  0.00     0.007 C 
HETATM   14  C2  UNL     1      31.725   7.656  20.437  1.00  0.00     0.010 C 
HETATM   15  C1  UNL     1      30.530   6.892  19.920  1.00  0.00     0.011 C 
HETATM   16  C18 UNL     1      31.776   7.565  21.910  1.00  0.00     0.276 C 
ENDBRANCH   9  10
ENDBRANCH   8   9
ENDBRANCH   7   8
ENDBRANCH   1   7
BRANCH   5  17
HETATM   17  C10 UNL     1      34.575  11.582  19.550  1.00  0.00     0.124 C 
BRANCH  17  18
HETATM   18  C11 UNL     1      35.781  12.187  18.925  1.00  0.00     0.020 C 
BRANCH  18  19
HETATM   19  C12 UNL     1      35.632  12.469  17.440  1.00  0.00     0.006 C 
BRANCH  19  20
HETATM   20  C13 UNL     1      35.836  13.934  17.156  1.00  0.00    -0.014 C 
HETATM   21  C14 UNL     1      35.784  14.717  18.444  1.00  0.00     0.004 C 
HETATM   22  C15 UNL     1      36.508  16.001  18.093  1.00  0.00     0.000 C 
HETATM   23  C16 UNL     1      37.237  15.776  16.805  1.00  0.00     0.000 C 
HETATM   24  C17 UNL     1      37.199  14.256  16.618  1.00  0.00     0.004 C 
ENDBRANCH  19  20
ENDBRANCH  18  19
ENDBRANCH  17  18
ENDBRANCH   5  17
TORSDOF 8
ENDMDL
