MODEL 1
REMARK VINA RESULT: -5.791776466      0.000      0.000
REMARK  8 active torsions:
REMARK  status: ('A' for Active; 'I' for Inactive)
REMARK    1  A    between atoms: C1_2  and  C2_4 
REMARK    2  A    between atoms: C2_4  and  C3_5 
REMARK    3  A    between atoms: C3_5  and  C4_6 
REMARK    4  A    between atoms: C4_6  and  C5_7 
REMARK    5  A    between atoms: C5_7  and  C6_8 
REMARK    6  A    between atoms: C6_8  and  C7_9 
REMARK    7  A    between atoms: C7_9  and  C8_10 
REMARK       I    between atoms: C8_10  and  N1_12 
REMARK    8  A    between atoms: N1_12  and  C9_14 
ROOT
HETATM    1  C8  UNL     1      35.669   8.615  16.852  1.00  0.00     0.217 C 
HETATM    2  O3  UNL     1      36.123   7.704  16.137  1.00  0.00    -0.274 OA
HETATM    3  N1  UNL     1      35.268   9.834  16.261  1.00  0.00    -0.356 N 
ATOM      4  H1  UNL     1      34.900  10.563  16.872  1.00  0.00     0.162 HD
ENDROOT
BRANCH   3   5
HETATM    5  C9  UNL     1      35.347  10.107  14.857  1.00  0.00     0.092 C 
HETATM    6  C10 UNL     1      34.121  10.885  14.441  1.00  0.00     0.009 C 
HETATM    7  C11 UNL     1      34.057  10.922  12.918  1.00  0.00     0.011 C 
HETATM    8  C15 UNL     1      34.174  12.256  15.024  1.00  0.00     0.011 C 
HETATM    9  C12 UNL     1      35.282  11.614  12.415  1.00  0.00    -0.013 C 
HETATM   10  C13 UNL     1      35.235  13.045  12.922  1.00  0.00     0.009 C 
HETATM   11  C18 UNL     1      36.509  10.897  12.887  1.00  0.00     0.011 C 
HETATM   12  C14 UNL     1      35.341  13.002  14.422  1.00  0.00    -0.013 C 
HETATM   13  C16 UNL     1      36.594  12.295  14.860  1.00  0.00     0.011 C 
HETATM   14  C17 UNL     1      36.553  10.863  14.421  1.00  0.00     0.009 C 
ENDBRANCH   3   5
BRANCH   1  15
HETATM   15  C7  UNL     1      35.552   8.422  18.305  1.00  0.00     0.103 C 
BRANCH  15  16
HETATM   16  C6  UNL     1      34.651   9.511  18.925  1.00  0.00     0.009 C 
BRANCH  16  17
HETATM   17  C5  UNL     1      35.505  10.585  19.540  1.00  0.00     0.000 C 
BRANCH  17  18
HETATM   18  C4  UNL     1      34.945  11.936  19.216  1.00  0.00     0.001 C 
BRANCH  18  19
HETATM   19  C3  UNL     1      35.927  12.750  18.465  1.00  0.00     0.010 C 
BRANCH  19  20
HETATM   20  C2  UNL     1      35.406  14.091  18.015  1.00  0.00     0.113 C 
BRANCH  20  21
HETATM   21  C1  UNL     1      36.383  15.157  17.901  1.00  0.00     0.172 C 
HETATM   22  O1  UNL     1      36.283  16.116  18.725  1.00  0.00    -0.648 OA
HETATM   23  O2  UNL     1      37.424  15.261  16.996  1.00  0.00    -0.648 OA
ENDBRANCH  20  21
ENDBRANCH  19  20
ENDBRANCH  18  19
ENDBRANCH  17  18
ENDBRANCH  16  17
ENDBRANCH  15  16
ENDBRANCH   1  15
TORSDOF 8
ENDMDL
MODEL 2
REMARK VINA RESULT: -5.679285852      2.226      3.585
REMARK  8 active torsions:
REMARK  status: ('A' for Active; 'I' for Inactive)
REMARK    1  A    between atoms: C1_2  and  C2_4 
REMARK    2  A    between atoms: C2_4  and  C3_5 
REMARK    3  A    between atoms: C3_5  and  C4_6 
REMARK    4  A    between atoms: C4_6  and  C5_7 
REMARK    5  A    between atoms: C5_7  and  C6_8 
REMARK    6  A    between atoms: C6_8  and  C7_9 
REMARK    7  A    between atoms: C7_9  and  C8_10 
REMARK       I    between atoms: C8_10  and  N1_12 
REMARK    8  A    between atoms: N1_12  and  C9_14 
ROOT
HETATM    1  C8  UNL     1      34.414  11.873  14.442  1.00  0.00     0.217 C 
HETATM    2  O3  UNL     1      34.088  12.943  14.986  1.00  0.00    -0.274 OA
HETATM    3  N1  UNL     1      34.783  11.866  13.079  1.00  0.00    -0.356 N 
ATOM      4  H1  UNL     1      35.045  10.974  12.659  1.00  0.00     0.162 HD
ENDROOT
BRANCH   3   5
HETATM    5  C9  UNL     1      34.812  13.035  12.251  1.00  0.00     0.092 C 
HETATM    6  C10 UNL     1      36.107  13.773  12.492  1.00  0.00     0.009 C 
HETATM    7  C11 UNL     1      36.015  15.150  11.844  1.00  0.00     0.011 C 
HETATM    8  C15 UNL     1      37.246  12.982  11.947  1.00  0.00     0.011 C 
HETATM    9  C12 UNL     1      35.813  14.963  10.375  1.00  0.00    -0.013 C 
HETATM   10  C13 UNL     1      37.052  14.270   9.832  1.00  0.00     0.009 C 
HETATM   11  C18 UNL     1      34.573  14.163  10.123  1.00  0.00     0.011 C 
HETATM   12  C14 UNL     1      37.111  12.897  10.444  1.00  0.00    -0.013 C 
HETATM   13  C16 UNL     1      35.861  12.115  10.153  1.00  0.00     0.011 C 
HETATM   14  C17 UNL     1      34.680  12.784  10.789  1.00  0.00     0.009 C 
ENDBRANCH   3   5
BRANCH   1  15
HETATM   15  C7  UNL     1      34.414  10.623  15.216  1.00  0.00     0.103 C 
BRANCH  15  16
HETATM   16  C6  UNL     1      35.455  10.690  16.353  1.00  0.00     0.009 C 
BRANCH  16  17
HETATM   17  C5  UNL     1      34.769  10.512  17.680  1.00  0.00     0.000 C 
BRANCH  17  18
HETATM   18  C4  UNL     1      35.188  11.596  18.626  1.00  0.00     0.001 C 
BRANCH  18  19
HETATM   19  C3  UNL     1      35.937  12.658  17.917  1.00  0.00     0.010 C 
BRANCH  19  20
HETATM   20  C2  UNL     1      35.404  14.049  18.143  1.00  0.00     0.113 C 
BRANCH  20  21
HETATM   21  C1  UNL     1      36.350  15.136  17.980  1.00  0.00     0.172 C 
HETATM   22  O1  UNL     1      36.247  16.111  18.785  1.00  0.00    -0.648 OA
HETATM   23  O2  UNL     1      37.365  15.245  17.046  1.00  0.00    -0.648 OA
ENDBRANCH  20  21
ENDBRANCH  19  20
ENDBRANCH  18  19
ENDBRANCH  17  18
ENDBRANCH  16  17
ENDBRANCH  15  16
ENDBRANCH   1  15
TORSDOF 8
ENDMDL
MODEL 3
REMARK VINA RESULT: -5.623416668      2.168      3.275
REMARK  8 active torsions:
REMARK  status: ('A' for Active; 'I' for Inactive)
REMARK    1  A    between atoms: C1_2  and  C2_4 
REMARK    2  A    between atoms: C2_4  and  C3_5 
REMARK    3  A    between atoms: C3_5  and  C4_6 
REMARK    4  A    between atoms: C4_6  and  C5_7 
REMARK    5  A    between atoms: C5_7  and  C6_8 
REMARK    6  A    between atoms: C6_8  and  C7_9 
REMARK    7  A    between atoms: C7_9  and  C8_10 
REMARK       I    between atoms: C8_10  and  N1_12 
REMARK    8  A    between atoms: N1_12  and  C9_14 
ROOT
HETATM    1  C8  UNL     1      34.416  11.366  14.632  1.00  0.00     0.217 C 
HETATM    2  O3  UNL     1      33.293  10.951  14.298  1.00  0.00    -0.274 OA
HETATM    3  N1  UNL     1      35.192  12.103  13.711  1.00  0.00    -0.356 N 
ATOM      4  H1  UNL     1      36.110  12.431  14.012  1.00  0.00     0.162 HD
ENDROOT
BRANCH   3   5
HETATM    5  C9  UNL     1      34.769  12.417  12.378  1.00  0.00     0.092 C 
HETATM    6  C10 UNL     1      34.942  13.899  12.147  1.00  0.00     0.009 C 
HETATM    7  C11 UNL     1      34.229  14.280  10.854  1.00  0.00     0.011 C 
HETATM    8  C15 UNL     1      36.393  14.234  12.095  1.00  0.00     0.011 C 
HETATM    9  C12 UNL     1      34.858  13.523   9.731  1.00  0.00    -0.013 C 
HETATM   10  C13 UNL     1      36.302  13.987   9.626  1.00  0.00     0.009 C 
HETATM   11  C18 UNL     1      34.765  12.051   9.986  1.00  0.00     0.011 C 
HETATM   12  C14 UNL     1      37.008  13.569  10.886  1.00  0.00    -0.013 C 
HETATM   13  C16 UNL     1      36.913  12.084  11.099  1.00  0.00     0.011 C 
HETATM   14  C17 UNL     1      35.481  11.687  11.294  1.00  0.00     0.009 C 
ENDBRANCH   3   5
BRANCH   1  15
HETATM   15  C7  UNL     1      34.931  11.091  15.981  1.00  0.00     0.103 C 
BRANCH  15  16
HETATM   16  C6  UNL     1      35.230  12.410  16.727  1.00  0.00     0.009 C 
BRANCH  16  17
HETATM   17  C5  UNL     1      35.230  12.164  18.211  1.00  0.00     0.000 C 
BRANCH  17  18
HETATM   18  C4  UNL     1      35.796  13.351  18.929  1.00  0.00     0.001 C 
BRANCH  18  19
HETATM   19  C3  UNL     1      35.326  14.613  18.317  1.00  0.00     0.010 C 
BRANCH  19  20
HETATM   20  C2  UNL     1      36.373  15.695  18.245  1.00  0.00     0.113 C 
BRANCH  20  21
HETATM   21  C1  UNL     1      37.206  15.708  17.058  1.00  0.00     0.172 C 
HETATM   22  O1  UNL     1      37.368  16.828  16.485  1.00  0.00    -0.648 OA
HETATM   23  O2  UNL     1      37.856  14.640  16.465  1.00  0.00    -0.648 OA
ENDBRANCH  20  21
ENDBRANCH  19  20
ENDBRANCH  18  19
ENDBRANCH  17  18
ENDBRANCH  16  17
ENDBRANCH  15  16
ENDBRANCH   1  15
TORSDOF 8
ENDMDL
MODEL 4
REMARK VINA RESULT: -5.607238808      3.138      6.536
REMARK  8 active torsions:
REMARK  status: ('A' for Active; 'I' for Inactive)
REMARK    1  A    between atoms: C1_2  and  C2_4 
REMARK    2  A    between atoms: C2_4  and  C3_5 
REMARK    3  A    between atoms: C3_5  and  C4_6 
REMARK    4  A    between atoms: C4_6  and  C5_7 
REMARK    5  A    between atoms: C5_7  and  C6_8 
REMARK    6  A    between atoms: C6_8  and  C7_9 
REMARK    7  A    between atoms: C7_9  and  C8_10 
REMARK       I    between atoms: C8_10  and  N1_12 
REMARK    8  A    between atoms: N1_12  and  C9_14 
ROOT
HETATM    1  C8  UNL     1      34.776  10.465  18.758  1.00  0.00     0.217 C 
HETATM    2  O3  UNL     1      34.523  10.100  17.596  1.00  0.00    -0.274 OA
HETATM    3  N1  UNL     1      34.093   9.871  19.842  1.00  0.00    -0.356 N 
ATOM      4  H1  UNL     1      34.320  10.190  20.784  1.00  0.00     0.162 HD
ENDROOT
BRANCH   3   5
HETATM    5  C9  UNL     1      33.102   8.846  19.699  1.00  0.00     0.092 C 
HETATM    6  C10 UNL     1      33.736   7.508  19.995  1.00  0.00     0.009 C 
HETATM    7  C11 UNL     1      32.776   6.404  19.565  1.00  0.00     0.011 C 
HETATM    8  C15 UNL     1      34.065   7.417  21.446  1.00  0.00     0.011 C 
HETATM    9  C12 UNL     1      31.516   6.545  20.354  1.00  0.00    -0.013 C 
HETATM   10  C13 UNL     1      31.869   6.317  21.815  1.00  0.00     0.009 C 
HETATM   11  C18 UNL     1      30.917   7.899  20.132  1.00  0.00     0.011 C 
HETATM   12  C14 UNL     1      32.782   7.434  22.243  1.00  0.00    -0.013 C 
HETATM   13  C16 UNL     1      32.140   8.776  22.026  1.00  0.00     0.011 C 
HETATM   14  C17 UNL     1      31.900   8.997  20.564  1.00  0.00     0.009 C 
ENDBRANCH   3   5
BRANCH   1  15
HETATM   15  C7  UNL     1      35.780  11.512  18.999  1.00  0.00     0.103 C 
BRANCH  15  16
HETATM   16  C6  UNL     1      35.101  12.890  19.147  1.00  0.00     0.009 C 
BRANCH  16  17
HETATM   17  C5  UNL     1      35.081  13.591  17.816  1.00  0.00     0.000 C 
BRANCH  17  18
HETATM   18  C4  UNL     1      36.293  14.459  17.673  1.00  0.00     0.001 C 
BRANCH  18  19
HETATM   19  C3  UNL     1      36.901  14.305  16.332  1.00  0.00     0.010 C 
BRANCH  19  20
HETATM   20  C2  UNL     1      36.401  13.113  15.559  1.00  0.00     0.113 C 
BRANCH  20  21
HETATM   21  C1  UNL     1      35.797  13.388  14.268  1.00  0.00     0.172 C 
HETATM   22  O1  UNL     1      34.561  13.134  14.149  1.00  0.00    -0.648 OA
HETATM   23  O2  UNL     1      36.408  13.899  13.137  1.00  0.00    -0.648 OA
ENDBRANCH  20  21
ENDBRANCH  19  20
ENDBRANCH  18  19
ENDBRANCH  17  18
ENDBRANCH  16  17
ENDBRANCH  15  16
ENDBRANCH   1  15
TORSDOF 8
ENDMDL
MODEL 5
REMARK VINA RESULT: -5.599151585      3.165      6.675
REMARK  8 active torsions:
REMARK  status: ('A' for Active; 'I' for Inactive)
REMARK    1  A    between atoms: C1_2  and  C2_4 
REMARK    2  A    between atoms: C2_4  and  C3_5 
REMARK    3  A    between atoms: C3_5  and  C4_6 
REMARK    4  A    between atoms: C4_6  and  C5_7 
REMARK    5  A    between atoms: C5_7  and  C6_8 
REMARK    6  A    between atoms: C6_8  and  C7_9 
REMARK    7  A    between atoms: C7_9  and  C8_10 
REMARK       I    between atoms: C8_10  and  N1_12 
REMARK    8  A    between atoms: N1_12  and  C9_14 
ROOT
HETATM    1  C8  UNL     1      34.861  10.559  18.641  1.00  0.00     0.217 C 
HETATM    2  O3  UNL     1      34.587  10.153  17.497  1.00  0.00    -0.274 OA
HETATM    3  N1  UNL     1      34.195  10.006  19.756  1.00  0.00    -0.356 N 
ATOM      4  H1  UNL     1      34.439  10.358  20.682  1.00  0.00     0.162 HD
ENDROOT
BRANCH   3   5
HETATM    5  C9  UNL     1      33.196   8.982  19.667  1.00  0.00     0.092 C 
HETATM    6  C10 UNL     1      33.818   7.659  20.045  1.00  0.00     0.009 C 
HETATM    7  C11 UNL     1      32.852   6.540  19.672  1.00  0.00     0.011 C 
HETATM    8  C15 UNL     1      34.136   7.650  21.500  1.00  0.00     0.011 C 
HETATM    9  C12 UNL     1      31.588   6.736  20.444  1.00  0.00    -0.013 C 
HETATM   10  C13 UNL     1      31.929   6.591  21.917  1.00  0.00     0.009 C 
HETATM   11  C18 UNL     1      31.001   8.079  20.139  1.00  0.00     0.011 C 
HETATM   12  C14 UNL     1      32.848   7.723  22.286  1.00  0.00    -0.013 C 
HETATM   13  C16 UNL     1      32.219   9.056  21.987  1.00  0.00     0.011 C 
HETATM   14  C17 UNL     1      31.989   9.193  20.513  1.00  0.00     0.009 C 
ENDBRANCH   3   5
BRANCH   1  15
HETATM   15  C7  UNL     1      35.874  11.607  18.828  1.00  0.00     0.103 C 
BRANCH  15  16
HETATM   16  C6  UNL     1      35.216  13.003  18.830  1.00  0.00     0.009 C 
BRANCH  16  17
HETATM   17  C5  UNL     1      35.069  13.497  17.417  1.00  0.00     0.000 C 
BRANCH  17  18
HETATM   18  C4  UNL     1      36.407  13.535  16.744  1.00  0.00     0.001 C 
BRANCH  18  19
HETATM   19  C3  UNL     1      36.277  13.276  15.292  1.00  0.00     0.010 C 
BRANCH  19  20
HETATM   20  C2  UNL     1      35.717  11.919  14.952  1.00  0.00     0.113 C 
BRANCH  20  21
HETATM   21  C1  UNL     1      34.481  11.902  14.193  1.00  0.00     0.172 C 
HETATM   22  O1  UNL     1      34.374  12.749  13.255  1.00  0.00    -0.648 OA
HETATM   23  O2  UNL     1      33.391  11.068  14.364  1.00  0.00    -0.648 OA
ENDBRANCH  20  21
ENDBRANCH  19  20
ENDBRANCH  18  19
ENDBRANCH  17  18
ENDBRANCH  16  17
ENDBRANCH  15  16
ENDBRANCH   1  15
TORSDOF 8
ENDMDL
