MODEL 1
REMARK VINA RESULT: -6.498687553      0.000      0.000
REMARK  7 active torsions:
REMARK  status: ('A' for Active; 'I' for Inactive)
REMARK       I    between atoms: C1_2  and  N3_9 
REMARK    1  A    between atoms: N2_3  and  C2_5 
REMARK    2  A    between atoms: C2_5  and  C3_6 
REMARK    3  A    between atoms: N3_9  and  N4_11 
REMARK    4  A    between atoms: C8_16  and  C9_17 
REMARK    5  A    between atoms: C9_17  and  O1_18 
REMARK    6  A    between atoms: O1_18  and  C10_19 
REMARK    7  A    between atoms: C10_19  and  C11_20 
ROOT
HETATM    1  N4  UNL     1      36.903  13.338  12.859  1.00  0.00    -0.307 N 
ATOM      2  H4  UNL     1      37.912  13.392  12.997  1.00  0.00     0.186 HD
HETATM    3  C5  UNL     1      36.245  12.376  13.403  1.00  0.00     0.004 C 
HETATM    4  C6  UNL     1      36.976  11.374  14.219  1.00  0.00     0.054 C 
HETATM    5  C7  UNL     1      36.047  10.191  14.344  1.00  0.00     0.012 C 
HETATM    6  C8  UNL     1      34.803  10.529  15.153  1.00  0.00     0.010 C 
HETATM    7  C16 UNL     1      34.248  11.811  14.660  1.00  0.00     0.012 C 
HETATM    8  C17 UNL     1      34.781  12.174  13.287  1.00  0.00     0.054 C 
ENDROOT
BRANCH   1   9
HETATM    9  N3  UNL     1      36.267  14.311  12.080  1.00  0.00    -0.274 N 
HETATM   10  C1  UNL     1      36.013  14.033  10.712  1.00  0.00     0.203 C 
HETATM   11  N1  UNL     1      34.673  13.820  10.288  1.00  0.00    -0.062 NA
HETATM   12  N2  UNL     1      36.931  13.960   9.809  1.00  0.00    -0.360 N 
ATOM     13  H2  UNL     1      36.640  13.754   8.853  1.00  0.00     0.162 HD
ATOM     14  H3  UNL     1      35.992  15.204  12.489  1.00  0.00     0.189 HD
BRANCH  12  15
HETATM   15  C2  UNL     1      38.329  14.146  10.053  1.00  0.00     0.151 C 
BRANCH  15  16
HETATM   16  C3  UNL     1      39.077  12.880  10.188  1.00  0.00     0.022 C 
HETATM   17  C4  UNL     1      39.440  12.133   9.159  1.00  0.00     0.186 C 
HETATM   18  F1  UNL     1      40.125  10.987   9.386  1.00  0.00    -0.220 F 
ENDBRANCH  15  16
ENDBRANCH  12  15
ENDBRANCH   1   9
BRANCH   6  19
HETATM   19  C9  UNL     1      35.190  10.469  16.589  1.00  0.00     0.172 C 
BRANCH  19  20
HETATM   20  O1  UNL     1      34.959  11.492  17.415  1.00  0.00    -0.390 OA
BRANCH  20  21
HETATM   21  C10 UNL     1      35.900  12.392  17.760  1.00  0.00     0.172 C 
BRANCH  21  22
HETATM   22  C11 UNL     1      35.551  13.809  17.297  1.00  0.00     0.009 C 
HETATM   23  C12 UNL     1      35.483  14.755  18.452  1.00  0.00     0.007 C 
HETATM   24  C13 UNL     1      36.495  15.848  18.171  1.00  0.00     0.000 C 
HETATM   25  C14 UNL     1      37.485  15.146  17.266  1.00  0.00     0.000 C 
HETATM   26  C15 UNL     1      36.556  14.356  16.345  1.00  0.00     0.007 C 
ENDBRANCH  21  22
ENDBRANCH  20  21
ENDBRANCH  19  20
ENDBRANCH   6  19
TORSDOF 7
ENDMDL
MODEL 2
REMARK VINA RESULT: -6.434814657      2.631      2.972
REMARK  7 active torsions:
REMARK  status: ('A' for Active; 'I' for Inactive)
REMARK       I    between atoms: C1_2  and  N3_9 
REMARK    1  A    between atoms: N2_3  and  C2_5 
REMARK    2  A    between atoms: C2_5  and  C3_6 
REMARK    3  A    between atoms: N3_9  and  N4_11 
REMARK    4  A    between atoms: C8_16  and  C9_17 
REMARK    5  A    between atoms: C9_17  and  O1_18 
REMARK    6  A    between atoms: O1_18  and  C10_19 
REMARK    7  A    between atoms: C10_19  and  C11_20 
ROOT
HETATM    1  N4  UNL     1      35.362  12.807  12.339  1.00  0.00    -0.307 N 
ATOM      2  H4  UNL     1      36.238  13.323  12.252  1.00  0.00     0.186 HD
HETATM    3  C5  UNL     1      35.292  11.823  13.164  1.00  0.00     0.004 C 
HETATM    4  C6  UNL     1      36.489  11.467  13.965  1.00  0.00     0.054 C 
HETATM    5  C7  UNL     1      36.238  10.071  14.480  1.00  0.00     0.012 C 
HETATM    6  C8  UNL     1      35.076  10.028  15.463  1.00  0.00     0.010 C 
HETATM    7  C16 UNL     1      33.938  10.782  14.888  1.00  0.00     0.012 C 
HETATM    8  C17 UNL     1      34.088  10.990  13.393  1.00  0.00     0.054 C 
ENDROOT
BRANCH   1   9
HETATM    9  N3  UNL     1      34.266  13.188  11.558  1.00  0.00    -0.274 N 
HETATM   10  C1  UNL     1      34.448  13.363  10.162  1.00  0.00     0.203 C 
HETATM   11  N1  UNL     1      33.870  12.422   9.267  1.00  0.00    -0.062 NA
HETATM   12  N2  UNL     1      35.115  14.335   9.638  1.00  0.00    -0.360 N 
ATOM     13  H2  UNL     1      35.186  14.367   8.621  1.00  0.00     0.162 HD
ATOM     14  H3  UNL     1      33.351  13.338  11.985  1.00  0.00     0.189 HD
BRANCH  12  15
HETATM   15  C2  UNL     1      35.763  15.371  10.384  1.00  0.00     0.151 C 
BRANCH  15  16
HETATM   16  C3  UNL     1      35.158  16.703  10.187  1.00  0.00     0.022 C 
HETATM   17  C4  UNL     1      34.470  17.042   9.110  1.00  0.00     0.186 C 
HETATM   18  F1  UNL     1      33.953  18.291   9.024  1.00  0.00    -0.220 F 
ENDBRANCH  15  16
ENDBRANCH  12  15
ENDBRANCH   1   9
BRANCH   6  19
HETATM   19  C9  UNL     1      35.601  10.495  16.775  1.00  0.00     0.172 C 
BRANCH  19  20
HETATM   20  O1  UNL     1      35.014  11.488  17.445  1.00  0.00    -0.390 OA
BRANCH  20  21
HETATM   21  C10 UNL     1      35.697  12.481  18.047  1.00  0.00     0.172 C 
BRANCH  21  22
HETATM   22  C11 UNL     1      35.405  13.851  17.427  1.00  0.00     0.009 C 
HETATM   23  C12 UNL     1      35.542  14.944  18.437  1.00  0.00     0.007 C 
HETATM   24  C13 UNL     1      36.594  15.893  17.900  1.00  0.00     0.000 C 
HETATM   25  C14 UNL     1      37.418  14.991  17.005  1.00  0.00     0.000 C 
HETATM   26  C15 UNL     1      36.331  14.173  16.307  1.00  0.00     0.007 C 
ENDBRANCH  21  22
ENDBRANCH  20  21
ENDBRANCH  19  20
ENDBRANCH   6  19
TORSDOF 7
ENDMDL
MODEL 3
REMARK VINA RESULT: -6.428500808      2.283      3.100
REMARK  7 active torsions:
REMARK  status: ('A' for Active; 'I' for Inactive)
REMARK       I    between atoms: C1_2  and  N3_9 
REMARK    1  A    between atoms: N2_3  and  C2_5 
REMARK    2  A    between atoms: C2_5  and  C3_6 
REMARK    3  A    between atoms: N3_9  and  N4_11 
REMARK    4  A    between atoms: C8_16  and  C9_17 
REMARK    5  A    between atoms: C9_17  and  O1_18 
REMARK    6  A    between atoms: O1_18  and  C10_19 
REMARK    7  A    between atoms: C10_19  and  C11_20 
ROOT
HETATM    1  N4  UNL     1      37.790  12.228  11.890  1.00  0.00    -0.307 N 
ATOM      2  H4  UNL     1      38.678  12.508  12.307  1.00  0.00     0.186 HD
HETATM    3  C5  UNL     1      36.951  11.552  12.593  1.00  0.00     0.004 C 
HETATM    4  C6  UNL     1      37.302  11.200  13.991  1.00  0.00     0.054 C 
HETATM    5  C7  UNL     1      36.360  10.087  14.382  1.00  0.00     0.012 C 
HETATM    6  C8  UNL     1      34.915  10.561  14.443  1.00  0.00     0.010 C 
HETATM    7  C16 UNL     1      34.616  11.338  13.217  1.00  0.00     0.012 C 
HETATM    8  C17 UNL     1      35.629  11.081  12.118  1.00  0.00     0.054 C 
ENDROOT
BRANCH   1   9
HETATM    9  N3  UNL     1      37.513  12.589  10.566  1.00  0.00    -0.274 N 
HETATM   10  C1  UNL     1      37.851  13.896  10.130  1.00  0.00     0.203 C 
HETATM   11  N1  UNL     1      38.926  14.062   9.214  1.00  0.00    -0.062 NA
HETATM   12  N2  UNL     1      37.238  14.965  10.512  1.00  0.00    -0.360 N 
ATOM     13  H2  UNL     1      37.562  15.856  10.137  1.00  0.00     0.162 HD
ATOM     14  H3  UNL     1      37.077  11.924   9.928  1.00  0.00     0.189 HD
BRANCH  12  15
HETATM   15  C2  UNL     1      36.137  14.987  11.427  1.00  0.00     0.151 C 
BRANCH  15  16
HETATM   16  C3  UNL     1      34.961  15.716  10.913  1.00  0.00     0.022 C 
HETATM   17  C4  UNL     1      35.038  16.708  10.042  1.00  0.00     0.186 C 
HETATM   18  F1  UNL     1      33.900  17.314   9.630  1.00  0.00    -0.220 F 
ENDBRANCH  15  16
ENDBRANCH  12  15
ENDBRANCH   1   9
BRANCH   6  19
HETATM   19  C9  UNL     1      34.743  11.261  15.745  1.00  0.00     0.172 C 
BRANCH  19  20
HETATM   20  O1  UNL     1      34.626  12.589  15.810  1.00  0.00    -0.390 OA
BRANCH  20  21
HETATM   21  C10 UNL     1      34.720  13.285  16.960  1.00  0.00     0.172 C 
BRANCH  21  22
HETATM   22  C11 UNL     1      36.173  13.555  17.362  1.00  0.00     0.009 C 
HETATM   23  C12 UNL     1      36.904  14.295  16.289  1.00  0.00     0.007 C 
HETATM   24  C13 UNL     1      37.404  15.580  16.920  1.00  0.00     0.000 C 
HETATM   25  C14 UNL     1      36.418  15.790  18.050  1.00  0.00     0.000 C 
HETATM   26  C15 UNL     1      36.273  14.372  18.602  1.00  0.00     0.007 C 
ENDBRANCH  21  22
ENDBRANCH  20  21
ENDBRANCH  19  20
ENDBRANCH   6  19
TORSDOF 7
ENDMDL
MODEL 4
REMARK VINA RESULT: -6.265897663      5.253      7.782
REMARK  7 active torsions:
REMARK  status: ('A' for Active; 'I' for Inactive)
REMARK       I    between atoms: C1_2  and  N3_9 
REMARK    1  A    between atoms: N2_3  and  C2_5 
REMARK    2  A    between atoms: C2_5  and  C3_6 
REMARK    3  A    between atoms: N3_9  and  N4_11 
REMARK    4  A    between atoms: C8_16  and  C9_17 
REMARK    5  A    between atoms: C9_17  and  O1_18 
REMARK    6  A    between atoms: O1_18  and  C10_19 
REMARK    7  A    between atoms: C10_19  and  C11_20 
ROOT
HETATM    1  N4  UNL     1      34.521  10.149  17.399  1.00  0.00    -0.307 N 
ATOM      2  H4  UNL     1      33.781  10.714  17.815  1.00  0.00     0.186 HD
HETATM    3  C5  UNL     1      34.766  10.261  16.142  1.00  0.00     0.004 C 
HETATM    4  C6  UNL     1      33.962  11.212  15.333  1.00  0.00     0.054 C 
HETATM    5  C7  UNL     1      34.177  10.810  13.894  1.00  0.00     0.012 C 
HETATM    6  C8  UNL     1      35.616  11.031  13.451  1.00  0.00     0.010 C 
HETATM    7  C16 UNL     1      36.523  10.472  14.481  1.00  0.00     0.012 C 
HETATM    8  C17 UNL     1      35.809   9.506  15.407  1.00  0.00     0.054 C 
ENDROOT
BRANCH   1   9
HETATM    9  N3  UNL     1      35.246   9.270  18.211  1.00  0.00    -0.274 N 
HETATM   10  C1  UNL     1      34.565   8.571  19.242  1.00  0.00     0.203 C 
HETATM   11  N1  UNL     1      34.361   7.171  19.108  1.00  0.00    -0.062 NA
HETATM   12  N2  UNL     1      34.111   9.130  20.312  1.00  0.00    -0.360 N 
ATOM     13  H2  UNL     1      33.636   8.535  20.991  1.00  0.00     0.162 HD
ATOM     14  H3  UNL     1      36.247   9.133  18.064  1.00  0.00     0.189 HD
BRANCH  12  15
HETATM   15  C2  UNL     1      34.226  10.524  20.613  1.00  0.00     0.151 C 
BRANCH  15  16
HETATM   16  C3  UNL     1      33.425  10.943  21.780  1.00  0.00     0.022 C 
HETATM   17  C4  UNL     1      33.088  10.127  22.765  1.00  0.00     0.186 C 
HETATM   18  F1  UNL     1      32.350  10.607  23.795  1.00  0.00    -0.220 F 
ENDBRANCH  15  16
ENDBRANCH  12  15
ENDBRANCH   1   9
BRANCH   6  19
HETATM   19  C9  UNL     1      35.757  12.480  13.143  1.00  0.00     0.172 C 
BRANCH  19  20
HETATM   20  O1  UNL     1      36.536  13.275  13.879  1.00  0.00    -0.390 OA
BRANCH  20  21
HETATM   21  C10 UNL     1      36.067  14.070  14.860  1.00  0.00     0.172 C 
BRANCH  21  22
HETATM   22  C11 UNL     1      36.897  13.969  16.143  1.00  0.00     0.009 C 
HETATM   23  C12 UNL     1      37.308  15.320  16.631  1.00  0.00     0.007 C 
HETATM   24  C13 UNL     1      36.753  15.455  18.035  1.00  0.00     0.000 C 
HETATM   25  C14 UNL     1      35.570  14.510  18.007  1.00  0.00     0.000 C 
HETATM   26  C15 UNL     1      36.147  13.314  17.250  1.00  0.00     0.007 C 
ENDBRANCH  21  22
ENDBRANCH  20  21
ENDBRANCH  19  20
ENDBRANCH   6  19
TORSDOF 7
ENDMDL
MODEL 5
REMARK VINA RESULT: -6.067968366      4.442      6.874
REMARK  7 active torsions:
REMARK  status: ('A' for Active; 'I' for Inactive)
REMARK       I    between atoms: C1_2  and  N3_9 
REMARK    1  A    between atoms: N2_3  and  C2_5 
REMARK    2  A    between atoms: C2_5  and  C3_6 
REMARK    3  A    between atoms: N3_9  and  N4_11 
REMARK    4  A    between atoms: C8_16  and  C9_17 
REMARK    5  A    between atoms: C9_17  and  O1_18 
REMARK    6  A    between atoms: O1_18  and  C10_19 
REMARK    7  A    between atoms: C10_19  and  C11_20 
ROOT
HETATM    1  N4  UNL     1      34.568   9.969  17.033  1.00  0.00    -0.307 N 
ATOM      2  H4  UNL     1      33.786  10.471  17.455  1.00  0.00     0.186 HD
HETATM    3  C5  UNL     1      34.855  10.178  15.798  1.00  0.00     0.004 C 
HETATM    4  C6  UNL     1      34.039  11.144  15.021  1.00  0.00     0.054 C 
HETATM    5  C7  UNL     1      34.327  10.851  13.569  1.00  0.00     0.012 C 
HETATM    6  C8  UNL     1      35.771  11.166  13.201  1.00  0.00     0.010 C 
HETATM    7  C16 UNL     1      36.663  10.579  14.229  1.00  0.00     0.012 C 
HETATM    8  C17 UNL     1      35.960   9.521  15.058  1.00  0.00     0.054 C 
ENDROOT
BRANCH   1   9
HETATM    9  N3  UNL     1      35.302   9.069  17.814  1.00  0.00    -0.274 N 
HETATM   10  C1  UNL     1      34.808   8.716  19.097  1.00  0.00     0.203 C 
HETATM   11  N1  UNL     1      34.305   7.403  19.305  1.00  0.00    -0.062 NA
HETATM   12  N2  UNL     1      34.784   9.519  20.106  1.00  0.00    -0.360 N 
ATOM     13  H2  UNL     1      34.407   9.163  20.985  1.00  0.00     0.162 HD
ATOM     14  H3  UNL     1      36.177   8.675  17.468  1.00  0.00     0.189 HD
BRANCH  12  15
HETATM   15  C2  UNL     1      35.247  10.873  20.080  1.00  0.00     0.151 C 
BRANCH  15  16
HETATM   16  C3  UNL     1      36.712  10.996  20.218  1.00  0.00     0.022 C 
HETATM   17  C4  UNL     1      37.413  10.368  21.147  1.00  0.00     0.186 C 
HETATM   18  F1  UNL     1      38.755  10.546  21.192  1.00  0.00    -0.220 F 
ENDBRANCH  15  16
ENDBRANCH  12  15
ENDBRANCH   1   9
BRANCH   6  19
HETATM   19  C9  UNL     1      35.854  12.637  12.996  1.00  0.00     0.172 C 
BRANCH  19  20
HETATM   20  O1  UNL     1      36.553  13.417  13.823  1.00  0.00    -0.390 OA
BRANCH  20  21
HETATM   21  C10 UNL     1      36.008  14.056  14.876  1.00  0.00     0.172 C 
BRANCH  21  22
HETATM   22  C11 UNL     1      36.858  13.927  16.144  1.00  0.00     0.009 C 
HETATM   23  C12 UNL     1      37.262  15.268  16.664  1.00  0.00     0.007 C 
HETATM   24  C13 UNL     1      36.725  15.357  18.080  1.00  0.00     0.000 C 
HETATM   25  C14 UNL     1      35.553  14.399  18.042  1.00  0.00     0.000 C 
HETATM   26  C15 UNL     1      36.132  13.232  17.242  1.00  0.00     0.007 C 
ENDBRANCH  21  22
ENDBRANCH  20  21
ENDBRANCH  19  20
ENDBRANCH   6  19
TORSDOF 7
ENDMDL
