MODEL 1
REMARK VINA RESULT: -6.314805959      0.000      0.000
REMARK  9 active torsions:
REMARK  status: ('A' for Active; 'I' for Inactive)
REMARK       I    between atoms: C1_2  and  N1_3 
REMARK    1  A    between atoms: C1_2  and  C8_12 
REMARK    2  A    between atoms: N1_3  and  C2_5 
REMARK    3  A    between atoms: C2_5  and  C3_6 
REMARK    4  A    between atoms: C3_6  and  C4_7 
REMARK    5  A    between atoms: C4_7  and  C5_8 
REMARK    6  A    between atoms: C5_8  and  C6_9 
REMARK    7  A    between atoms: C6_9  and  C7_10 
REMARK    8  A    between atoms: C10_14  and  C11_15 
REMARK    9  A    between atoms: C11_15  and  O2_16 
ROOT
HETATM    1  C8  UNL     1      36.333  13.089  15.577  1.00  0.00     0.083 C 
HETATM    2  C9  UNL     1      36.693  14.350  16.372  1.00  0.00     0.021 C 
HETATM    3  C10 UNL     1      36.442  14.024  17.820  1.00  0.00     0.014 C 
HETATM    4  C12 UNL     1      36.029  12.617  17.839  1.00  0.00    -0.004 C 
HETATM    5  C13 UNL     1      35.007  12.222  18.842  1.00  0.00     0.005 C 
HETATM    6  C14 UNL     1      34.876  10.721  18.781  1.00  0.00     0.000 C 
HETATM    7  C15 UNL     1      34.750  10.153  17.432  1.00  0.00     0.000 C 
HETATM    8  C16 UNL     1      35.312  10.908  16.300  1.00  0.00     0.006 C 
HETATM    9  C17 UNL     1      35.372  12.384  16.469  1.00  0.00     0.003 C 
ENDROOT
BRANCH   1  10
HETATM   10  C1  UNL     1      35.757  13.454  14.264  1.00  0.00     0.222 C 
HETATM   11  O1  UNL     1      34.573  13.139  13.997  1.00  0.00    -0.273 OA
HETATM   12  N1  UNL     1      36.519  14.158  13.298  1.00  0.00    -0.361 N 
ATOM     13  H1  UNL     1      37.482  14.413  13.519  1.00  0.00     0.162 HD
BRANCH  12  14
HETATM   14  C2  UNL     1      35.974  14.528  12.002  1.00  0.00     0.122 C 
BRANCH  14  15
HETATM   15  C3  UNL     1      36.317  13.476  10.969  1.00  0.00     0.020 C 
BRANCH  15  16
HETATM   16  C4  UNL     1      37.745  12.990  11.148  1.00  0.00     0.002 C 
BRANCH  16  17
HETATM   17  C5  UNL     1      37.806  11.483  11.231  1.00  0.00     0.001 C 
BRANCH  17  18
HETATM   18  C6  UNL     1      36.440  10.891  11.547  1.00  0.00     0.015 C 
BRANCH  18  19
HETATM   19  C7  UNL     1      36.488  10.077  12.824  1.00  0.00     0.114 C 
HETATM   20 CL1  UNL     1      37.961  10.463  13.761  1.00  0.00    -0.130 Cl
ENDBRANCH  18  19
ENDBRANCH  17  18
ENDBRANCH  16  17
ENDBRANCH  15  16
ENDBRANCH  14  15
ENDBRANCH  12  14
ENDBRANCH   1  10
BRANCH   3  21
HETATM   21  C11 UNL     1      35.513  14.985  18.497  1.00  0.00     0.169 C 
BRANCH  21  22
HETATM   22  O2  UNL     1      36.096  16.194  18.797  1.00  0.00    -0.400 OA
ATOM     23  H2  UNL     1      36.176  16.773  18.049  1.00  0.00     0.209 HD
ENDBRANCH  21  22
ENDBRANCH   3  21
TORSDOF 9
ENDMDL
MODEL 2
REMARK VINA RESULT: -6.192861393      0.714      1.065
REMARK  9 active torsions:
REMARK  status: ('A' for Active; 'I' for Inactive)
REMARK       I    between atoms: C1_2  and  N1_3 
REMARK    1  A    between atoms: C1_2  and  C8_12 
REMARK    2  A    between atoms: N1_3  and  C2_5 
REMARK    3  A    between atoms: C2_5  and  C3_6 
REMARK    4  A    between atoms: C3_6  and  C4_7 
REMARK    5  A    between atoms: C4_7  and  C5_8 
REMARK    6  A    between atoms: C5_8  and  C6_9 
REMARK    7  A    between atoms: C6_9  and  C7_10 
REMARK    8  A    between atoms: C10_14  and  C11_15 
REMARK    9  A    between atoms: C11_15  and  O2_16 
ROOT
HETATM    1  C8  UNL     1      36.385  12.994  15.721  1.00  0.00     0.083 C 
HETATM    2  C9  UNL     1      36.737  14.300  16.444  1.00  0.00     0.021 C 
HETATM    3  C10 UNL     1      36.441  14.071  17.902  1.00  0.00     0.014 C 
HETATM    4  C12 UNL     1      36.011  12.672  18.000  1.00  0.00    -0.004 C 
HETATM    5  C13 UNL     1      34.957  12.353  18.996  1.00  0.00     0.005 C 
HETATM    6  C14 UNL     1      34.810  10.853  19.027  1.00  0.00     0.000 C 
HETATM    7  C15 UNL     1      34.716  10.200  17.714  1.00  0.00     0.000 C 
HETATM    8  C16 UNL     1      35.319  10.874  16.553  1.00  0.00     0.006 C 
HETATM    9  C17 UNL     1      35.390  12.358  16.628  1.00  0.00     0.003 C 
ENDROOT
BRANCH   1  10
HETATM   10  C1  UNL     1      35.850  13.280  14.372  1.00  0.00     0.222 C 
HETATM   11  O1  UNL     1      34.611  13.272  14.181  1.00  0.00    -0.273 OA
HETATM   12  N1  UNL     1      36.715  13.564  13.284  1.00  0.00    -0.361 N 
ATOM     13  H1  UNL     1      37.723  13.568  13.443  1.00  0.00     0.162 HD
BRANCH  12  14
HETATM   14  C2  UNL     1      36.212  13.847  11.950  1.00  0.00     0.122 C 
BRANCH  14  15
HETATM   15  C3  UNL     1      36.376  12.635  11.059  1.00  0.00     0.020 C 
BRANCH  15  16
HETATM   16  C4  UNL     1      35.107  11.801  11.042  1.00  0.00     0.002 C 
BRANCH  16  17
HETATM   17  C5  UNL     1      35.395  10.352  11.357  1.00  0.00     0.001 C 
BRANCH  17  18
HETATM   18  C6  UNL     1      34.983  10.004  12.780  1.00  0.00     0.015 C 
BRANCH  18  19
HETATM   19  C7  UNL     1      36.042   9.156  13.454  1.00  0.00     0.114 C 
HETATM   20 CL1  UNL     1      37.533  10.106  13.724  1.00  0.00    -0.130 Cl
ENDBRANCH  18  19
ENDBRANCH  17  18
ENDBRANCH  16  17
ENDBRANCH  15  16
ENDBRANCH  14  15
ENDBRANCH  12  14
ENDBRANCH   1  10
BRANCH   3  21
HETATM   21  C11 UNL     1      35.504  15.083  18.489  1.00  0.00     0.169 C 
BRANCH  21  22
HETATM   22  O2  UNL     1      36.124  16.249  18.871  1.00  0.00    -0.400 OA
ATOM     23  H2  UNL     1      35.665  16.717  19.558  1.00  0.00     0.209 HD
ENDBRANCH  21  22
ENDBRANCH   3  21
TORSDOF 9
ENDMDL
MODEL 3
REMARK VINA RESULT: -6.053307979      1.439      1.575
REMARK  9 active torsions:
REMARK  status: ('A' for Active; 'I' for Inactive)
REMARK       I    between atoms: C1_2  and  N1_3 
REMARK    1  A    between atoms: C1_2  and  C8_12 
REMARK    2  A    between atoms: N1_3  and  C2_5 
REMARK    3  A    between atoms: C2_5  and  C3_6 
REMARK    4  A    between atoms: C3_6  and  C4_7 
REMARK    5  A    between atoms: C4_7  and  C5_8 
REMARK    6  A    between atoms: C5_8  and  C6_9 
REMARK    7  A    between atoms: C6_9  and  C7_10 
REMARK    8  A    between atoms: C10_14  and  C11_15 
REMARK    9  A    between atoms: C11_15  and  O2_16 
ROOT
HETATM    1  C8  UNL     1      36.392  12.976  15.657  1.00  0.00     0.083 C 
HETATM    2  C9  UNL     1      36.734  14.273  16.401  1.00  0.00     0.021 C 
HETATM    3  C10 UNL     1      36.434  14.019  17.854  1.00  0.00     0.014 C 
HETATM    4  C12 UNL     1      36.011  12.617  17.929  1.00  0.00    -0.004 C 
HETATM    5  C13 UNL     1      34.955  12.277  18.916  1.00  0.00     0.005 C 
HETATM    6  C14 UNL     1      34.816  10.776  18.924  1.00  0.00     0.000 C 
HETATM    7  C15 UNL     1      34.730  10.143  17.601  1.00  0.00     0.000 C 
HETATM    8  C16 UNL     1      35.334  10.838  16.452  1.00  0.00     0.006 C 
HETATM    9  C17 UNL     1      35.398  12.320  16.550  1.00  0.00     0.003 C 
ENDROOT
BRANCH   1  10
HETATM   10  C1  UNL     1      35.861  13.279  14.310  1.00  0.00     0.222 C 
HETATM   11  O1  UNL     1      34.627  13.216  14.101  1.00  0.00    -0.273 OA
HETATM   12  N1  UNL     1      36.725  13.642  13.245  1.00  0.00    -0.361 N 
ATOM     13  H1  UNL     1      37.730  13.692  13.419  1.00  0.00     0.162 HD
BRANCH  12  14
HETATM   14  C2  UNL     1      36.227  13.945  11.914  1.00  0.00     0.122 C 
BRANCH  14  15
HETATM   15  C3  UNL     1      36.771  12.950  10.912  1.00  0.00     0.020 C 
BRANCH  15  16
HETATM   16  C4  UNL     1      35.870  11.732  10.814  1.00  0.00     0.002 C 
BRANCH  16  17
HETATM   17  C5  UNL     1      36.387  10.594  11.662  1.00  0.00     0.001 C 
BRANCH  17  18
HETATM   18  C6  UNL     1      35.282  10.001  12.524  1.00  0.00     0.015 C 
BRANCH  18  19
HETATM   19  C7  UNL     1      33.920  10.453  12.038  1.00  0.00     0.114 C 
HETATM   20 CL1  UNL     1      33.234   9.265  10.891  1.00  0.00    -0.130 Cl
ENDBRANCH  18  19
ENDBRANCH  17  18
ENDBRANCH  16  17
ENDBRANCH  15  16
ENDBRANCH  14  15
ENDBRANCH  12  14
ENDBRANCH   1  10
BRANCH   3  21
HETATM   21  C11 UNL     1      35.490  15.018  18.453  1.00  0.00     0.169 C 
BRANCH  21  22
HETATM   22  O2  UNL     1      36.098  16.190  18.835  1.00  0.00    -0.400 OA
ATOM     23  H2  UNL     1      36.925  16.060  19.283  1.00  0.00     0.209 HD
ENDBRANCH  21  22
ENDBRANCH   3  21
TORSDOF 9
ENDMDL
MODEL 4
REMARK VINA RESULT: -5.934299967      2.199      3.104
REMARK  9 active torsions:
REMARK  status: ('A' for Active; 'I' for Inactive)
REMARK       I    between atoms: C1_2  and  N1_3 
REMARK    1  A    between atoms: C1_2  and  C8_12 
REMARK    2  A    between atoms: N1_3  and  C2_5 
REMARK    3  A    between atoms: C2_5  and  C3_6 
REMARK    4  A    between atoms: C3_6  and  C4_7 
REMARK    5  A    between atoms: C4_7  and  C5_8 
REMARK    6  A    between atoms: C5_8  and  C6_9 
REMARK    7  A    between atoms: C6_9  and  C7_10 
REMARK    8  A    between atoms: C10_14  and  C11_15 
REMARK    9  A    between atoms: C11_15  and  O2_16 
ROOT
HETATM    1  C8  UNL     1      36.309  12.772  15.796  1.00  0.00     0.083 C 
HETATM    2  C9  UNL     1      36.683  14.129  16.406  1.00  0.00     0.021 C 
HETATM    3  C10 UNL     1      36.412  14.019  17.883  1.00  0.00     0.014 C 
HETATM    4  C12 UNL     1      35.973  12.636  18.099  1.00  0.00    -0.004 C 
HETATM    5  C13 UNL     1      34.935  12.406  19.136  1.00  0.00     0.005 C 
HETATM    6  C14 UNL     1      34.778  10.915  19.289  1.00  0.00     0.000 C 
HETATM    7  C15 UNL     1      34.656  10.160  18.034  1.00  0.00     0.000 C 
HETATM    8  C16 UNL     1      35.242  10.735  16.813  1.00  0.00     0.006 C 
HETATM    9  C17 UNL     1      35.326  12.219  16.768  1.00  0.00     0.003 C 
ENDROOT
BRANCH   1  10
HETATM   10  C1  UNL     1      35.753  12.954  14.438  1.00  0.00     0.222 C 
HETATM   11  O1  UNL     1      34.524  13.157  14.293  1.00  0.00    -0.273 OA
HETATM   12  N1  UNL     1      36.585  12.903  13.291  1.00  0.00    -0.361 N 
ATOM     13  H1  UNL     1      37.584  12.737  13.413  1.00  0.00     0.162 HD
BRANCH  12  14
HETATM   14  C2  UNL     1      36.061  13.079  11.947  1.00  0.00     0.122 C 
BRANCH  14  15
HETATM   15  C3  UNL     1      37.152  13.568  11.019  1.00  0.00     0.020 C 
BRANCH  15  16
HETATM   16  C4  UNL     1      36.843  14.964  10.509  1.00  0.00     0.002 C 
BRANCH  16  17
HETATM   17  C5  UNL     1      35.553  15.491  11.094  1.00  0.00     0.001 C 
BRANCH  17  18
HETATM   18  C6  UNL     1      35.273  16.911  10.623  1.00  0.00     0.015 C 
BRANCH  18  19
HETATM   19  C7  UNL     1      34.522  16.903   9.308  1.00  0.00     0.114 C 
HETATM   20 CL1  UNL     1      33.268  15.626   9.306  1.00  0.00    -0.130 Cl
ENDBRANCH  18  19
ENDBRANCH  17  18
ENDBRANCH  16  17
ENDBRANCH  15  16
ENDBRANCH  14  15
ENDBRANCH  12  14
ENDBRANCH   1  10
BRANCH   3  21
HETATM   21  C11 UNL     1      35.493  15.083  18.403  1.00  0.00     0.169 C 
BRANCH  21  22
HETATM   22  O2  UNL     1      36.143  16.234  18.779  1.00  0.00    -0.400 OA
ATOM     23  H2  UNL     1      35.570  16.886  19.164  1.00  0.00     0.209 HD
ENDBRANCH  21  22
ENDBRANCH   3  21
TORSDOF 9
ENDMDL
MODEL 5
REMARK VINA RESULT: -5.907163531      1.264      1.484
REMARK  9 active torsions:
REMARK  status: ('A' for Active; 'I' for Inactive)
REMARK       I    between atoms: C1_2  and  N1_3 
REMARK    1  A    between atoms: C1_2  and  C8_12 
REMARK    2  A    between atoms: N1_3  and  C2_5 
REMARK    3  A    between atoms: C2_5  and  C3_6 
REMARK    4  A    between atoms: C3_6  and  C4_7 
REMARK    5  A    between atoms: C4_7  and  C5_8 
REMARK    6  A    between atoms: C5_8  and  C6_9 
REMARK    7  A    between atoms: C6_9  and  C7_10 
REMARK    8  A    between atoms: C10_14  and  C11_15 
REMARK    9  A    between atoms: C11_15  and  O2_16 
ROOT
HETATM    1  C8  UNL     1      36.339  13.170  15.517  1.00  0.00     0.083 C 
HETATM    2  C9  UNL     1      36.703  14.417  16.333  1.00  0.00     0.021 C 
HETATM    3  C10 UNL     1      36.460  14.065  17.776  1.00  0.00     0.014 C 
HETATM    4  C12 UNL     1      36.047  12.658  17.772  1.00  0.00    -0.004 C 
HETATM    5  C13 UNL     1      35.031  12.245  18.774  1.00  0.00     0.005 C 
HETATM    6  C14 UNL     1      34.900  10.745  18.686  1.00  0.00     0.000 C 
HETATM    7  C15 UNL     1      34.767  10.201  17.328  1.00  0.00     0.000 C 
HETATM    8  C16 UNL     1      35.323  10.976  16.206  1.00  0.00     0.006 C 
HETATM    9  C17 UNL     1      35.383  12.449  16.401  1.00  0.00     0.003 C 
ENDROOT
BRANCH   1  10
HETATM   10  C1  UNL     1      35.755  13.559  14.215  1.00  0.00     0.222 C 
HETATM   11  O1  UNL     1      34.636  13.108  13.877  1.00  0.00    -0.273 OA
HETATM   12  N1  UNL     1      36.441  14.436  13.335  1.00  0.00    -0.361 N 
ATOM     13  H1  UNL     1      37.353  14.800  13.613  1.00  0.00     0.162 HD
BRANCH  12  14
HETATM   14  C2  UNL     1      35.887  14.832  12.051  1.00  0.00     0.122 C 
BRANCH  14  15
HETATM   15  C3  UNL     1      36.592  14.101  10.929  1.00  0.00     0.020 C 
BRANCH  15  16
HETATM   16  C4  UNL     1      35.756  12.934  10.434  1.00  0.00     0.002 C 
BRANCH  16  17
HETATM   17  C5  UNL     1      36.237  11.626  11.017  1.00  0.00     0.001 C 
BRANCH  17  18
HETATM   18  C6  UNL     1      37.733  11.663  11.296  1.00  0.00     0.015 C 
BRANCH  18  19
HETATM   19  C7  UNL     1      38.502  10.961  10.196  1.00  0.00     0.114 C 
HETATM   20 CL1  UNL     1      39.652  12.086   9.415  1.00  0.00    -0.130 Cl
ENDBRANCH  18  19
ENDBRANCH  17  18
ENDBRANCH  16  17
ENDBRANCH  15  16
ENDBRANCH  14  15
ENDBRANCH  12  14
ENDBRANCH   1  10
BRANCH   3  21
HETATM   21  C11 UNL     1      35.534  15.014  18.475  1.00  0.00     0.169 C 
BRANCH  21  22
HETATM   22  O2  UNL     1      36.130  16.200  18.832  1.00  0.00    -0.400 OA
ATOM     23  H2  UNL     1      36.062  16.874  18.166  1.00  0.00     0.209 HD
ENDBRANCH  21  22
ENDBRANCH   3  21
TORSDOF 9
ENDMDL
