MODEL 1
REMARK VINA RESULT: -8.602696580      0.000      0.000
REMARK  8 active torsions:
REMARK  status: ('A' for Active; 'I' for Inactive)
REMARK    1  A    between atoms: C2_2  and  N1_3 
REMARK    2  A    between atoms: C7_12  and  C8_13 
REMARK    3  A    between atoms: C9_14  and  C10_15 
REMARK    4  A    between atoms: C13_18  and  N4_19 
REMARK    5  A    between atoms: C15_25  and  C16_26 
REMARK    6  A    between atoms: C19_29  and  S1_30 
REMARK    7  A    between atoms: S1_30  and  N6_33 
REMARK    8  A    between atoms: N6_33  and  N7_35 
ROOT
HETATM    1  N1  UNL     1      63.111  24.524  17.324  1.00  0.00    -0.341 N 
HETATM    2  C3  UNL     1      63.104  25.047  18.577  1.00  0.00     0.185 C 
HETATM    3  N2  UNL     1      62.044  25.418  19.356  1.00  0.00    -0.338 N 
ATOM      4  H2  UNL     1      62.270  25.659  20.321  1.00  0.00     0.168 HD
HETATM    5  C4  UNL     1      60.758  25.506  19.026  1.00  0.00     0.119 A 
HETATM    6  N3  UNL     1      59.575  25.858  19.538  1.00  0.00    -0.351 N 
ATOM      7  H3  UNL     1      59.271  26.206  20.447  1.00  0.00     0.166 HD
HETATM    8  C5  UNL     1      58.945  25.576  18.393  1.00  0.00     0.106 A 
HETATM    9  C6  UNL     1      60.171  25.215  17.878  1.00  0.00     0.044 A 
HETATM   10  C7  UNL     1      60.727  24.738  16.700  1.00  0.00     0.061 C 
HETATM   11  C15 UNL     1      62.068  24.517  16.480  1.00  0.00     0.065 C 
ENDROOT
BRANCH  11  12
HETATM   12  C16 UNL     1      62.402  24.236  15.089  1.00  0.00    -0.008 A 
HETATM   13  C17 UNL     1      62.791  22.995  14.627  1.00  0.00     0.015 A 
HETATM   14  C18 UNL     1      63.096  22.807  13.285  1.00  0.00     0.023 A 
HETATM   15  C19 UNL     1      63.025  23.836  12.368  1.00  0.00     0.039 A 
HETATM   16  C22 UNL     1      62.640  25.071  12.809  1.00  0.00     0.023 A 
HETATM   17  C23 UNL     1      62.339  25.250  14.141  1.00  0.00     0.015 A 
BRANCH  15  18
HETATM   18  S1  UNL     1      63.430  23.479  10.717  1.00  0.00     0.066 S 
HETATM   19  C20 UNL     1      62.321  22.233  10.072  1.00  0.00     0.143 C 
HETATM   20  O1  UNL     1      64.827  22.953  10.563  1.00  0.00    -0.244 OA
BRANCH  18  21
HETATM   21  N6  UNL     1      63.306  24.731   9.784  1.00  0.00    -0.255 N 
ATOM     22  H6  UNL     1      63.017  25.641  10.144  1.00  0.00     0.197 HD
BRANCH  21  23
HETATM   23  N7  UNL     1      63.611  24.537   8.430  1.00  0.00    -0.291 N 
HETATM   24  C21 UNL     1      62.902  25.039   7.477  1.00  0.00     0.207 C 
HETATM   25  N8  UNL     1      63.316  24.771   6.144  1.00  0.00    -0.095 NA
ATOM     26  H7  UNL     1      64.427  23.975   8.188  1.00  0.00     0.188 HD
ENDBRANCH  21  23
ENDBRANCH  18  21
ENDBRANCH  15  18
ENDBRANCH  11  12
BRANCH   1  27
HETATM   27  C2  UNL     1      64.355  23.933  16.893  1.00  0.00     0.125 C 
HETATM   28  C1  UNL     1      65.406  25.020  16.804  1.00  0.00     0.027 C 
ENDBRANCH   1  27
BRANCH  10  29
HETATM   29  C8  UNL     1      59.882  24.435  15.589  1.00  0.00    -0.058 C 
HETATM   30  C9  UNL     1      59.185  24.185  14.638  1.00  0.00    -0.060 C 
BRANCH  30  31
HETATM   31  C10 UNL     1      58.365  23.905  13.492  1.00  0.00     0.033 A 
HETATM   32  C11 UNL     1      58.870  23.796  12.207  1.00  0.00     0.026 A 
HETATM   33  C12 UNL     1      58.065  23.528  11.121  1.00  0.00     0.049 A 
HETATM   34  C13 UNL     1      56.711  23.361  11.302  1.00  0.00     0.098 A 
HETATM   35  N5  UNL     1      56.221  23.466  12.540  1.00  0.00    -0.351 N 
HETATM   36  C14 UNL     1      56.999  23.727  13.605  1.00  0.00     0.110 A 
ATOM     37  H5  UNL     1      55.219  23.343  12.683  1.00  0.00     0.166 HD
BRANCH  34  38
HETATM   38  N4  UNL     1      55.918  23.104  10.287  1.00  0.00    -0.385 N 
ATOM     39  H42 UNL     1      54.917  22.976  10.427  1.00  0.00     0.157 HD
ATOM     40  H41 UNL     1      56.287  23.026   9.339  1.00  0.00     0.157 HD
ENDBRANCH  34  38
ENDBRANCH  30  31
ENDBRANCH  10  29
TORSDOF 8
ENDMDL
MODEL 2
REMARK VINA RESULT: -8.358931097      3.238      6.360
REMARK  8 active torsions:
REMARK  status: ('A' for Active; 'I' for Inactive)
REMARK    1  A    between atoms: C2_2  and  N1_3 
REMARK    2  A    between atoms: C7_12  and  C8_13 
REMARK    3  A    between atoms: C9_14  and  C10_15 
REMARK    4  A    between atoms: C13_18  and  N4_19 
REMARK    5  A    between atoms: C15_25  and  C16_26 
REMARK    6  A    between atoms: C19_29  and  S1_30 
REMARK    7  A    between atoms: S1_30  and  N6_33 
REMARK    8  A    between atoms: N6_33  and  N7_35 
ROOT
HETATM    1  N1  UNL     1      57.213  26.454  17.323  1.00  0.00    -0.341 N 
HETATM    2  C3  UNL     1      56.188  27.341  17.241  1.00  0.00     0.185 C 
HETATM    3  N2  UNL     1      55.603  27.890  16.134  1.00  0.00    -0.338 N 
ATOM      4  H2  UNL     1      54.756  28.430  16.306  1.00  0.00     0.168 HD
HETATM    5  C4  UNL     1      55.989  27.814  14.863  1.00  0.00     0.119 A 
HETATM    6  N3  UNL     1      55.657  28.255  13.646  1.00  0.00    -0.351 N 
ATOM      7  H3  UNL     1      54.914  28.856  13.289  1.00  0.00     0.166 HD
HETATM    8  C5  UNL     1      56.677  27.602  13.080  1.00  0.00     0.106 A 
HETATM    9  C6  UNL     1      57.009  27.154  14.340  1.00  0.00     0.044 A 
HETATM   10  C7  UNL     1      57.957  26.358  14.966  1.00  0.00     0.061 C 
HETATM   11  C15 UNL     1      58.049  26.139  16.323  1.00  0.00     0.065 C 
ENDROOT
BRANCH  11  12
HETATM   12  C16 UNL     1      59.269  25.452  16.730  1.00  0.00    -0.008 A 
HETATM   13  C17 UNL     1      60.441  26.099  17.061  1.00  0.00     0.015 A 
HETATM   14  C18 UNL     1      61.565  25.374  17.436  1.00  0.00     0.023 A 
HETATM   15  C19 UNL     1      61.559  23.994  17.495  1.00  0.00     0.039 A 
HETATM   16  C22 UNL     1      60.404  23.338  17.171  1.00  0.00     0.023 A 
HETATM   17  C23 UNL     1      59.294  24.064  16.800  1.00  0.00     0.015 A 
BRANCH  15  18
HETATM   18  S1  UNL     1      63.024  23.198  17.979  1.00  0.00     0.066 S 
HETATM   19  C20 UNL     1      62.727  21.446  18.187  1.00  0.00     0.143 C 
HETATM   20  O1  UNL     1      63.563  23.715  19.279  1.00  0.00    -0.244 OA
BRANCH  18  21
HETATM   21  N6  UNL     1      64.166  23.345  16.917  1.00  0.00    -0.255 N 
ATOM     22  H6  UNL     1      64.287  22.670  16.162  1.00  0.00     0.197 HD
BRANCH  21  23
HETATM   23  N7  UNL     1      65.014  24.452  17.058  1.00  0.00    -0.291 N 
HETATM   24  C21 UNL     1      65.635  24.986  16.061  1.00  0.00     0.207 C 
HETATM   25  N8  UNL     1      66.466  26.107  16.334  1.00  0.00    -0.095 NA
ATOM     26  H7  UNL     1      65.147  24.852  17.987  1.00  0.00     0.188 HD
ENDBRANCH  21  23
ENDBRANCH  18  21
ENDBRANCH  15  18
ENDBRANCH  11  12
BRANCH   1  27
HETATM   27  C2  UNL     1      57.393  25.814  18.604  1.00  0.00     0.125 C 
HETATM   28  C1  UNL     1      57.377  26.875  19.686  1.00  0.00     0.027 C 
ENDBRANCH   1  27
BRANCH  10  29
HETATM   29  C8  UNL     1      58.946  25.686  14.185  1.00  0.00    -0.058 C 
HETATM   30  C9  UNL     1      59.794  25.136  13.527  1.00  0.00    -0.060 C 
BRANCH  30  31
HETATM   31  C10 UNL     1      60.811  24.503  12.734  1.00  0.00     0.033 A 
HETATM   32  C11 UNL     1      62.130  24.390  13.142  1.00  0.00     0.026 A 
HETATM   33  C12 UNL     1      63.090  23.779  12.365  1.00  0.00     0.049 A 
HETATM   34  C13 UNL     1      62.742  23.258  11.139  1.00  0.00     0.098 A 
HETATM   35  N5  UNL     1      61.472  23.365  10.743  1.00  0.00    -0.351 N 
HETATM   36  C14 UNL     1      60.529  23.960  11.495  1.00  0.00     0.110 A 
ATOM     37  H5  UNL     1      61.206  22.982   9.836  1.00  0.00     0.166 HD
BRANCH  34  38
HETATM   38  N4  UNL     1      63.635  22.669  10.376  1.00  0.00    -0.385 N 
ATOM     39  H42 UNL     1      64.388  22.117  10.786  1.00  0.00     0.157 HD
ATOM     40  H41 UNL     1      63.595  22.752   9.360  1.00  0.00     0.157 HD
ENDBRANCH  34  38
ENDBRANCH  30  31
ENDBRANCH  10  29
TORSDOF 8
ENDMDL
MODEL 3
REMARK VINA RESULT: -8.170339039      3.111      6.193
REMARK  8 active torsions:
REMARK  status: ('A' for Active; 'I' for Inactive)
REMARK    1  A    between atoms: C2_2  and  N1_3 
REMARK    2  A    between atoms: C7_12  and  C8_13 
REMARK    3  A    between atoms: C9_14  and  C10_15 
REMARK    4  A    between atoms: C13_18  and  N4_19 
REMARK    5  A    between atoms: C15_25  and  C16_26 
REMARK    6  A    between atoms: C19_29  and  S1_30 
REMARK    7  A    between atoms: S1_30  and  N6_33 
REMARK    8  A    between atoms: N6_33  and  N7_35 
ROOT
HETATM    1  N1  UNL     1      59.927  24.179  15.904  1.00  0.00    -0.341 N 
HETATM    2  C3  UNL     1      60.618  23.687  16.965  1.00  0.00     0.185 C 
HETATM    3  N2  UNL     1      61.913  23.255  17.031  1.00  0.00    -0.338 N 
ATOM      4  H2  UNL     1      62.263  23.055  17.968  1.00  0.00     0.168 HD
HETATM    5  C4  UNL     1      62.779  23.061  16.039  1.00  0.00     0.119 A 
HETATM    6  N3  UNL     1      64.024  22.632  15.815  1.00  0.00    -0.351 N 
ATOM      7  H3  UNL     1      64.773  22.284  16.414  1.00  0.00     0.166 HD
HETATM    8  C5  UNL     1      63.906  22.838  14.498  1.00  0.00     0.106 A 
HETATM    9  C6  UNL     1      62.624  23.278  14.744  1.00  0.00     0.044 A 
HETATM   10  C7  UNL     1      61.522  23.768  14.059  1.00  0.00     0.061 C 
HETATM   11  C15 UNL     1      60.305  24.085  14.620  1.00  0.00     0.065 C 
ENDROOT
BRANCH  11  12
HETATM   12  C16 UNL     1      59.256  24.357  13.646  1.00  0.00    -0.008 A 
HETATM   13  C17 UNL     1      58.837  25.626  13.301  1.00  0.00     0.015 A 
HETATM   14  C18 UNL     1      57.826  25.804  12.365  1.00  0.00     0.023 A 
HETATM   15  C19 UNL     1      57.206  24.737  11.747  1.00  0.00     0.039 A 
HETATM   16  C22 UNL     1      57.610  23.474  12.076  1.00  0.00     0.023 A 
HETATM   17  C23 UNL     1      58.613  23.305  13.005  1.00  0.00     0.015 A 
BRANCH  15  18
HETATM   18  S1  UNL     1      55.956  25.085  10.592  1.00  0.00     0.066 S 
HETATM   19  C20 UNL     1      54.945  23.633  10.331  1.00  0.00     0.143 C 
HETATM   20  O1  UNL     1      56.499  25.496   9.256  1.00  0.00    -0.244 OA
BRANCH  18  21
HETATM   21  N6  UNL     1      54.999  26.229  11.071  1.00  0.00    -0.255 N 
ATOM     22  H6  UNL     1      54.225  26.049  11.710  1.00  0.00     0.197 HD
BRANCH  21  23
HETATM   23  N7  UNL     1      55.260  27.514  10.574  1.00  0.00    -0.291 N 
HETATM   24  C21 UNL     1      55.422  28.538  11.341  1.00  0.00     0.207 C 
HETATM   25  N8  UNL     1      55.683  29.787  10.716  1.00  0.00    -0.095 NA
ATOM     26  H7  UNL     1      55.324  27.644   9.564  1.00  0.00     0.188 HD
ENDBRANCH  21  23
ENDBRANCH  18  21
ENDBRANCH  15  18
ENDBRANCH  11  12
BRANCH   1  27
HETATM   27  C2  UNL     1      58.689  24.852  16.214  1.00  0.00     0.125 C 
HETATM   28  C1  UNL     1      59.001  26.118  16.985  1.00  0.00     0.027 C 
ENDBRANCH   1  27
BRANCH  10  29
HETATM   29  C8  UNL     1      61.601  23.979  12.648  1.00  0.00    -0.058 C 
HETATM   30  C9  UNL     1      61.688  24.153  11.458  1.00  0.00    -0.060 C 
BRANCH  30  31
HETATM   31  C10 UNL     1      61.815  24.370  10.044  1.00  0.00     0.033 A 
HETATM   32  C11 UNL     1      60.730  24.430   9.185  1.00  0.00     0.026 A 
HETATM   33  C12 UNL     1      60.875  24.638   7.831  1.00  0.00     0.049 A 
HETATM   34  C13 UNL     1      62.135  24.795   7.297  1.00  0.00     0.098 A 
HETATM   35  N5  UNL     1      63.183  24.738   8.123  1.00  0.00    -0.351 N 
HETATM   36  C14 UNL     1      63.049  24.535   9.445  1.00  0.00     0.110 A 
ATOM     37  H5  UNL     1      64.119  24.854   7.735  1.00  0.00     0.166 HD
BRANCH  34  38
HETATM   38  N4  UNL     1      62.304  24.996   6.010  1.00  0.00    -0.385 N 
ATOM     39  H42 UNL     1      62.332  25.942   5.630  1.00  0.00     0.157 HD
ATOM     40  H41 UNL     1      62.412  24.213   5.365  1.00  0.00     0.157 HD
ENDBRANCH  34  38
ENDBRANCH  30  31
ENDBRANCH  10  29
TORSDOF 8
ENDMDL
MODEL 4
REMARK VINA RESULT: -8.134889451      3.377      9.073
REMARK  8 active torsions:
REMARK  status: ('A' for Active; 'I' for Inactive)
REMARK    1  A    between atoms: C2_2  and  N1_3 
REMARK    2  A    between atoms: C7_12  and  C8_13 
REMARK    3  A    between atoms: C9_14  and  C10_15 
REMARK    4  A    between atoms: C13_18  and  N4_19 
REMARK    5  A    between atoms: C15_25  and  C16_26 
REMARK    6  A    between atoms: C19_29  and  S1_30 
REMARK    7  A    between atoms: S1_30  and  N6_33 
REMARK    8  A    between atoms: N6_33  and  N7_35 
ROOT
HETATM    1  N1  UNL     1      58.638  24.255   8.100  1.00  0.00    -0.341 N 
HETATM    2  C3  UNL     1      59.021  24.774   6.905  1.00  0.00     0.185 C 
HETATM    3  N2  UNL     1      60.276  25.072   6.452  1.00  0.00    -0.338 N 
ATOM      4  H2  UNL     1      60.339  25.326   5.466  1.00  0.00     0.168 HD
HETATM    5  C4  UNL     1      61.425  25.074   7.122  1.00  0.00     0.119 A 
HETATM    6  N3  UNL     1      62.724  25.346   6.960  1.00  0.00    -0.351 N 
ATOM      7  H3  UNL     1      63.287  25.671   6.174  1.00  0.00     0.166 HD
HETATM    8  C5  UNL     1      62.997  25.024   8.229  1.00  0.00     0.106 A 
HETATM    9  C6  UNL     1      61.656  24.747   8.382  1.00  0.00     0.044 A 
HETATM   10  C7  UNL     1      60.768  24.311   9.355  1.00  0.00     0.061 C 
HETATM   11  C15 UNL     1      59.406  24.180   9.197  1.00  0.00     0.065 C 
ENDROOT
BRANCH  11  12
HETATM   12  C16 UNL     1      58.687  23.924  10.439  1.00  0.00    -0.008 A 
HETATM   13  C17 UNL     1      58.291  24.913  11.315  1.00  0.00     0.015 A 
HETATM   14  C18 UNL     1      57.612  24.589  12.483  1.00  0.00     0.023 A 
HETATM   15  C19 UNL     1      57.307  23.283  12.813  1.00  0.00     0.039 A 
HETATM   16  C22 UNL     1      57.692  22.292  11.955  1.00  0.00     0.023 A 
HETATM   17  C23 UNL     1      58.365  22.621  10.799  1.00  0.00     0.015 A 
BRANCH  15  18
HETATM   18  S1  UNL     1      56.454  23.002  14.299  1.00  0.00     0.066 S 
HETATM   19  C20 UNL     1      55.629  21.415  14.239  1.00  0.00     0.143 C 
HETATM   20  O1  UNL     1      55.405  24.039  14.571  1.00  0.00    -0.244 OA
BRANCH  18  21
HETATM   21  N6  UNL     1      57.406  22.976  15.543  1.00  0.00    -0.255 N 
ATOM     22  H6  UNL     1      58.194  23.619  15.629  1.00  0.00     0.197 HD
BRANCH  21  23
HETATM   23  N7  UNL     1      57.122  22.023  16.531  1.00  0.00    -0.291 N 
HETATM   24  C21 UNL     1      57.308  22.246  17.788  1.00  0.00     0.207 C 
HETATM   25  N8  UNL     1      56.980  21.200  18.692  1.00  0.00    -0.095 NA
ATOM     26  H7  UNL     1      56.753  21.117  16.245  1.00  0.00     0.188 HD
ENDBRANCH  21  23
ENDBRANCH  18  21
ENDBRANCH  15  18
ENDBRANCH  11  12
BRANCH   1  27
HETATM   27  C2  UNL     1      57.287  23.750   8.164  1.00  0.00     0.125 C 
HETATM   28  C1  UNL     1      56.652  23.880   6.796  1.00  0.00     0.027 C 
ENDBRANCH   1  27
BRANCH  10  29
HETATM   29  C8  UNL     1      61.254  23.954  10.650  1.00  0.00    -0.058 C 
HETATM   30  C9  UNL     1      61.668  23.673  11.747  1.00  0.00    -0.060 C 
BRANCH  30  31
HETATM   31  C10 UNL     1      62.175  23.359  13.054  1.00  0.00     0.033 A 
HETATM   32  C11 UNL     1      61.535  23.728  14.225  1.00  0.00     0.026 A 
HETATM   33  C12 UNL     1      62.040  23.417  15.469  1.00  0.00     0.049 A 
HETATM   34  C13 UNL     1      63.220  22.716  15.568  1.00  0.00     0.098 A 
HETATM   35  N5  UNL     1      63.840  22.359  14.441  1.00  0.00    -0.351 N 
HETATM   36  C14 UNL     1      63.354  22.659  13.224  1.00  0.00     0.110 A 
ATOM     37  H5  UNL     1      64.716  21.839  14.506  1.00  0.00     0.166 HD
BRANCH  34  38
HETATM   38  N4  UNL     1      63.726  22.404  16.740  1.00  0.00    -0.385 N 
ATOM     39  H42 UNL     1      63.180  21.873  17.418  1.00  0.00     0.157 HD
ATOM     40  H41 UNL     1      64.672  22.686  16.996  1.00  0.00     0.157 HD
ENDBRANCH  34  38
ENDBRANCH  30  31
ENDBRANCH  10  29
TORSDOF 8
ENDMDL
MODEL 5
REMARK VINA RESULT: -8.098899397      3.100      8.649
REMARK  8 active torsions:
REMARK  status: ('A' for Active; 'I' for Inactive)
REMARK    1  A    between atoms: C2_2  and  N1_3 
REMARK    2  A    between atoms: C7_12  and  C8_13 
REMARK    3  A    between atoms: C9_14  and  C10_15 
REMARK    4  A    between atoms: C13_18  and  N4_19 
REMARK    5  A    between atoms: C15_25  and  C16_26 
REMARK    6  A    between atoms: C19_29  and  S1_30 
REMARK    7  A    between atoms: S1_30  and  N6_33 
REMARK    8  A    between atoms: N6_33  and  N7_35 
ROOT
HETATM    1  N1  UNL     1      58.947  24.204   8.412  1.00  0.00    -0.341 N 
HETATM    2  C3  UNL     1      59.404  24.683   7.227  1.00  0.00     0.185 C 
HETATM    3  N2  UNL     1      60.686  24.945   6.834  1.00  0.00    -0.338 N 
ATOM      4  H2  UNL     1      60.807  25.172   5.847  1.00  0.00     0.168 HD
HETATM    5  C4  UNL     1      61.798  24.944   7.564  1.00  0.00     0.119 A 
HETATM    6  N3  UNL     1      63.109  25.186   7.465  1.00  0.00    -0.351 N 
ATOM      7  H3  UNL     1      63.720  25.479   6.702  1.00  0.00     0.166 HD
HETATM    8  C5  UNL     1      63.308  24.894   8.754  1.00  0.00     0.106 A 
HETATM    9  C6  UNL     1      61.955  24.647   8.843  1.00  0.00     0.044 A 
HETATM   10  C7  UNL     1      61.008  24.253   9.778  1.00  0.00     0.061 C 
HETATM   11  C15 UNL     1      59.655  24.145   9.550  1.00  0.00     0.065 C 
ENDROOT
BRANCH  11  12
HETATM   12  C16 UNL     1      58.866  23.936  10.758  1.00  0.00    -0.008 A 
HETATM   13  C17 UNL     1      58.395  22.705  11.166  1.00  0.00     0.015 A 
HETATM   14  C18 UNL     1      57.645  22.588  12.329  1.00  0.00     0.023 A 
HETATM   15  C19 UNL     1      57.342  23.680  13.117  1.00  0.00     0.039 A 
HETATM   16  C22 UNL     1      57.802  24.907  12.728  1.00  0.00     0.023 A 
HETATM   17  C23 UNL     1      58.545  25.015  11.573  1.00  0.00     0.015 A 
BRANCH  15  18
HETATM   18  S1  UNL     1      56.398  23.409  14.550  1.00  0.00     0.066 S 
HETATM   19  C20 UNL     1      55.029  22.317  14.181  1.00  0.00     0.143 C 
HETATM   20  O1  UNL     1      55.819  24.674  15.112  1.00  0.00    -0.244 OA
BRANCH  18  21
HETATM   21  N6  UNL     1      57.226  22.734  15.696  1.00  0.00    -0.255 N 
ATOM     22  H6  UNL     1      56.978  21.818  16.068  1.00  0.00     0.197 HD
BRANCH  21  23
HETATM   23  N7  UNL     1      58.324  23.455  16.184  1.00  0.00    -0.291 N 
HETATM   24  C21 UNL     1      58.458  23.764  17.429  1.00  0.00     0.207 C 
HETATM   25  N8  UNL     1      59.618  24.498  17.799  1.00  0.00    -0.095 NA
ATOM     26  H7  UNL     1      59.048  23.748  15.527  1.00  0.00     0.188 HD
ENDBRANCH  21  23
ENDBRANCH  18  21
ENDBRANCH  15  18
ENDBRANCH  11  12
BRANCH   1  27
HETATM   27  C2  UNL     1      57.585  23.727   8.418  1.00  0.00     0.125 C 
HETATM   28  C1  UNL     1      56.688  24.804   7.843  1.00  0.00     0.027 C 
ENDBRANCH   1  27
BRANCH  10  29
HETATM   29  C8  UNL     1      61.418  23.922  11.106  1.00  0.00    -0.058 C 
HETATM   30  C9  UNL     1      61.770  23.663  12.230  1.00  0.00    -0.060 C 
BRANCH  30  31
HETATM   31  C10 UNL     1      62.207  23.372  13.567  1.00  0.00     0.033 A 
HETATM   32  C11 UNL     1      63.351  22.644  13.849  1.00  0.00     0.026 A 
HETATM   33  C12 UNL     1      63.751  22.376  15.140  1.00  0.00     0.049 A 
HETATM   34  C13 UNL     1      63.000  22.839  16.196  1.00  0.00     0.098 A 
HETATM   35  N5  UNL     1      61.896  23.541  15.927  1.00  0.00    -0.351 N 
HETATM   36  C14 UNL     1      61.499  23.807  14.670  1.00  0.00     0.110 A 
ATOM     37  H5  UNL     1      61.334  23.888  16.704  1.00  0.00     0.166 HD
BRANCH  34  38
HETATM   38  N4  UNL     1      63.357  22.600  17.438  1.00  0.00    -0.385 N 
ATOM     39  H42 UNL     1      64.324  22.372  17.667  1.00  0.00     0.157 HD
ATOM     40  H41 UNL     1      62.676  22.638  18.197  1.00  0.00     0.157 HD
ENDBRANCH  34  38
ENDBRANCH  30  31
ENDBRANCH  10  29
TORSDOF 8
ENDMDL
