MODEL 1
REMARK VINA RESULT: -10.433243124      0.000      0.000
REMARK  6 active torsions:
REMARK  status: ('A' for Active; 'I' for Inactive)
REMARK    1  A    between atoms: C3_3  and  O1_4 
REMARK    2  A    between atoms: C4_6  and  N1_7 
REMARK    3  A    between atoms: N1_7  and  S1_9 
REMARK    4  A    between atoms: S1_9  and  C5_12 
REMARK    5  A    between atoms: C8_15  and  N2_16 
REMARK    6  A    between atoms: N2_16  and  C9_18 
ROOT
HETATM    1  C5  UNL     1      63.439  24.217  14.852  1.00  0.00     0.080 A 
HETATM    2  C6  UNL     1      62.514  24.707  13.960  1.00  0.00     0.027 A 
HETATM    3  C7  UNL     1      62.572  24.390  12.599  1.00  0.00     0.031 A 
HETATM    4  C8  UNL     1      63.554  23.574  12.092  1.00  0.00     0.049 A 
HETATM    5  C18 UNL     1      64.490  23.081  13.002  1.00  0.00     0.031 A 
HETATM    6  C19 UNL     1      64.433  23.394  14.339  1.00  0.00     0.027 A 
ENDROOT
BRANCH   4   7
HETATM    7  N2  UNL     1      63.631  23.237  10.718  1.00  0.00    -0.192 N 
ATOM      8  H2  UNL     1      64.314  22.524  10.460  1.00  0.00     0.184 HD
BRANCH   7   9
HETATM    9  C9  UNL     1      62.935  23.732   9.773  1.00  0.00     0.683 A 
HETATM   10  N3  UNL     1      63.473  24.523   8.831  1.00  0.00    -0.189 N 
HETATM   11  C10 UNL     1      62.722  25.036   7.837  1.00  0.00     0.077 A 
ATOM     12  H3  UNL     1      64.469  24.740   8.869  1.00  0.00     0.184 HD
HETATM   13  C11 UNL     1      63.286  25.861   6.854  1.00  0.00     0.120 A 
HETATM   14  C16 UNL     1      61.379  24.770   7.749  1.00  0.00     0.022 A 
HETATM   15  N4  UNL     1      62.549  26.374   5.865  1.00  0.00    -0.349 N 
HETATM   16  C12 UNL     1      61.233  26.115   5.778  1.00  0.00     0.116 A 
ATOM     17  H4  UNL     1      62.992  26.971   5.167  1.00  0.00     0.167 HD
HETATM   18  N5  UNL     1      60.317  26.516   4.884  1.00  0.00    -0.352 N 
HETATM   19  C15 UNL     1      60.643  25.308   6.723  1.00  0.00     0.023 A 
HETATM   20  C13 UNL     1      59.152  25.968   5.263  1.00  0.00     0.090 A 
ATOM     21  H5  UNL     1      60.475  27.118   4.076  1.00  0.00     0.166 HD
HETATM   22  C14 UNL     1      59.294  25.206   6.401  1.00  0.00     0.033 A 
HETATM   23  C17 UNL     1      60.832  23.961   8.715  1.00  0.00     0.121 A 
HETATM   24  N6  UNL     1      61.607  23.468   9.689  1.00  0.00    -0.201 N 
ATOM     25  H6  UNL     1      61.181  22.870  10.397  1.00  0.00     0.183 HD
ENDBRANCH   7   9
ENDBRANCH   4   7
BRANCH   1  26
HETATM   26  S1  UNL     1      63.378  24.592  16.573  1.00  0.00     0.264 S 
HETATM   27  O2  UNL     1      64.692  24.082  17.162  1.00  0.00    -0.200 OA
HETATM   28  O3  UNL     1      63.400  26.074  16.808  1.00  0.00    -0.200 OA
BRANCH  26  29
HETATM   29  N1  UNL     1      62.117  23.754  17.274  1.00  0.00    -0.262 N 
ATOM     30  H1  UNL     1      62.390  22.830  17.609  1.00  0.00     0.180 HD
BRANCH  29  31
HETATM   31  C4  UNL     1      60.912  24.013  17.477  1.00  0.00     0.165 A 
HETATM   32  C3  UNL     1      60.284  25.030  18.154  1.00  0.00     0.136 A 
HETATM   33  C2  UNL     1      58.908  24.856  18.084  1.00  0.00     0.061 A 
HETATM   34  C1  UNL     1      57.869  25.727  18.682  1.00  0.00     0.073 C 
HETATM   35  N8  UNL     1      58.751  23.733  17.363  1.00  0.00    -0.297 N 
HETATM   36  N7  UNL     1      59.907  23.223  16.998  1.00  0.00    -0.281 N 
HETATM   37  C20 UNL     1      57.417  23.188  17.055  1.00  0.00     0.177 C 
ATOM     38  H7  UNL     1      60.032  22.374  16.445  1.00  0.00     0.189 HD
BRANCH  32  39
HETATM   39  O1  UNL     1      60.910  26.059  18.800  1.00  0.00    -0.355 OA
ATOM     40  H1  UNL     1      61.616  26.580  18.436  1.00  0.00     0.218 HD
ENDBRANCH  32  39
ENDBRANCH  29  31
ENDBRANCH  26  29
ENDBRANCH   1  26
TORSDOF 6
ENDMDL
MODEL 2
REMARK VINA RESULT: -10.363839362      1.148      1.409
REMARK  6 active torsions:
REMARK  status: ('A' for Active; 'I' for Inactive)
REMARK    1  A    between atoms: C3_3  and  O1_4 
REMARK    2  A    between atoms: C4_6  and  N1_7 
REMARK    3  A    between atoms: N1_7  and  S1_9 
REMARK    4  A    between atoms: S1_9  and  C5_12 
REMARK    5  A    between atoms: C8_15  and  N2_16 
REMARK    6  A    between atoms: N2_16  and  C9_18 
ROOT
HETATM    1  C5  UNL     1      63.537  24.335  14.959  1.00  0.00     0.080 A 
HETATM    2  C6  UNL     1      62.614  24.841  14.074  1.00  0.00     0.027 A 
HETATM    3  C7  UNL     1      62.613  24.466  12.727  1.00  0.00     0.031 A 
HETATM    4  C8  UNL     1      63.532  23.576  12.226  1.00  0.00     0.049 A 
HETATM    5  C18 UNL     1      64.466  23.068  13.129  1.00  0.00     0.031 A 
HETATM    6  C19 UNL     1      64.468  23.437  14.454  1.00  0.00     0.027 A 
ENDROOT
BRANCH   4   7
HETATM    7  N2  UNL     1      63.548  23.180  10.866  1.00  0.00    -0.192 N 
ATOM      8  H2  UNL     1      64.165  22.405  10.623  1.00  0.00     0.184 HD
BRANCH   7   9
HETATM    9  C9  UNL     1      62.871  23.692   9.916  1.00  0.00     0.683 A 
HETATM   10  N3  UNL     1      63.441  24.435   8.955  1.00  0.00    -0.189 N 
HETATM   11  C10 UNL     1      62.710  24.967   7.956  1.00  0.00     0.077 A 
ATOM     12  H3  UNL     1      64.448  24.600   8.981  1.00  0.00     0.184 HD
HETATM   13  C11 UNL     1      63.307  25.742   6.952  1.00  0.00     0.120 A 
HETATM   14  C16 UNL     1      61.354  24.770   7.883  1.00  0.00     0.022 A 
HETATM   15  N4  UNL     1      62.591  26.272   5.959  1.00  0.00    -0.349 N 
HETATM   16  C12 UNL     1      61.262  26.081   5.887  1.00  0.00     0.116 A 
ATOM     17  H4  UNL     1      63.058  26.831   5.246  1.00  0.00     0.167 HD
HETATM   18  N5  UNL     1      60.361  26.512   4.992  1.00  0.00    -0.352 N 
HETATM   19  C15 UNL     1      60.638  25.326   6.853  1.00  0.00     0.023 A 
HETATM   20  C13 UNL     1      59.172  26.033   5.390  1.00  0.00     0.090 A 
ATOM     21  H5  UNL     1      60.543  27.089   4.171  1.00  0.00     0.166 HD
HETATM   22  C14 UNL     1      59.284  25.287   6.542  1.00  0.00     0.033 A 
HETATM   23  C17 UNL     1      60.774  24.010   8.870  1.00  0.00     0.121 A 
HETATM   24  N6  UNL     1      61.530  23.496   9.848  1.00  0.00    -0.201 N 
ATOM     25  H6  UNL     1      61.080  22.935  10.571  1.00  0.00     0.183 HD
ENDBRANCH   7   9
ENDBRANCH   4   7
BRANCH   1  26
HETATM   26  S1  UNL     1      63.549  24.782  16.663  1.00  0.00     0.264 S 
HETATM   27  O2  UNL     1      63.522  23.469  17.444  1.00  0.00    -0.200 OA
HETATM   28  O3  UNL     1      64.846  25.431  17.047  1.00  0.00    -0.200 OA
BRANCH  26  29
HETATM   29  N1  UNL     1      62.163  25.642  17.017  1.00  0.00    -0.262 N 
ATOM     30  H1  UNL     1      62.243  26.635  16.801  1.00  0.00     0.180 HD
BRANCH  29  31
HETATM   31  C4  UNL     1      61.049  25.331  17.489  1.00  0.00     0.165 A 
HETATM   32  C3  UNL     1      60.115  24.393  17.120  1.00  0.00     0.136 A 
HETATM   33  C2  UNL     1      59.029  24.452  17.984  1.00  0.00     0.061 A 
HETATM   34  C1  UNL     1      57.808  23.615  17.937  1.00  0.00     0.073 C 
HETATM   35  N8  UNL     1      59.346  25.429  18.850  1.00  0.00    -0.297 N 
HETATM   36  N7  UNL     1      60.520  25.958  18.581  1.00  0.00    -0.281 N 
HETATM   37  C20 UNL     1      58.442  25.818  19.947  1.00  0.00     0.177 C 
ATOM     38  H7  UNL     1      60.963  26.713  19.104  1.00  0.00     0.189 HD
BRANCH  32  39
HETATM   39  O1  UNL     1      60.229  23.530  16.067  1.00  0.00    -0.355 OA
ATOM     40  H1  UNL     1      60.443  23.785  15.177  1.00  0.00     0.218 HD
ENDBRANCH  32  39
ENDBRANCH  29  31
ENDBRANCH  26  29
ENDBRANCH   1  26
TORSDOF 6
ENDMDL
MODEL 3
REMARK VINA RESULT: -10.133640640      1.593      2.411
REMARK  6 active torsions:
REMARK  status: ('A' for Active; 'I' for Inactive)
REMARK    1  A    between atoms: C3_3  and  O1_4 
REMARK    2  A    between atoms: C4_6  and  N1_7 
REMARK    3  A    between atoms: N1_7  and  S1_9 
REMARK    4  A    between atoms: S1_9  and  C5_12 
REMARK    5  A    between atoms: C8_15  and  N2_16 
REMARK    6  A    between atoms: N2_16  and  C9_18 
ROOT
HETATM    1  C5  UNL     1      63.287  24.254  16.192  1.00  0.00     0.080 A 
HETATM    2  C6  UNL     1      62.928  25.007  15.100  1.00  0.00     0.027 A 
HETATM    3  C7  UNL     1      62.948  24.474  13.807  1.00  0.00     0.031 A 
HETATM    4  C8  UNL     1      63.325  23.175  13.570  1.00  0.00     0.049 A 
HETATM    5  C18 UNL     1      63.689  22.416  14.684  1.00  0.00     0.031 A 
HETATM    6  C19 UNL     1      63.670  22.941  15.954  1.00  0.00     0.027 A 
ENDROOT
BRANCH   4   7
HETATM    7  N2  UNL     1      63.350  22.612  12.270  1.00  0.00    -0.192 N 
ATOM      8  H2  UNL     1      63.770  21.686  12.180  1.00  0.00     0.184 HD
BRANCH   7   9
HETATM    9  C9  UNL     1      62.903  23.143  11.202  1.00  0.00     0.683 A 
HETATM   10  N3  UNL     1      61.588  23.261  10.962  1.00  0.00    -0.189 N 
HETATM   11  C10 UNL     1      61.132  23.829   9.828  1.00  0.00     0.077 A 
ATOM     12  H3  UNL     1      60.920  22.915  11.652  1.00  0.00     0.184 HD
HETATM   13  C11 UNL     1      59.758  23.953   9.580  1.00  0.00     0.120 A 
HETATM   14  C16 UNL     1      61.995  24.308   8.875  1.00  0.00     0.022 A 
HETATM   15  N4  UNL     1      59.298  24.513   8.460  1.00  0.00    -0.349 N 
HETATM   16  C12 UNL     1      60.142  24.982   7.524  1.00  0.00     0.116 A 
ATOM     17  H4  UNL     1      58.292  24.587   8.312  1.00  0.00     0.167 HD
HETATM   18  N5  UNL     1      59.904  25.574   6.344  1.00  0.00    -0.352 N 
HETATM   19  C15 UNL     1      61.498  24.880   7.731  1.00  0.00     0.023 A 
HETATM   20  C13 UNL     1      61.103  25.844   5.806  1.00  0.00     0.090 A 
ATOM     21  H5  UNL     1      58.992  25.779   5.937  1.00  0.00     0.166 HD
HETATM   22  C14 UNL     1      62.132  25.435   6.625  1.00  0.00     0.033 A 
HETATM   23  C17 UNL     1      63.340  24.184   9.124  1.00  0.00     0.121 A 
HETATM   24  N6  UNL     1      63.759  23.615  10.261  1.00  0.00    -0.201 N 
ATOM     25  H6  UNL     1      64.762  23.532  10.426  1.00  0.00     0.183 HD
ENDBRANCH   7   9
ENDBRANCH   4   7
BRANCH   1  26
HETATM   26  S1  UNL     1      63.256  24.901  17.832  1.00  0.00     0.264 S 
HETATM   27  O2  UNL     1      64.040  23.909  18.691  1.00  0.00    -0.200 OA
HETATM   28  O3  UNL     1      64.027  26.184  17.925  1.00  0.00    -0.200 OA
BRANCH  26  29
HETATM   29  N1  UNL     1      61.679  24.947  18.376  1.00  0.00    -0.262 N 
ATOM     30  H1  UNL     1      61.607  24.928  19.393  1.00  0.00     0.180 HD
BRANCH  29  31
HETATM   31  C4  UNL     1      60.568  25.001  17.807  1.00  0.00     0.165 A 
HETATM   32  C3  UNL     1      59.812  24.054  17.160  1.00  0.00     0.136 A 
HETATM   33  C2  UNL     1      58.638  24.633  16.695  1.00  0.00     0.061 A 
HETATM   34  C1  UNL     1      57.551  23.961  15.944  1.00  0.00     0.073 C 
HETATM   35  N8  UNL     1      58.726  25.917  17.079  1.00  0.00    -0.297 N 
HETATM   36  N7  UNL     1      59.844  26.156  17.730  1.00  0.00    -0.281 N 
HETATM   37  C20 UNL     1      57.665  26.893  16.775  1.00  0.00     0.177 C 
ATOM     38  H7  UNL     1      60.124  27.058  18.114  1.00  0.00     0.189 HD
BRANCH  32  39
HETATM   39  O1  UNL     1      60.154  22.741  16.995  1.00  0.00    -0.355 OA
ATOM     40  H1  UNL     1      60.853  22.299  17.463  1.00  0.00     0.218 HD
ENDBRANCH  32  39
ENDBRANCH  29  31
ENDBRANCH  26  29
ENDBRANCH   1  26
TORSDOF 6
ENDMDL
MODEL 4
REMARK VINA RESULT: -9.933286354      1.750      2.302
REMARK  6 active torsions:
REMARK  status: ('A' for Active; 'I' for Inactive)
REMARK    1  A    between atoms: C3_3  and  O1_4 
REMARK    2  A    between atoms: C4_6  and  N1_7 
REMARK    3  A    between atoms: N1_7  and  S1_9 
REMARK    4  A    between atoms: S1_9  and  C5_12 
REMARK    5  A    between atoms: C8_15  and  N2_16 
REMARK    6  A    between atoms: N2_16  and  C9_18 
ROOT
HETATM    1  C5  UNL     1      63.124  24.095  16.653  1.00  0.00     0.080 A 
HETATM    2  C6  UNL     1      63.438  22.811  16.274  1.00  0.00     0.027 A 
HETATM    3  C7  UNL     1      63.634  22.473  14.931  1.00  0.00     0.031 A 
HETATM    4  C8  UNL     1      63.522  23.407  13.931  1.00  0.00     0.049 A 
HETATM    5  C18 UNL     1      63.202  24.707  14.321  1.00  0.00     0.031 A 
HETATM    6  C19 UNL     1      63.008  25.040  15.641  1.00  0.00     0.027 A 
ENDROOT
BRANCH   4   7
HETATM    7  N2  UNL     1      63.719  23.089  12.564  1.00  0.00    -0.192 N 
ATOM      8  H2  UNL     1      64.532  22.514  12.340  1.00  0.00     0.184 HD
BRANCH   7   9
HETATM    9  C9  UNL     1      62.984  23.446  11.586  1.00  0.00     0.683 A 
HETATM   10  N3  UNL     1      63.501  23.920  10.442  1.00  0.00    -0.189 N 
HETATM   11  C10 UNL     1      62.709  24.291   9.417  1.00  0.00     0.077 A 
ATOM     12  H3  UNL     1      64.514  24.000  10.346  1.00  0.00     0.184 HD
HETATM   13  C11 UNL     1      63.251  24.784   8.222  1.00  0.00     0.120 A 
HETATM   14  C16 UNL     1      61.343  24.199   9.504  1.00  0.00     0.022 A 
HETATM   15  N4  UNL     1      62.474  25.153   7.202  1.00  0.00    -0.349 N 
HETATM   16  C12 UNL     1      61.135  25.065   7.286  1.00  0.00     0.116 A 
ATOM     17  H4  UNL     1      62.902  25.508   6.347  1.00  0.00     0.167 HD
HETATM   18  N5  UNL     1      60.178  25.373   6.399  1.00  0.00    -0.352 N 
HETATM   19  C15 UNL     1      60.565  24.585   8.442  1.00  0.00     0.023 A 
HETATM   20  C13 UNL     1      59.007  25.092   6.990  1.00  0.00     0.090 A 
ATOM     21  H5  UNL     1      60.313  25.748   5.459  1.00  0.00     0.166 HD
HETATM   22  C14 UNL     1      59.186  24.597   8.263  1.00  0.00     0.033 A 
HETATM   23  C17 UNL     1      60.817  23.714  10.677  1.00  0.00     0.121 A 
HETATM   24  N6  UNL     1      61.633  23.355  11.676  1.00  0.00    -0.201 N 
ATOM     25  H6  UNL     1      61.223  22.999  12.539  1.00  0.00     0.183 HD
ENDBRANCH   7   9
ENDBRANCH   4   7
BRANCH   1  26
HETATM   26  S1  UNL     1      62.886  24.547  18.339  1.00  0.00     0.264 S 
HETATM   27  O2  UNL     1      63.274  23.320  19.163  1.00  0.00    -0.200 OA
HETATM   28  O3  UNL     1      63.853  25.614  18.759  1.00  0.00    -0.200 OA
BRANCH  26  29
HETATM   29  N1  UNL     1      61.270  24.874  18.599  1.00  0.00    -0.262 N 
ATOM     30  H1  UNL     1      61.052  25.053  19.579  1.00  0.00     0.180 HD
BRANCH  29  31
HETATM   31  C4  UNL     1      60.271  24.948  17.853  1.00  0.00     0.165 A 
HETATM   32  C3  UNL     1      59.594  24.007  17.115  1.00  0.00     0.136 A 
HETATM   33  C2  UNL     1      58.537  24.611  16.448  1.00  0.00     0.061 A 
HETATM   34  C1  UNL     1      57.562  23.954  15.545  1.00  0.00     0.073 C 
HETATM   35  N8  UNL     1      58.611  25.904  16.807  1.00  0.00    -0.297 N 
HETATM   36  N7  UNL     1      59.616  26.124  17.626  1.00  0.00    -0.281 N 
HETATM   37  C20 UNL     1      57.655  26.906  16.305  1.00  0.00     0.177 C 
ATOM     38  H7  UNL     1      59.866  27.029  18.028  1.00  0.00     0.189 HD
BRANCH  32  39
HETATM   39  O1  UNL     1      59.905  22.678  17.044  1.00  0.00    -0.355 OA
ATOM     40  H1  UNL     1      60.459  22.217  17.663  1.00  0.00     0.218 HD
ENDBRANCH  32  39
ENDBRANCH  29  31
ENDBRANCH  26  29
ENDBRANCH   1  26
TORSDOF 6
ENDMDL
MODEL 5
REMARK VINA RESULT: -9.872282094      0.822      1.572
REMARK  6 active torsions:
REMARK  status: ('A' for Active; 'I' for Inactive)
REMARK    1  A    between atoms: C3_3  and  O1_4 
REMARK    2  A    between atoms: C4_6  and  N1_7 
REMARK    3  A    between atoms: N1_7  and  S1_9 
REMARK    4  A    between atoms: S1_9  and  C5_12 
REMARK    5  A    between atoms: C8_15  and  N2_16 
REMARK    6  A    between atoms: N2_16  and  C9_18 
ROOT
HETATM    1  C5  UNL     1      63.396  24.263  14.719  1.00  0.00     0.080 A 
HETATM    2  C6  UNL     1      62.541  24.851  13.817  1.00  0.00     0.027 A 
HETATM    3  C7  UNL     1      62.598  24.547  12.453  1.00  0.00     0.031 A 
HETATM    4  C8  UNL     1      63.508  23.647  11.954  1.00  0.00     0.049 A 
HETATM    5  C18 UNL     1      64.372  23.055  12.874  1.00  0.00     0.031 A 
HETATM    6  C19 UNL     1      64.317  23.355  14.215  1.00  0.00     0.027 A 
ENDROOT
BRANCH   4   7
HETATM    7  N2  UNL     1      63.582  23.321  10.576  1.00  0.00    -0.192 N 
ATOM      8  H2  UNL     1      64.280  22.629  10.307  1.00  0.00     0.184 HD
BRANCH   7   9
HETATM    9  C9  UNL     1      62.864  23.805   9.641  1.00  0.00     0.683 A 
HETATM   10  N3  UNL     1      61.525  23.729   9.658  1.00  0.00    -0.189 N 
HETATM   11  C10 UNL     1      60.782  24.248   8.660  1.00  0.00     0.077 A 
ATOM     12  H3  UNL     1      61.060  23.270  10.441  1.00  0.00     0.184 HD
HETATM   13  C11 UNL     1      59.383  24.170   8.681  1.00  0.00     0.120 A 
HETATM   14  C16 UNL     1      61.367  24.874   7.589  1.00  0.00     0.022 A 
HETATM   15  N4  UNL     1      58.639  24.681   7.698  1.00  0.00    -0.349 N 
HETATM   16  C12 UNL     1      59.211  25.294   6.647  1.00  0.00     0.116 A 
ATOM     17  H4  UNL     1      57.623  24.605   7.745  1.00  0.00     0.167 HD
HETATM   18  N5  UNL     1      58.667  25.871   5.565  1.00  0.00    -0.352 N 
HETATM   19  C15 UNL     1      60.582  25.393   6.590  1.00  0.00     0.023 A 
HETATM   20  C13 UNL     1      59.689  26.332   4.826  1.00  0.00     0.090 A 
ATOM     21  H5  UNL     1      57.673  25.946   5.347  1.00  0.00     0.166 HD
HETATM   22  C14 UNL     1      60.904  26.063   5.415  1.00  0.00     0.033 A 
HETATM   23  C17 UNL     1      62.739  24.949   7.575  1.00  0.00     0.121 A 
HETATM   24  N6  UNL     1      63.446  24.422   8.581  1.00  0.00    -0.201 N 
ATOM     25  H6  UNL     1      64.464  24.487   8.551  1.00  0.00     0.183 HD
ENDBRANCH   7   9
ENDBRANCH   4   7
BRANCH   1  26
HETATM   26  S1  UNL     1      63.334  24.621  16.444  1.00  0.00     0.264 S 
HETATM   27  O2  UNL     1      64.670  24.154  17.019  1.00  0.00    -0.200 OA
HETATM   28  O3  UNL     1      63.303  26.100  16.693  1.00  0.00    -0.200 OA
BRANCH  26  29
HETATM   29  N1  UNL     1      62.110  23.730  17.147  1.00  0.00    -0.262 N 
ATOM     30  H1  UNL     1      62.399  22.786  17.401  1.00  0.00     0.180 HD
BRANCH  29  31
HETATM   31  C4  UNL     1      60.917  23.970  17.430  1.00  0.00     0.165 A 
HETATM   32  C3  UNL     1      60.320  24.975  18.152  1.00  0.00     0.136 A 
HETATM   33  C2  UNL     1      58.945  24.781  18.171  1.00  0.00     0.061 A 
HETATM   34  C1  UNL     1      57.935  25.633  18.840  1.00  0.00     0.073 C 
HETATM   35  N8  UNL     1      58.758  23.659  17.455  1.00  0.00    -0.297 N 
HETATM   36  N7  UNL     1      59.894  23.168  17.012  1.00  0.00    -0.281 N 
HETATM   37  C20 UNL     1      57.415  23.096  17.231  1.00  0.00     0.177 C 
ATOM     38  H7  UNL     1      59.995  22.323  16.448  1.00  0.00     0.189 HD
BRANCH  32  39
HETATM   39  O1  UNL     1      60.971  26.010  18.762  1.00  0.00    -0.355 OA
ATOM     40  H1  UNL     1      60.615  26.535  19.469  1.00  0.00     0.218 HD
ENDBRANCH  32  39
ENDBRANCH  29  31
ENDBRANCH  26  29
ENDBRANCH   1  26
TORSDOF 6
ENDMDL
