MODEL 1
REMARK VINA RESULT: -7.878277839      0.000      0.000
REMARK  3 active torsions:
REMARK  status: ('A' for Active; 'I' for Inactive)
REMARK    1  A    between atoms: N2_9  and  C8_10 
REMARK    2  A    between atoms: C8_10  and  C9_11 
REMARK    3  A    between atoms: C9_11  and  N3_12 
ROOT
HETATM    1  C1  UNL     1      64.497  24.098  17.301  1.00  0.00     0.309 C 
HETATM    2  N1  UNL     1      63.140  24.126  16.834  1.00  0.00     0.084 N 
HETATM    3  C2  UNL     1      63.099  24.263  15.395  1.00  0.00     0.271 C 
HETATM    4  C3  UNL     1      63.640  23.018  14.703  1.00  0.00     0.030 C 
HETATM    5  C4  UNL     1      64.517  23.481  13.549  1.00  0.00     0.002 C 
HETATM    6  C5  UNL     1      63.814  23.212  12.230  1.00  0.00     0.002 C 
HETATM    7  C6  UNL     1      62.608  24.082  12.070  1.00  0.00     0.020 C 
HETATM    8  C7  UNL     1      61.307  23.267  11.974  1.00  0.00     0.122 C 
HETATM    9  N2  UNL     1      60.654  23.764  10.786  1.00  0.00    -0.390 N 
HETATM   10  C14 UNL     1      59.415  24.395  11.017  1.00  0.00     0.085 C 
HETATM   11  C15 UNL     1      58.219  23.521  11.189  1.00  0.00     0.276 C 
HETATM   12  N5  UNL     1      57.176  24.346  11.821  1.00  0.00    -0.071 N 
ATOM     13  H51 UNL     1      57.031  25.212  11.302  1.00  0.00     0.277 HD
ATOM     14  H52 UNL     1      57.503  24.735  12.706  1.00  0.00     0.277 HD
HETATM   15  C16 UNL     1      55.940  23.641  11.998  1.00  0.00     0.234 C 
HETATM   16  C17 UNL     1      55.511  23.534  13.446  1.00  0.00     0.055 C 
HETATM   17  C18 UNL     1      55.442  24.856  14.146  1.00  0.00     0.233 C 
HETATM   18  N6  UNL     1      55.883  24.637  15.523  1.00  0.00    -0.075 N 
ATOM     19  H61 UNL     1      56.346  23.736  15.645  1.00  0.00     0.277 HD
ATOM     20  H62 UNL     1      55.103  24.483  16.162  1.00  0.00     0.277 HD
HETATM   21  C19 UNL     1      56.721  25.746  15.931  1.00  0.00     0.233 C 
HETATM   22  C20 UNL     1      57.066  25.650  17.389  1.00  0.00     0.055 C 
HETATM   23  C21 UNL     1      58.465  26.142  17.695  1.00  0.00     0.233 C 
HETATM   24  N7  UNL     1      59.039  25.271  18.708  1.00  0.00    -0.075 N 
ATOM     25  H71 UNL     1      58.924  24.288  18.462  1.00  0.00     0.277 HD
ATOM     26  H72 UNL     1      58.488  25.287  19.567  1.00  0.00     0.277 HD
HETATM   27  C22 UNL     1      60.424  25.592  18.965  1.00  0.00     0.234 C 
HETATM   28  C23 UNL     1      61.272  24.559  18.272  1.00  0.00     0.057 C 
HETATM   29  C24 UNL     1      62.348  25.182  17.414  1.00  0.00     0.273 C 
ENDROOT
BRANCH   9  30
HETATM   30  C8  UNL     1      60.774  22.905   9.657  1.00  0.00     0.141 C 
BRANCH  30  31
HETATM   31  C9  UNL     1      61.902  23.370   8.802  1.00  0.00     0.136 C 
BRANCH  31  32
HETATM   32  N3  UNL     1      61.795  24.704   8.281  1.00  0.00    -0.408 N 
HETATM   33  C10 UNL     1      63.013  25.280   7.837  1.00  0.00     0.144 C 
HETATM   34  C11 UNL     1      63.073  25.890   6.500  1.00  0.00     0.251 C 
HETATM   35  N4  UNL     1      61.834  26.332   5.951  1.00  0.00    -0.072 N 
HETATM   36  C12 UNL     1      60.946  25.156   5.997  1.00  0.00     0.251 C 
ATOM     37  H42 UNL     1      61.449  27.155   6.414  1.00  0.00     0.277 HD
ATOM     38  H41 UNL     1      61.920  26.746   5.023  1.00  0.00     0.277 HD
HETATM   39  C13 UNL     1      60.655  24.910   7.439  1.00  0.00     0.144 C 
ENDBRANCH  31  32
ENDBRANCH  30  31
ENDBRANCH   9  30
TORSDOF 3
ENDMDL
MODEL 2
REMARK VINA RESULT: -7.726420439      2.396      8.095
REMARK  3 active torsions:
REMARK  status: ('A' for Active; 'I' for Inactive)
REMARK    1  A    between atoms: N2_9  and  C8_10 
REMARK    2  A    between atoms: C8_10  and  C9_11 
REMARK    3  A    between atoms: C9_11  and  N3_12 
ROOT
HETATM    1  C1  UNL     1      60.790  25.085   5.353  1.00  0.00     0.309 C 
HETATM    2  N1  UNL     1      60.069  25.315   6.573  1.00  0.00     0.084 N 
HETATM    3  C2  UNL     1      60.704  24.629   7.677  1.00  0.00     0.271 C 
HETATM    4  C3  UNL     1      62.064  25.236   8.001  1.00  0.00     0.030 C 
HETATM    5  C4  UNL     1      63.026  24.087   8.262  1.00  0.00     0.002 C 
HETATM    6  C5  UNL     1      63.345  24.013   9.745  1.00  0.00     0.002 C 
HETATM    7  C6  UNL     1      62.147  23.598  10.538  1.00  0.00     0.020 C 
HETATM    8  C7  UNL     1      61.704  24.680  11.538  1.00  0.00     0.122 C 
HETATM    9  N2  UNL     1      61.603  23.989  12.801  1.00  0.00    -0.390 N 
HETATM   10  C14 UNL     1      60.304  23.947  13.346  1.00  0.00     0.085 C 
HETATM   11  C15 UNL     1      59.828  25.154  14.081  1.00  0.00     0.276 C 
HETATM   12  N5  UNL     1      58.362  25.046  14.174  1.00  0.00    -0.071 N 
ATOM     13  H51 UNL     1      58.086  24.143  14.561  1.00  0.00     0.277 HD
ATOM     14  H52 UNL     1      57.942  24.965  13.248  1.00  0.00     0.277 HD
HETATM   15  C16 UNL     1      57.770  26.124  14.912  1.00  0.00     0.234 C 
HETATM   16  C17 UNL     1      56.789  26.941  14.099  1.00  0.00     0.055 C 
HETATM   17  C18 UNL     1      55.714  26.117  13.458  1.00  0.00     0.233 C 
HETATM   18  N6  UNL     1      55.431  26.718  12.155  1.00  0.00    -0.075 N 
ATOM     19  H61 UNL     1      56.148  27.386  11.871  1.00  0.00     0.277 HD
ATOM     20  H62 UNL     1      54.641  27.363  12.188  1.00  0.00     0.277 HD
HETATM   21  C19 UNL     1      55.243  25.662  11.182  1.00  0.00     0.233 C 
HETATM   22  C20 UNL     1      54.790  26.222   9.864  1.00  0.00     0.055 C 
HETATM   23  C21 UNL     1      55.358  25.469   8.680  1.00  0.00     0.233 C 
HETATM   24  N7  UNL     1      55.682  26.435   7.643  1.00  0.00    -0.075 N 
ATOM     25  H71 UNL     1      56.227  27.213   8.017  1.00  0.00     0.277 HD
ATOM     26  H72 UNL     1      54.855  26.950   7.342  1.00  0.00     0.277 HD
HETATM   27  C22 UNL     1      56.353  25.813   6.524  1.00  0.00     0.234 C 
HETATM   28  C23 UNL     1      57.819  26.138   6.627  1.00  0.00     0.057 C 
HETATM   29  C24 UNL     1      58.688  24.907   6.519  1.00  0.00     0.273 C 
ENDROOT
BRANCH   9  30
HETATM   30  C8  UNL     1      62.697  24.226  13.681  1.00  0.00     0.141 C 
BRANCH  30  31
HETATM   31  C9  UNL     1      63.043  22.961  14.388  1.00  0.00     0.136 C 
BRANCH  31  32
HETATM   32  N3  UNL     1      63.570  23.101  15.716  1.00  0.00    -0.408 N 
HETATM   33  C10 UNL     1      62.951  24.101  16.511  1.00  0.00     0.144 C 
HETATM   34  C11 UNL     1      62.486  23.757  17.863  1.00  0.00     0.251 C 
HETATM   35  N4  UNL     1      63.124  22.645  18.487  1.00  0.00    -0.072 N 
HETATM   36  C12 UNL     1      62.976  21.527  17.538  1.00  0.00     0.251 C 
ATOM     37  H42 UNL     1      64.090  22.825  18.760  1.00  0.00     0.277 HD
ATOM     38  H41 UNL     1      62.771  22.440  19.421  1.00  0.00     0.277 HD
HETATM   39  C13 UNL     1      63.843  21.855  16.369  1.00  0.00     0.144 C 
ENDBRANCH  31  32
ENDBRANCH  30  31
ENDBRANCH   9  30
TORSDOF 3
ENDMDL
MODEL 3
REMARK VINA RESULT: -7.596264338      2.340      8.038
REMARK  3 active torsions:
REMARK  status: ('A' for Active; 'I' for Inactive)
REMARK    1  A    between atoms: N2_9  and  C8_10 
REMARK    2  A    between atoms: C8_10  and  C9_11 
REMARK    3  A    between atoms: C9_11  and  N3_12 
ROOT
HETATM    1  C1  UNL     1      61.783  24.747   5.981  1.00  0.00     0.309 C 
HETATM    2  N1  UNL     1      60.828  25.038   7.013  1.00  0.00     0.084 N 
HETATM    3  C2  UNL     1      61.219  24.417   8.259  1.00  0.00     0.271 C 
HETATM    4  C3  UNL     1      62.486  25.050   8.823  1.00  0.00     0.030 C 
HETATM    5  C4  UNL     1      63.368  23.924   9.338  1.00  0.00     0.002 C 
HETATM    6  C5  UNL     1      63.375  23.932  10.857  1.00  0.00     0.002 C 
HETATM    7  C6  UNL     1      62.037  23.553  11.408  1.00  0.00     0.020 C 
HETATM    8  C7  UNL     1      61.402  24.684  12.235  1.00  0.00     0.122 C 
HETATM    9  N2  UNL     1      61.040  24.062  13.485  1.00  0.00    -0.390 N 
HETATM   10  C14 UNL     1      59.656  24.041  13.752  1.00  0.00     0.085 C 
HETATM   11  C15 UNL     1      59.044  25.282  14.307  1.00  0.00     0.276 C 
HETATM   12  N5  UNL     1      57.590  25.169  14.102  1.00  0.00    -0.071 N 
ATOM     13  H51 UNL     1      57.237  24.287  14.472  1.00  0.00     0.277 HD
ATOM     14  H52 UNL     1      57.370  25.035  13.115  1.00  0.00     0.277 HD
HETATM   15  C16 UNL     1      56.864  26.281  14.642  1.00  0.00     0.234 C 
HETATM   16  C17 UNL     1      56.075  27.046  13.601  1.00  0.00     0.055 C 
HETATM   17  C18 UNL     1      55.151  26.181  12.799  1.00  0.00     0.233 C 
HETATM   18  N6  UNL     1      55.145  26.709  11.435  1.00  0.00    -0.075 N 
ATOM     19  H61 UNL     1      55.908  27.365  11.268  1.00  0.00     0.277 HD
ATOM     20  H62 UNL     1      54.368  27.349  11.269  1.00  0.00     0.277 HD
HETATM   21  C19 UNL     1      55.158  25.600  10.503  1.00  0.00     0.233 C 
HETATM   22  C20 UNL     1      54.988  26.085   9.092  1.00  0.00     0.055 C 
HETATM   23  C21 UNL     1      55.784  25.273   8.092  1.00  0.00     0.233 C 
HETATM   24  N7  UNL     1      56.320  26.183   7.094  1.00  0.00    -0.075 N 
ATOM     25  H71 UNL     1      56.778  26.984   7.529  1.00  0.00     0.277 HD
ATOM     26  H72 UNL     1      55.574  26.675   6.600  1.00  0.00     0.277 HD
HETATM   27  C22 UNL     1      57.204  25.506   6.172  1.00  0.00     0.234 C 
HETATM   28  C23 UNL     1      58.618  25.847   6.557  1.00  0.00     0.057 C 
HETATM   29  C24 UNL     1      59.486  24.618   6.697  1.00  0.00     0.273 C 
ENDROOT
BRANCH   9  30
HETATM   30  C8  UNL     1      61.930  24.354  14.558  1.00  0.00     0.141 C 
BRANCH  30  31
HETATM   31  C9  UNL     1      62.641  23.108  14.961  1.00  0.00     0.136 C 
BRANCH  31  32
HETATM   32  N3  UNL     1      63.585  23.236  16.035  1.00  0.00    -0.408 N 
HETATM   33  C10 UNL     1      64.144  24.530  16.198  1.00  0.00     0.144 C 
HETATM   34  C11 UNL     1      64.135  25.153  17.531  1.00  0.00     0.251 C 
HETATM   35  N4  UNL     1      64.059  24.264  18.643  1.00  0.00    -0.072 N 
HETATM   36  C12 UNL     1      62.865  23.435  18.399  1.00  0.00     0.251 C 
ATOM     37  H42 UNL     1      64.910  23.723  18.795  1.00  0.00     0.277 HD
ATOM     38  H41 UNL     1      64.054  24.736  19.546  1.00  0.00     0.277 HD
HETATM   39  C13 UNL     1      63.196  22.560  17.236  1.00  0.00     0.144 C 
ENDBRANCH  31  32
ENDBRANCH  30  31
ENDBRANCH   9  30
TORSDOF 3
ENDMDL
MODEL 4
REMARK VINA RESULT: -7.524895839      1.422      1.745
REMARK  3 active torsions:
REMARK  status: ('A' for Active; 'I' for Inactive)
REMARK    1  A    between atoms: N2_9  and  C8_10 
REMARK    2  A    between atoms: C8_10  and  C9_11 
REMARK    3  A    between atoms: C9_11  and  N3_12 
ROOT
HETATM    1  C1  UNL     1      63.327  23.313  16.971  1.00  0.00     0.309 C 
HETATM    2  N1  UNL     1      62.118  23.370  16.199  1.00  0.00     0.084 N 
HETATM    3  C2  UNL     1      62.399  23.785  14.842  1.00  0.00     0.271 C 
HETATM    4  C3  UNL     1      63.197  22.727  14.091  1.00  0.00     0.030 C 
HETATM    5  C4  UNL     1      64.270  23.447  13.290  1.00  0.00     0.002 C 
HETATM    6  C5  UNL     1      63.919  23.411  11.813  1.00  0.00     0.002 C 
HETATM    7  C6  UNL     1      62.709  24.239  11.522  1.00  0.00     0.020 C 
HETATM    8  C7  UNL     1      61.545  23.400  10.965  1.00  0.00     0.122 C 
HETATM    9  N2  UNL     1      61.142  24.090   9.763  1.00  0.00    -0.390 N 
HETATM   10  C14 UNL     1      59.831  24.606   9.793  1.00  0.00     0.085 C 
HETATM   11  C15 UNL     1      58.713  23.661   9.508  1.00  0.00     0.276 C 
HETATM   12  N5  UNL     1      57.480  24.296  10.003  1.00  0.00    -0.071 N 
ATOM     13  H51 UNL     1      57.381  25.240   9.629  1.00  0.00     0.277 HD
ATOM     14  H52 UNL     1      57.557  24.518  10.996  1.00  0.00     0.277 HD
HETATM   15  C16 UNL     1      56.307  23.514   9.742  1.00  0.00     0.234 C 
HETATM   16  C17 UNL     1      55.567  23.105  10.998  1.00  0.00     0.055 C 
HETATM   17  C18 UNL     1      55.217  24.260  11.886  1.00  0.00     0.233 C 
HETATM   18  N6  UNL     1      55.346  23.794  13.267  1.00  0.00    -0.075 N 
ATOM     19  H61 UNL     1      55.848  22.909  13.333  1.00  0.00     0.277 HD
ATOM     20  H62 UNL     1      54.456  23.482  13.657  1.00  0.00     0.277 HD
HETATM   21  C19 UNL     1      55.961  24.839  14.059  1.00  0.00     0.233 C 
HETATM   22  C20 UNL     1      55.966  24.474  15.516  1.00  0.00     0.055 C 
HETATM   23  C21 UNL     1      57.205  24.960  16.238  1.00  0.00     0.233 C 
HETATM   24  N7  UNL     1      57.607  23.935  17.187  1.00  0.00    -0.075 N 
ATOM     25  H71 UNL     1      57.643  23.015  16.747  1.00  0.00     0.277 HD
ATOM     26  H72 UNL     1      56.874  23.755  17.873  1.00  0.00     0.277 HD
HETATM   27  C22 UNL     1      58.860  24.262  17.829  1.00  0.00     0.234 C 
HETATM   28  C23 UNL     1      59.936  23.425  17.190  1.00  0.00     0.057 C 
HETATM   29  C24 UNL     1      61.119  24.254  16.747  1.00  0.00     0.273 C 
ENDROOT
BRANCH   9  30
HETATM   30  C8  UNL     1      61.598  23.476   8.562  1.00  0.00     0.141 C 
BRANCH  30  31
HETATM   31  C9  UNL     1      62.707  24.288   7.985  1.00  0.00     0.136 C 
BRANCH  31  32
HETATM   32  N3  UNL     1      62.333  25.256   6.992  1.00  0.00    -0.408 N 
HETATM   33  C10 UNL     1      63.386  25.697   6.150  1.00  0.00     0.144 C 
HETATM   34  C11 UNL     1      63.194  25.681   4.692  1.00  0.00     0.251 C 
HETATM   35  N4  UNL     1      61.845  25.730   4.232  1.00  0.00    -0.072 N 
HETATM   36  C12 UNL     1      61.162  24.611   4.904  1.00  0.00     0.251 C 
ATOM     37  H42 UNL     1      61.394  26.633   4.378  1.00  0.00     0.277 HD
ATOM     38  H41 UNL     1      61.757  25.715   3.217  1.00  0.00     0.277 HD
HETATM   39  C13 UNL     1      61.084  24.977   6.349  1.00  0.00     0.144 C 
ENDBRANCH  31  32
ENDBRANCH  30  31
ENDBRANCH   9  30
TORSDOF 3
ENDMDL
MODEL 5
REMARK VINA RESULT: -7.451096903      2.429      8.100
REMARK  3 active torsions:
REMARK  status: ('A' for Active; 'I' for Inactive)
REMARK    1  A    between atoms: N2_9  and  C8_10 
REMARK    2  A    between atoms: C8_10  and  C9_11 
REMARK    3  A    between atoms: C9_11  and  N3_12 
ROOT
HETATM    1  C1  UNL     1      63.146  24.981   5.964  1.00  0.00     0.309 C 
HETATM    2  N1  UNL     1      61.916  25.238   6.659  1.00  0.00     0.084 N 
HETATM    3  C2  UNL     1      61.876  24.514   7.910  1.00  0.00     0.271 C 
HETATM    4  C3  UNL     1      62.907  25.050   8.896  1.00  0.00     0.030 C 
HETATM    5  C4  UNL     1      63.557  23.853   9.572  1.00  0.00     0.002 C 
HETATM    6  C5  UNL     1      63.077  23.753  11.010  1.00  0.00     0.002 C 
HETATM    7  C6  UNL     1      61.628  23.393  11.074  1.00  0.00     0.020 C 
HETATM    8  C7  UNL     1      60.781  24.489  11.746  1.00  0.00     0.122 C 
HETATM    9  N2  UNL     1      60.027  23.795  12.761  1.00  0.00    -0.390 N 
HETATM   10  C14 UNL     1      58.630  23.814  12.572  1.00  0.00     0.085 C 
HETATM   11  C15 UNL     1      57.895  25.038  13.003  1.00  0.00     0.276 C 
HETATM   12  N5  UNL     1      56.581  25.002  12.338  1.00  0.00    -0.071 N 
ATOM     13  H51 UNL     1      56.113  24.112  12.503  1.00  0.00     0.277 HD
ATOM     14  H52 UNL     1      56.687  24.948  11.324  1.00  0.00     0.277 HD
HETATM   15  C16 UNL     1      55.740  26.102  12.708  1.00  0.00     0.234 C 
HETATM   16  C17 UNL     1      55.340  26.973  11.535  1.00  0.00     0.055 C 
HETATM   17  C18 UNL     1      54.706  26.208  10.414  1.00  0.00     0.233 C 
HETATM   18  N6  UNL     1      55.147  26.831   9.166  1.00  0.00    -0.075 N 
ATOM     19  H61 UNL     1      55.934  27.464   9.304  1.00  0.00     0.277 HD
ATOM     20  H62 UNL     1      54.475  27.514   8.814  1.00  0.00     0.277 HD
HETATM   21  C19 UNL     1      55.437  25.792   8.199  1.00  0.00     0.233 C 
HETATM   22  C20 UNL     1      55.737  26.383   6.852  1.00  0.00     0.055 C 
HETATM   23  C21 UNL     1      56.797  25.611   6.094  1.00  0.00     0.233 C 
HETATM   24  N7  UNL     1      57.640  26.566   5.395  1.00  0.00    -0.075 N 
ATOM     25  H71 UNL     1      57.949  27.313   6.017  1.00  0.00     0.277 HD
ATOM     26  H72 UNL     1      57.100  27.123   4.733  1.00  0.00     0.277 HD
HETATM   27  C22 UNL     1      58.760  25.919   4.751  1.00  0.00     0.234 C 
HETATM   28  C23 UNL     1      59.983  26.171   5.591  1.00  0.00     0.057 C 
HETATM   29  C24 UNL     1      60.738  24.899   5.900  1.00  0.00     0.273 C 
ENDROOT
BRANCH   9  30
HETATM   30  C8  UNL     1      60.532  23.972  14.081  1.00  0.00     0.141 C 
BRANCH  30  31
HETATM   31  C9  UNL     1      61.630  24.979  14.057  1.00  0.00     0.136 C 
BRANCH  31  32
HETATM   32  N3  UNL     1      62.874  24.574  14.649  1.00  0.00    -0.408 N 
HETATM   33  C10 UNL     1      63.351  25.414  15.688  1.00  0.00     0.144 C 
HETATM   34  C11 UNL     1      63.755  24.813  16.969  1.00  0.00     0.251 C 
HETATM   35  N4  UNL     1      64.138  23.440  16.929  1.00  0.00    -0.072 N 
HETATM   36  C12 UNL     1      63.002  22.736  16.307  1.00  0.00     0.251 C 
ATOM     37  H42 UNL     1      65.029  23.275  16.461  1.00  0.00     0.277 HD
ATOM     38  H41 UNL     1      64.408  23.063  17.837  1.00  0.00     0.277 HD
HETATM   39  C13 UNL     1      62.978  23.164  14.878  1.00  0.00     0.144 C 
ENDBRANCH  31  32
ENDBRANCH  30  31
ENDBRANCH   9  30
TORSDOF 3
ENDMDL
