MODEL 1
REMARK VINA RESULT: -9.416132688      0.000      0.000
REMARK  4 active torsions:
REMARK  status: ('A' for Active; 'I' for Inactive)
REMARK    1  A    between atoms: N1_6  and  C6_7 
REMARK    2  A    between atoms: C11_15  and  C12_16 
REMARK    3  A    between atoms: C14_23  and  C15_24 
REMARK       I    between atoms: C15_24  and  N5_26 
REMARK    4  A    between atoms: N5_26  and  C16_28 
ROOT
HETATM    1  C16 UNL     1      57.652  21.586   9.694  1.00  0.00     0.145 A 
HETATM    2  N6  UNL     1      56.390  22.048   9.637  1.00  0.00    -0.284 N 
ATOM      3  H6  UNL     1      56.111  23.017   9.794  1.00  0.00     0.188 HD
HETATM    4  N7  UNL     1      55.556  21.049   9.345  1.00  0.00    -0.302 N 
ATOM      5  H7  UNL     1      54.544  21.133   9.245  1.00  0.00     0.186 HD
HETATM    6  C17 UNL     1      56.258  19.918   9.206  1.00  0.00     0.046 A 
HETATM    7  C18 UNL     1      55.764  18.551   8.880  1.00  0.00     0.071 C 
HETATM    8  C19 UNL     1      57.578  20.250   9.423  1.00  0.00     0.113 A 
HETATM    9  C20 UNL     1      58.694  19.330   9.373  1.00  0.00     0.105 C 
HETATM   10  N8  UNL     1      59.576  18.581   9.326  1.00  0.00    -0.191 NA
ENDROOT
BRANCH   1  11
HETATM   11  N5  UNL     1      58.740  22.261   9.952  1.00  0.00    -0.305 N 
HETATM   12  C15 UNL     1      58.810  23.659   9.749  1.00  0.00     0.275 C 
HETATM   13  O3  UNL     1      58.007  24.374  10.393  1.00  0.00    -0.266 OA
ATOM     14  H5  UNL     1      59.559  21.768  10.310  1.00  0.00     0.170 HD
BRANCH  12  15
HETATM   15  C14 UNL     1      59.775  24.217   8.831  1.00  0.00     0.131 A 
HETATM   16  C2  UNL     1      59.509  24.619   7.532  1.00  0.00    -0.027 A 
HETATM   17  C1  UNL     1      58.215  24.571   6.811  1.00  0.00     0.050 C 
HETATM   18  C3  UNL     1      60.693  25.077   7.034  1.00  0.00     0.035 A 
HETATM   19  C4  UNL     1      61.621  24.946   8.014  1.00  0.00     0.031 A 
HETATM   20  C5  UNL     1      63.066  25.315   7.938  1.00  0.00     0.069 C 
HETATM   21  N1  UNL     1      61.077  24.420   9.125  1.00  0.00    -0.145 N 
BRANCH  21  22
HETATM   22  C6  UNL     1      61.724  24.128  10.366  1.00  0.00     0.693 A 
HETATM   23  N2  UNL     1      62.980  23.695  10.446  1.00  0.00    -0.155 N 
HETATM   24  C7  UNL     1      63.644  23.403  11.581  1.00  0.00     0.273 A 
ATOM     25  H2  UNL     1      63.486  23.574   9.568  1.00  0.00     0.187 HD
HETATM   26  O1  UNL     1      64.836  23.003  11.476  1.00  0.00    -0.267 OA
HETATM   27  C8  UNL     1      63.002  23.549  12.826  1.00  0.00     0.074 A 
HETATM   28  C9  UNL     1      63.482  23.314  14.058  1.00  0.00    -0.021 A 
HETATM   29  C13 UNL     1      61.709  23.996  12.725  1.00  0.00     0.107 A 
HETATM   30  C10 UNL     1      64.872  22.824  14.424  1.00  0.00     0.051 C 
HETATM   31  C11 UNL     1      62.630  23.543  15.114  1.00  0.00     0.079 A 
HETATM   32  S1  UNL     1      61.204  24.072  14.364  1.00  0.00    -0.065 SA
HETATM   33  N4  UNL     1      61.091  24.276  11.537  1.00  0.00    -0.184 N 
ATOM     34  H4  UNL     1      60.126  24.604  11.543  1.00  0.00     0.185 HD
BRANCH  31  35
HETATM   35  C12 UNL     1      62.813  23.394  16.555  1.00  0.00     0.272 C 
HETATM   36  N3  UNL     1      62.475  22.249  17.286  1.00  0.00    -0.057 NA
HETATM   37  O2  UNL     1      63.313  24.353  17.241  1.00  0.00    -0.270 OA
ENDBRANCH  31  35
ENDBRANCH  21  22
ENDBRANCH  12  15
ENDBRANCH   1  11
TORSDOF 4
ENDMDL
MODEL 2
REMARK VINA RESULT: -9.351046787      2.313      3.701
REMARK  4 active torsions:
REMARK  status: ('A' for Active; 'I' for Inactive)
REMARK    1  A    between atoms: N1_6  and  C6_7 
REMARK    2  A    between atoms: C11_15  and  C12_16 
REMARK    3  A    between atoms: C14_23  and  C15_24 
REMARK       I    between atoms: C15_24  and  N5_26 
REMARK    4  A    between atoms: N5_26  and  C16_28 
ROOT
HETATM    1  C16 UNL     1      57.723  24.255  12.190  1.00  0.00     0.145 A 
HETATM    2  N6  UNL     1      58.156  23.344  13.080  1.00  0.00    -0.284 N 
ATOM      3  H6  UNL     1      58.521  22.421  12.845  1.00  0.00     0.188 HD
HETATM    4  N7  UNL     1      58.038  23.829  14.317  1.00  0.00    -0.302 N 
ATOM      5  H7  UNL     1      58.296  23.337  15.172  1.00  0.00     0.186 HD
HETATM    6  C17 UNL     1      57.526  25.064  14.257  1.00  0.00     0.046 A 
HETATM    7  C18 UNL     1      57.217  25.997  15.376  1.00  0.00     0.071 C 
HETATM    8  C19 UNL     1      57.326  25.338  12.921  1.00  0.00     0.113 A 
HETATM    9  C20 UNL     1      56.784  26.570  12.389  1.00  0.00     0.105 C 
HETATM   10  N8  UNL     1      56.351  27.564  11.980  1.00  0.00    -0.191 NA
ENDROOT
BRANCH   1  11
HETATM   11  N5  UNL     1      57.681  24.147  10.889  1.00  0.00    -0.305 N 
HETATM   12  C15 UNL     1      58.637  23.383  10.180  1.00  0.00     0.275 C 
HETATM   13  O3  UNL     1      58.715  22.163  10.452  1.00  0.00    -0.266 OA
ATOM     14  H5  UNL     1      56.941  24.623  10.373  1.00  0.00     0.170 HD
BRANCH  12  15
HETATM   15  C14 UNL     1      59.480  24.008   9.187  1.00  0.00     0.131 A 
HETATM   16  C2  UNL     1      59.078  24.395   7.919  1.00  0.00    -0.027 A 
HETATM   17  C1  UNL     1      57.733  24.262   7.311  1.00  0.00     0.050 C 
HETATM   18  C3  UNL     1      60.181  24.933   7.326  1.00  0.00     0.035 A 
HETATM   19  C4  UNL     1      61.196  24.862   8.222  1.00  0.00     0.031 A 
HETATM   20  C5  UNL     1      62.602  25.327   8.026  1.00  0.00     0.069 C 
HETATM   21  N1  UNL     1      60.786  24.297   9.371  1.00  0.00    -0.145 N 
BRANCH  21  22
HETATM   22  C6  UNL     1      61.555  24.046  10.549  1.00  0.00     0.693 A 
HETATM   23  N2  UNL     1      62.814  23.615  10.517  1.00  0.00    -0.155 N 
HETATM   24  C7  UNL     1      63.589  23.359  11.589  1.00  0.00     0.273 A 
ATOM     25  H2  UNL     1      63.229  23.464   9.598  1.00  0.00     0.187 HD
HETATM   26  O1  UNL     1      64.766  22.955  11.378  1.00  0.00    -0.267 OA
HETATM   27  C8  UNL     1      63.074  23.547  12.886  1.00  0.00     0.074 A 
HETATM   28  C9  UNL     1      63.677  23.352  14.072  1.00  0.00    -0.021 A 
HETATM   29  C13 UNL     1      61.777  23.992  12.901  1.00  0.00     0.107 A 
HETATM   30  C10 UNL     1      65.098  22.873  14.312  1.00  0.00     0.051 C 
HETATM   31  C11 UNL     1      62.934  23.616  15.199  1.00  0.00     0.079 A 
HETATM   32  S1  UNL     1      61.439  24.121  14.579  1.00  0.00    -0.065 SA
HETATM   33  N4  UNL     1      61.042  24.232  11.772  1.00  0.00    -0.184 N 
ATOM     34  H4  UNL     1      60.082  24.562  11.864  1.00  0.00     0.185 HD
BRANCH  31  35
HETATM   35  C12 UNL     1      63.261  23.515  16.618  1.00  0.00     0.272 C 
HETATM   36  N3  UNL     1      63.066  22.370  17.400  1.00  0.00    -0.057 NA
HETATM   37  O2  UNL     1      63.762  24.520  17.235  1.00  0.00    -0.270 OA
ENDBRANCH  31  35
ENDBRANCH  21  22
ENDBRANCH  12  15
ENDBRANCH   1  11
TORSDOF 4
ENDMDL
MODEL 3
REMARK VINA RESULT: -9.149956732      3.341      8.207
REMARK  4 active torsions:
REMARK  status: ('A' for Active; 'I' for Inactive)
REMARK    1  A    between atoms: N1_6  and  C6_7 
REMARK    2  A    between atoms: C11_15  and  C12_16 
REMARK    3  A    between atoms: C14_23  and  C15_24 
REMARK       I    between atoms: C15_24  and  N5_26 
REMARK    4  A    between atoms: N5_26  and  C16_28 
ROOT
HETATM    1  C16 UNL     1      59.472  24.999  18.190  1.00  0.00     0.145 A 
HETATM    2  N6  UNL     1      59.535  25.711  19.330  1.00  0.00    -0.284 N 
ATOM      3  H6  UNL     1      60.316  26.306  19.608  1.00  0.00     0.188 HD
HETATM    4  N7  UNL     1      58.423  25.522  20.042  1.00  0.00    -0.302 N 
ATOM      5  H7  UNL     1      58.221  25.948  20.947  1.00  0.00     0.186 HD
HETATM    6  C17 UNL     1      57.614  24.686  19.381  1.00  0.00     0.046 A 
HETATM    7  C18 UNL     1      56.270  24.184  19.779  1.00  0.00     0.071 C 
HETATM    8  C19 UNL     1      58.269  24.353  18.214  1.00  0.00     0.113 A 
HETATM    9  C20 UNL     1      57.760  23.465  17.190  1.00  0.00     0.105 C 
HETATM   10  N8  UNL     1      57.337  22.755  16.380  1.00  0.00    -0.191 NA
ENDROOT
BRANCH   1  11
HETATM   11  N5  UNL     1      60.366  24.926  17.241  1.00  0.00    -0.305 N 
HETATM   12  C15 UNL     1      61.365  23.925  17.241  1.00  0.00     0.275 C 
HETATM   13  O3  UNL     1      60.983  22.732  17.210  1.00  0.00    -0.266 OA
ATOM     14  H5  UNL     1      60.344  25.607  16.481  1.00  0.00     0.170 HD
BRANCH  12  15
HETATM   15  C14 UNL     1      62.763  24.286  17.279  1.00  0.00     0.131 A 
HETATM   16  C2  UNL     1      63.482  24.601  18.421  1.00  0.00    -0.027 A 
HETATM   17  C1  UNL     1      62.996  24.635  19.821  1.00  0.00     0.050 C 
HETATM   18  C3  UNL     1      64.749  24.877  17.999  1.00  0.00     0.035 A 
HETATM   19  C4  UNL     1      64.767  24.729  16.652  1.00  0.00     0.031 A 
HETATM   20  C5  UNL     1      65.935  24.926  15.742  1.00  0.00     0.069 C 
HETATM   21  N1  UNL     1      63.557  24.366  16.190  1.00  0.00    -0.145 N 
BRANCH  21  22
HETATM   22  C6  UNL     1      63.174  24.115  14.837  1.00  0.00     0.693 A 
HETATM   23  N2  UNL     1      64.025  23.685  13.908  1.00  0.00    -0.155 N 
HETATM   24  C7  UNL     1      63.727  23.431  12.619  1.00  0.00     0.273 A 
ATOM     25  H2  UNL     1      64.991  23.534  14.199  1.00  0.00     0.187 HD
HETATM   26  O1  UNL     1      64.658  23.028  11.870  1.00  0.00    -0.267 OA
HETATM   27  C8  UNL     1      62.410  23.620  12.155  1.00  0.00     0.074 A 
HETATM   28  C9  UNL     1      61.912  23.426  10.922  1.00  0.00    -0.021 A 
HETATM   29  C13 UNL     1      61.546  24.062  13.124  1.00  0.00     0.107 A 
HETATM   30  C10 UNL     1      62.662  22.940   9.694  1.00  0.00     0.051 C 
HETATM   31  C11 UNL     1      60.574  23.691  10.741  1.00  0.00     0.079 A 
HETATM   32  S1  UNL     1      60.060  24.195  12.276  1.00  0.00    -0.065 SA
HETATM   33  N4  UNL     1      61.915  24.302  14.420  1.00  0.00    -0.184 N 
ATOM     34  H4  UNL     1      61.215  24.631  15.084  1.00  0.00     0.185 HD
BRANCH  31  35
HETATM   35  C12 UNL     1      59.720  23.596   9.562  1.00  0.00     0.272 C 
HETATM   36  N3  UNL     1      59.675  24.544   8.533  1.00  0.00    -0.057 NA
HETATM   37  O2  UNL     1      58.938  22.592   9.414  1.00  0.00    -0.270 OA
ENDBRANCH  31  35
ENDBRANCH  21  22
ENDBRANCH  12  15
ENDBRANCH   1  11
TORSDOF 4
ENDMDL
MODEL 4
REMARK VINA RESULT: -9.042556012      3.495      5.200
REMARK  4 active torsions:
REMARK  status: ('A' for Active; 'I' for Inactive)
REMARK    1  A    between atoms: N1_6  and  C6_7 
REMARK    2  A    between atoms: C11_15  and  C12_16 
REMARK    3  A    between atoms: C14_23  and  C15_24 
REMARK       I    between atoms: C15_24  and  N5_26 
REMARK    4  A    between atoms: N5_26  and  C16_28 
ROOT
HETATM    1  C16 UNL     1      56.961  25.363  13.069  1.00  0.00     0.145 A 
HETATM    2  N6  UNL     1      56.841  24.599  14.171  1.00  0.00    -0.284 N 
ATOM      3  H6  UNL     1      56.999  23.592  14.207  1.00  0.00     0.188 HD
HETATM    4  N7  UNL     1      56.485  25.358  15.208  1.00  0.00    -0.302 N 
ATOM      5  H7  UNL     1      56.327  25.022  16.159  1.00  0.00     0.186 HD
HETATM    6  C17 UNL     1      56.366  26.628  14.805  1.00  0.00     0.046 A 
HETATM    7  C18 UNL     1      55.991  27.826  15.605  1.00  0.00     0.071 C 
HETATM    8  C19 UNL     1      56.665  26.637  13.459  1.00  0.00     0.113 A 
HETATM    9  C20 UNL     1      56.663  27.808  12.607  1.00  0.00     0.105 C 
HETATM   10  N8  UNL     1      56.659  28.754  11.940  1.00  0.00    -0.191 NA
ENDROOT
BRANCH   1  11
HETATM   11  N5  UNL     1      57.292  24.983  11.864  1.00  0.00    -0.305 N 
HETATM   12  C15 UNL     1      58.121  23.859  11.644  1.00  0.00     0.275 C 
HETATM   13  O3  UNL     1      57.714  22.752  12.068  1.00  0.00    -0.266 OA
ATOM     14  H5  UNL     1      56.943  25.509  11.062  1.00  0.00     0.170 HD
BRANCH  12  15
HETATM   15  C14 UNL     1      59.383  24.004  10.958  1.00  0.00     0.131 A 
HETATM   16  C2  UNL     1      59.558  23.999   9.584  1.00  0.00    -0.027 A 
HETATM   17  C1  UNL     1      58.520  23.849   8.536  1.00  0.00     0.050 C 
HETATM   18  C3  UNL     1      60.895  24.163   9.377  1.00  0.00     0.035 A 
HETATM   19  C4  UNL     1      61.483  24.260  10.594  1.00  0.00     0.031 A 
HETATM   20  C5  UNL     1      62.938  24.448  10.878  1.00  0.00     0.069 C 
HETATM   21  N1  UNL     1      60.572  24.166  11.579  1.00  0.00    -0.145 N 
BRANCH  21  22
HETATM   22  C6  UNL     1      60.795  24.220  12.989  1.00  0.00     0.693 A 
HETATM   23  N2  UNL     1      60.060  24.966  13.813  1.00  0.00    -0.155 N 
HETATM   24  C7  UNL     1      60.221  25.061  15.147  1.00  0.00     0.273 A 
ATOM     25  H2  UNL     1      59.309  25.515  13.395  1.00  0.00     0.187 HD
HETATM   26  O1  UNL     1      59.434  25.818  15.779  1.00  0.00    -0.267 OA
HETATM   27  C8  UNL     1      61.240  24.328  15.784  1.00  0.00     0.074 A 
HETATM   28  C9  UNL     1      61.562  24.284  17.088  1.00  0.00    -0.021 A 
HETATM   29  C13 UNL     1      61.986  23.565  14.922  1.00  0.00     0.107 A 
HETATM   30  C10 UNL     1      60.887  25.028  18.226  1.00  0.00     0.051 C 
HETATM   31  C11 UNL     1      62.617  23.474  17.443  1.00  0.00     0.079 A 
HETATM   32  S1  UNL     1      63.119  22.809  15.966  1.00  0.00    -0.065 SA
HETATM   33  N4  UNL     1      61.772  23.513  13.571  1.00  0.00    -0.184 N 
ATOM     34  H4  UNL     1      62.369  22.922  12.994  1.00  0.00     0.185 HD
BRANCH  31  35
HETATM   35  C12 UNL     1      63.227  23.194  18.738  1.00  0.00     0.272 C 
HETATM   36  N3  UNL     1      63.862  24.148  19.542  1.00  0.00    -0.057 NA
HETATM   37  O2  UNL     1      63.207  22.005  19.214  1.00  0.00    -0.270 OA
ENDBRANCH  31  35
ENDBRANCH  21  22
ENDBRANCH  12  15
ENDBRANCH   1  11
TORSDOF 4
ENDMDL
MODEL 5
REMARK VINA RESULT: -8.858665433      3.141      7.649
REMARK  4 active torsions:
REMARK  status: ('A' for Active; 'I' for Inactive)
REMARK    1  A    between atoms: N1_6  and  C6_7 
REMARK    2  A    between atoms: C11_15  and  C12_16 
REMARK    3  A    between atoms: C14_23  and  C15_24 
REMARK       I    between atoms: C15_24  and  N5_26 
REMARK    4  A    between atoms: N5_26  and  C16_28 
ROOT
HETATM    1  C16 UNL     1      59.589  25.210  15.043  1.00  0.00     0.145 A 
HETATM    2  N6  UNL     1      58.831  26.128  15.668  1.00  0.00    -0.284 N 
ATOM      3  H6  UNL     1      58.007  26.579  15.270  1.00  0.00     0.188 HD
HETATM    4  N7  UNL     1      59.318  26.361  16.888  1.00  0.00    -0.302 N 
ATOM      5  H7  UNL     1      58.926  27.016  17.566  1.00  0.00     0.186 HD
HETATM    6  C17 UNL     1      60.401  25.600  17.082  1.00  0.00     0.046 A 
HETATM    7  C18 UNL     1      61.275  25.516  18.284  1.00  0.00     0.071 C 
HETATM    8  C19 UNL     1      60.577  24.873  15.924  1.00  0.00     0.113 A 
HETATM    9  C20 UNL     1      61.635  23.914  15.688  1.00  0.00     0.105 C 
HETATM   10  N8  UNL     1      62.487  23.148  15.517  1.00  0.00    -0.191 NA
ENDROOT
BRANCH   1  11
HETATM   11  N5  UNL     1      59.432  24.726  13.840  1.00  0.00    -0.305 N 
HETATM   12  C15 UNL     1      58.161  24.682  13.221  1.00  0.00     0.275 C 
HETATM   13  O3  UNL     1      57.568  25.771  13.047  1.00  0.00    -0.266 OA
ATOM     14  H5  UNL     1      60.244  24.371  13.335  1.00  0.00     0.170 HD
BRANCH  12  15
HETATM   15  C14 UNL     1      57.588  23.419  12.817  1.00  0.00     0.131 A 
HETATM   16  C2  UNL     1      56.832  22.583  13.623  1.00  0.00    -0.027 A 
HETATM   17  C1  UNL     1      56.449  22.789  15.040  1.00  0.00     0.050 C 
HETATM   18  C3  UNL     1      56.501  21.514  12.845  1.00  0.00     0.035 A 
HETATM   19  C4  UNL     1      57.048  21.720  11.622  1.00  0.00     0.031 A 
HETATM   20  C5  UNL     1      56.957  20.820  10.433  1.00  0.00     0.069 C 
HETATM   21  N1  UNL     1      57.719  22.884  11.584  1.00  0.00    -0.145 N 
BRANCH  21  22
HETATM   22  C6  UNL     1      58.430  23.453  10.481  1.00  0.00     0.693 A 
HETATM   23  N2  UNL     1      57.823  24.034   9.448  1.00  0.00    -0.155 N 
HETATM   24  C7  UNL     1      58.434  24.585   8.381  1.00  0.00     0.273 A 
ATOM     25  H2  UNL     1      56.804  24.064   9.466  1.00  0.00     0.187 HD
HETATM   26  O1  UNL     1      57.705  25.096   7.487  1.00  0.00    -0.267 OA
HETATM   27  C8  UNL     1      59.840  24.576   8.298  1.00  0.00     0.074 A 
HETATM   28  C9  UNL     1      60.633  25.068   7.330  1.00  0.00    -0.021 A 
HETATM   29  C13 UNL     1      60.448  23.975   9.370  1.00  0.00     0.107 A 
HETATM   30  C10 UNL     1      60.199  25.776   6.059  1.00  0.00     0.051 C 
HETATM   31  C11 UNL     1      61.990  24.922   7.503  1.00  0.00     0.079 A 
HETATM   32  S1  UNL     1      62.116  24.115   8.988  1.00  0.00    -0.065 SA
HETATM   33  N4  UNL     1      59.767  23.432  10.425  1.00  0.00    -0.184 N 
ATOM     34  H4  UNL     1      60.290  23.001  11.187  1.00  0.00     0.185 HD
BRANCH  31  35
HETATM   35  C12 UNL     1      63.119  25.325   6.670  1.00  0.00     0.272 C 
HETATM   36  N3  UNL     1      63.722  24.515   5.700  1.00  0.00    -0.057 NA
HETATM   37  O2  UNL     1      63.630  26.493   6.801  1.00  0.00    -0.270 OA
ENDBRANCH  31  35
ENDBRANCH  21  22
ENDBRANCH  12  15
ENDBRANCH   1  11
TORSDOF 4
ENDMDL
