MODEL 1
REMARK VINA RESULT: -9.728676967      0.000      0.000
REMARK  9 active torsions:
REMARK  status: ('A' for Active; 'I' for Inactive)
REMARK    1  A    between atoms: N1_6  and  C6_7 
REMARK    2  A    between atoms: C9_10  and  N2_11 
REMARK    3  A    between atoms: N2_11  and  C10_13 
REMARK    4  A    between atoms: C13_16  and  C14_17 
REMARK    5  A    between atoms: C14_17  and  N4_21 
REMARK    6  A    between atoms: N4_21  and  C15_23 
REMARK    7  A    between atoms: C17_28  and  C18_29 
REMARK    8  A    between atoms: C19_30  and  C20_31 
REMARK    9  A    between atoms: C20_31  and  O2_33 
ROOT
HETATM    1  C10 UNL     1      62.737  23.400   9.965  1.00  0.00     0.033 A 
HETATM    2  C11 UNL     1      63.607  24.247   9.312  1.00  0.00     0.030 A 
HETATM    3  C12 UNL     1      63.190  24.950   8.203  1.00  0.00     0.017 A 
HETATM    4  C13 UNL     1      61.900  24.817   7.728  1.00  0.00     0.008 A 
HETATM    5  C22 UNL     1      61.040  23.964   8.394  1.00  0.00     0.017 A 
HETATM    6  C23 UNL     1      61.443  23.249   9.512  1.00  0.00     0.030 A 
ENDROOT
BRANCH   1   7
HETATM    7  N2  UNL     1      63.185  22.685  11.107  1.00  0.00    -0.341 N 
ATOM      8  H2  UNL     1      63.580  21.752  10.983  1.00  0.00     0.167 HD
BRANCH   7   9
HETATM    9  C9  UNL     1      63.108  23.179  12.294  1.00  0.00     0.120 A 
HETATM   10  C8  UNL     1      62.588  24.441  12.438  1.00  0.00     0.054 A 
HETATM   11  C7  UNL     1      62.520  24.939  13.728  1.00  0.00     0.055 A 
HETATM   12  C6  UNL     1      62.962  24.187  14.811  1.00  0.00     0.141 A 
HETATM   13  N7  UNL     1      63.457  22.959  14.582  1.00  0.00    -0.282 N 
HETATM   14  N6  UNL     1      63.534  22.453  13.346  1.00  0.00    -0.284 N 
ATOM     15  H7  UNL     1      63.784  22.400  15.370  1.00  0.00     0.188 HD
ATOM     16  H6  UNL     1      63.915  21.519  13.201  1.00  0.00     0.188 HD
BRANCH  12  17
HETATM   17  N1  UNL     1      62.885  24.714  16.129  1.00  0.00    -0.243 N 
HETATM   18  C4  UNL     1      63.907  25.239  16.838  1.00  0.00     0.034 A 
HETATM   19  C3  UNL     1      63.467  25.651  18.075  1.00  0.00     0.052 A 
HETATM   20  C5  UNL     1      65.315  25.352  16.342  1.00  0.00     0.070 C 
HETATM   21  C2  UNL     1      62.120  25.357  18.099  1.00  0.00     0.024 A 
HETATM   22  C1  UNL     1      61.189  25.622  19.249  1.00  0.00     0.070 C 
HETATM   23  N8  UNL     1      61.825  24.801  16.919  1.00  0.00    -0.297 N 
ATOM     24  H8  UNL     1      60.893  24.481  16.658  1.00  0.00     0.187 HD
ENDBRANCH  12  17
ENDBRANCH   7   9
ENDBRANCH   1   7
BRANCH   4  25
HETATM   25  C14 UNL     1      61.441  25.552   6.557  1.00  0.00     0.111 C 
HETATM   26  N3  UNL     1      62.169  26.492   6.060  1.00  0.00    -0.385 N 
ATOM     27  H32 UNL     1      63.067  26.723   6.485  1.00  0.00     0.157 HD
ATOM     28  H31 UNL     1      61.847  27.006   5.240  1.00  0.00     0.157 HD
BRANCH  25  29
HETATM   29  N4  UNL     1      60.198  25.232   5.969  1.00  0.00    -0.320 N 
ATOM     30  H4  UNL     1      60.060  24.277   5.638  1.00  0.00     0.169 HD
BRANCH  29  31
HETATM   31  C15 UNL     1      59.233  26.062   5.823  1.00  0.00     0.192 A 
HETATM   32  O1  UNL     1      59.198  27.202   5.158  1.00  0.00    -0.218 OA
HETATM   33  N5  UNL     1      58.041  27.763   5.242  1.00  0.00    -0.269 N 
HETATM   34  C16 UNL     1      57.233  27.002   5.983  1.00  0.00     0.139 A 
ATOM     35  H5  UNL     1      57.782  28.650   4.809  1.00  0.00     0.194 HD
HETATM   36  C17 UNL     1      57.977  25.914   6.360  1.00  0.00     0.088 A 
BRANCH  36  37
HETATM   37  C18 UNL     1      57.572  24.789   7.174  1.00  0.00    -0.058 C 
HETATM   38  C19 UNL     1      57.225  23.858   7.869  1.00  0.00    -0.069 C 
BRANCH  38  39
HETATM   39  C20 UNL     1      56.786  22.746   8.711  1.00  0.00     0.193 C 
HETATM   40  C21 UNL     1      57.884  22.295   9.652  1.00  0.00     0.053 C 
BRANCH  39  41
HETATM   41  O2  UNL     1      55.697  23.209   9.451  1.00  0.00    -0.384 OA
ATOM     42  H2  UNL     1      54.932  22.746   9.132  1.00  0.00     0.211 HD
ENDBRANCH  39  41
ENDBRANCH  38  39
ENDBRANCH  36  37
ENDBRANCH  29  31
ENDBRANCH  25  29
ENDBRANCH   4  25
TORSDOF 9
ENDMDL
MODEL 2
REMARK VINA RESULT: -9.727319517      2.724      4.150
REMARK  9 active torsions:
REMARK  status: ('A' for Active; 'I' for Inactive)
REMARK    1  A    between atoms: N1_6  and  C6_7 
REMARK    2  A    between atoms: C9_10  and  N2_11 
REMARK    3  A    between atoms: N2_11  and  C10_13 
REMARK    4  A    between atoms: C13_16  and  C14_17 
REMARK    5  A    between atoms: C14_17  and  N4_21 
REMARK    6  A    between atoms: N4_21  and  C15_23 
REMARK    7  A    between atoms: C17_28  and  C18_29 
REMARK    8  A    between atoms: C19_30  and  C20_31 
REMARK    9  A    between atoms: C20_31  and  O2_33 
ROOT
HETATM    1  C10 UNL     1      62.710  23.265  10.037  1.00  0.00     0.033 A 
HETATM    2  C11 UNL     1      63.478  24.101   9.253  1.00  0.00     0.030 A 
HETATM    3  C12 UNL     1      62.927  24.715   8.149  1.00  0.00     0.017 A 
HETATM    4  C13 UNL     1      61.606  24.504   7.810  1.00  0.00     0.008 A 
HETATM    5  C22 UNL     1      60.850  23.664   8.606  1.00  0.00     0.017 A 
HETATM    6  C23 UNL     1      61.387  23.038   9.721  1.00  0.00     0.030 A 
ENDROOT
BRANCH   1   7
HETATM    7  N2  UNL     1      63.295  22.642  11.171  1.00  0.00    -0.341 N 
ATOM      8  H2  UNL     1      63.813  21.773  11.045  1.00  0.00     0.167 HD
BRANCH   7   9
HETATM    9  C9  UNL     1      63.188  23.142  12.353  1.00  0.00     0.120 A 
HETATM   10  C8  UNL     1      62.661  24.403  12.479  1.00  0.00     0.054 A 
HETATM   11  C7  UNL     1      62.563  24.908  13.765  1.00  0.00     0.055 A 
HETATM   12  C6  UNL     1      62.981  24.162  14.861  1.00  0.00     0.141 A 
HETATM   13  N7  UNL     1      63.486  22.935  14.650  1.00  0.00    -0.282 N 
HETATM   14  N6  UNL     1      63.593  22.424  13.419  1.00  0.00    -0.284 N 
ATOM     15  H7  UNL     1      63.796  22.381  15.448  1.00  0.00     0.188 HD
ATOM     16  H6  UNL     1      63.980  21.489  13.287  1.00  0.00     0.188 HD
BRANCH  12  17
HETATM   17  N1  UNL     1      62.873  24.696  16.174  1.00  0.00    -0.243 N 
HETATM   18  C4  UNL     1      63.883  25.202  16.915  1.00  0.00     0.034 A 
HETATM   19  C3  UNL     1      63.411  25.628  18.135  1.00  0.00     0.052 A 
HETATM   20  C5  UNL     1      65.308  25.281  16.466  1.00  0.00     0.070 C 
HETATM   21  C2  UNL     1      62.058  25.363  18.116  1.00  0.00     0.024 A 
HETATM   22  C1  UNL     1      61.095  25.653  19.233  1.00  0.00     0.070 C 
HETATM   23  N8  UNL     1      61.790  24.810  16.929  1.00  0.00    -0.297 N 
ATOM     24  H8  UNL     1      60.860  24.509  16.638  1.00  0.00     0.187 HD
ENDBRANCH  12  17
ENDBRANCH   7   9
ENDBRANCH   1   7
BRANCH   4  25
HETATM   25  C14 UNL     1      61.007  25.145   6.647  1.00  0.00     0.111 C 
HETATM   26  N3  UNL     1      59.771  25.506   6.675  1.00  0.00    -0.385 N 
ATOM     27  H32 UNL     1      59.209  25.344   7.511  1.00  0.00     0.157 HD
ATOM     28  H31 UNL     1      59.352  25.954   5.860  1.00  0.00     0.157 HD
BRANCH  25  29
HETATM   29  N4  UNL     1      61.784  25.369   5.489  1.00  0.00    -0.320 N 
ATOM     30  H4  UNL     1      62.798  25.419   5.598  1.00  0.00     0.169 HD
BRANCH  29  31
HETATM   31  C15 UNL     1      61.301  25.514   4.311  1.00  0.00     0.192 A 
HETATM   32  O1  UNL     1      60.230  26.177   3.918  1.00  0.00    -0.218 OA
HETATM   33  N5  UNL     1      60.062  26.092   2.643  1.00  0.00    -0.269 N 
HETATM   34  C16 UNL     1      61.039  25.351   2.118  1.00  0.00     0.139 A 
ATOM     35  H5  UNL     1      59.302  26.525   2.118  1.00  0.00     0.194 HD
HETATM   36  C17 UNL     1      61.837  24.974   3.167  1.00  0.00     0.088 A 
BRANCH  36  37
HETATM   37  C18 UNL     1      63.033  24.161   3.138  1.00  0.00    -0.058 C 
HETATM   38  C19 UNL     1      64.032  23.476   3.095  1.00  0.00    -0.069 C 
BRANCH  38  39
HETATM   39  C20 UNL     1      65.243  22.660   3.022  1.00  0.00     0.193 C 
HETATM   40  C21 UNL     1      64.921  21.181   3.096  1.00  0.00     0.053 C 
BRANCH  39  41
HETATM   41  O2  UNL     1      65.848  22.946   1.798  1.00  0.00    -0.384 OA
ATOM     42  H2  UNL     1      66.386  22.195   1.575  1.00  0.00     0.211 HD
ENDBRANCH  39  41
ENDBRANCH  38  39
ENDBRANCH  36  37
ENDBRANCH  29  31
ENDBRANCH  25  29
ENDBRANCH   4  25
TORSDOF 9
ENDMDL
MODEL 3
REMARK VINA RESULT: -9.722918236      2.032      2.799
REMARK  9 active torsions:
REMARK  status: ('A' for Active; 'I' for Inactive)
REMARK    1  A    between atoms: N1_6  and  C6_7 
REMARK    2  A    between atoms: C9_10  and  N2_11 
REMARK    3  A    between atoms: N2_11  and  C10_13 
REMARK    4  A    between atoms: C13_16  and  C14_17 
REMARK    5  A    between atoms: C14_17  and  N4_21 
REMARK    6  A    between atoms: N4_21  and  C15_23 
REMARK    7  A    between atoms: C17_28  and  C18_29 
REMARK    8  A    between atoms: C19_30  and  C20_31 
REMARK    9  A    between atoms: C20_31  and  O2_33 
ROOT
HETATM    1  C10 UNL     1      62.627  23.472   9.969  1.00  0.00     0.033 A 
HETATM    2  C11 UNL     1      63.601  24.217   9.336  1.00  0.00     0.030 A 
HETATM    3  C12 UNL     1      63.285  24.978   8.233  1.00  0.00     0.017 A 
HETATM    4  C13 UNL     1      61.995  25.009   7.744  1.00  0.00     0.008 A 
HETATM    5  C22 UNL     1      61.030  24.257   8.388  1.00  0.00     0.017 A 
HETATM    6  C23 UNL     1      61.331  23.485   9.500  1.00  0.00     0.030 A 
ENDROOT
BRANCH   1   7
HETATM    7  N2  UNL     1      62.973  22.693  11.104  1.00  0.00    -0.341 N 
ATOM      8  H2  UNL     1      63.256  21.722  10.971  1.00  0.00     0.167 HD
BRANCH   7   9
HETATM    9  C9  UNL     1      62.938  23.177  12.298  1.00  0.00     0.120 A 
HETATM   10  C8  UNL     1      62.432  24.441  12.470  1.00  0.00     0.054 A 
HETATM   11  C7  UNL     1      62.411  24.928  13.767  1.00  0.00     0.055 A 
HETATM   12  C6  UNL     1      62.883  24.163  14.827  1.00  0.00     0.141 A 
HETATM   13  N7  UNL     1      63.363  22.934  14.571  1.00  0.00    -0.282 N 
HETATM   14  N6  UNL     1      63.395  22.439  13.329  1.00  0.00    -0.284 N 
ATOM     15  H7  UNL     1      63.712  22.365  15.342  1.00  0.00     0.188 HD
ATOM     16  H6  UNL     1      63.764  21.504  13.162  1.00  0.00     0.188 HD
BRANCH  12  17
HETATM   17  N1  UNL     1      62.854  24.678  16.152  1.00  0.00    -0.243 N 
HETATM   18  C4  UNL     1      63.905  25.183  16.834  1.00  0.00     0.034 A 
HETATM   19  C3  UNL     1      63.509  25.589  18.087  1.00  0.00     0.052 A 
HETATM   20  C5  UNL     1      65.298  25.282  16.295  1.00  0.00     0.070 C 
HETATM   21  C2  UNL     1      62.159  25.312  18.150  1.00  0.00     0.024 A 
HETATM   22  C1  UNL     1      61.268  25.578  19.331  1.00  0.00     0.070 C 
HETATM   23  N8  UNL     1      61.821  24.772  16.975  1.00  0.00    -0.297 N 
ATOM     24  H8  UNL     1      60.877  24.467  16.740  1.00  0.00     0.187 HD
ENDBRANCH  12  17
ENDBRANCH   7   9
ENDBRANCH   1   7
BRANCH   4  25
HETATM   25  C14 UNL     1      61.642  25.808   6.578  1.00  0.00     0.111 C 
HETATM   26  N3  UNL     1      62.556  26.448   5.934  1.00  0.00    -0.385 N 
ATOM     27  H32 UNL     1      63.528  26.396   6.239  1.00  0.00     0.157 HD
ATOM     28  H31 UNL     1      62.308  27.008   5.118  1.00  0.00     0.157 HD
BRANCH  25  29
HETATM   29  N4  UNL     1      60.296  25.881   6.156  1.00  0.00    -0.320 N 
ATOM     30  H4  UNL     1      59.619  25.273   6.617  1.00  0.00     0.169 HD
BRANCH  29  31
HETATM   31  C15 UNL     1      59.869  26.660   5.233  1.00  0.00     0.192 A 
HETATM   32  O1  UNL     1      59.668  27.965   5.262  1.00  0.00    -0.218 OA
HETATM   33  N5  UNL     1      59.228  28.401   4.131  1.00  0.00    -0.269 N 
HETATM   34  C16 UNL     1      59.113  27.380   3.279  1.00  0.00     0.139 A 
ATOM     35  H5  UNL     1      59.002  29.373   3.921  1.00  0.00     0.194 HD
HETATM   36  C17 UNL     1      59.517  26.265   3.965  1.00  0.00     0.088 A 
BRANCH  36  37
HETATM   37  C18 UNL     1      59.583  24.898   3.497  1.00  0.00    -0.058 C 
HETATM   38  C19 UNL     1      59.646  23.758   3.088  1.00  0.00    -0.069 C 
BRANCH  38  39
HETATM   39  C20 UNL     1      59.745  22.388   2.587  1.00  0.00     0.193 C 
HETATM   40  C21 UNL     1      58.380  21.745   2.456  1.00  0.00     0.053 C 
BRANCH  39  41
HETATM   41  O2  UNL     1      60.348  22.463   1.331  1.00  0.00    -0.384 OA
ATOM     42  H2  UNL     1      59.940  21.796   0.791  1.00  0.00     0.211 HD
ENDBRANCH  39  41
ENDBRANCH  38  39
ENDBRANCH  36  37
ENDBRANCH  29  31
ENDBRANCH  25  29
ENDBRANCH   4  25
TORSDOF 9
ENDMDL
MODEL 4
REMARK VINA RESULT: -9.722333901      3.089      9.237
REMARK  9 active torsions:
REMARK  status: ('A' for Active; 'I' for Inactive)
REMARK    1  A    between atoms: N1_6  and  C6_7 
REMARK    2  A    between atoms: C9_10  and  N2_11 
REMARK    3  A    between atoms: N2_11  and  C10_13 
REMARK    4  A    between atoms: C13_16  and  C14_17 
REMARK    5  A    between atoms: C14_17  and  N4_21 
REMARK    6  A    between atoms: N4_21  and  C15_23 
REMARK    7  A    between atoms: C17_28  and  C18_29 
REMARK    8  A    between atoms: C19_30  and  C20_31 
REMARK    9  A    between atoms: C20_31  and  O2_33 
ROOT
HETATM    1  C10 UNL     1      63.806  23.465  15.087  1.00  0.00     0.033 A 
HETATM    2  C11 UNL     1      64.417  24.557  15.668  1.00  0.00     0.030 A 
HETATM    3  C12 UNL     1      63.917  25.091  16.835  1.00  0.00     0.017 A 
HETATM    4  C13 UNL     1      62.802  24.546  17.440  1.00  0.00     0.008 A 
HETATM    5  C22 UNL     1      62.202  23.452  16.846  1.00  0.00     0.017 A 
HETATM    6  C23 UNL     1      62.692  22.901  15.672  1.00  0.00     0.030 A 
ENDROOT
BRANCH   1   7
HETATM    7  N2  UNL     1      64.336  22.928  13.885  1.00  0.00    -0.341 N 
ATOM      8  H2  UNL     1      65.053  22.204  13.939  1.00  0.00     0.167 HD
BRANCH   7   9
HETATM    9  C9  UNL     1      63.938  23.329  12.727  1.00  0.00     0.120 A 
HETATM   10  C8  UNL     1      62.876  24.196  12.671  1.00  0.00     0.054 A 
HETATM   11  C7  UNL     1      62.476  24.605  11.410  1.00  0.00     0.055 A 
HETATM   12  C6  UNL     1      63.128  24.150  10.269  1.00  0.00     0.141 A 
HETATM   13  N7  UNL     1      64.160  23.302  10.413  1.00  0.00    -0.282 N 
HETATM   14  N6  UNL     1      64.567  22.891  11.618  1.00  0.00    -0.284 N 
ATOM     15  H7  UNL     1      64.644  22.963   9.582  1.00  0.00     0.188 HD
ATOM     16  H6  UNL     1      65.353  22.246  11.699  1.00  0.00     0.188 HD
BRANCH  12  17
HETATM   17  N1  UNL     1      62.704  24.581   8.982  1.00  0.00    -0.243 N 
HETATM   18  C4  UNL     1      61.442  24.540   8.504  1.00  0.00     0.034 A 
HETATM   19  C3  UNL     1      61.402  25.038   7.222  1.00  0.00     0.052 A 
HETATM   20  C5  UNL     1      60.262  24.023   9.265  1.00  0.00     0.070 C 
HETATM   21  C2  UNL     1      62.702  25.392   6.928  1.00  0.00     0.024 A 
HETATM   22  C1  UNL     1      63.172  25.989   5.631  1.00  0.00     0.070 C 
HETATM   23  N8  UNL     1      63.435  25.099   8.006  1.00  0.00    -0.297 N 
ATOM     24  H8  UNL     1      64.441  25.256   8.070  1.00  0.00     0.187 HD
ENDBRANCH  12  17
ENDBRANCH   7   9
ENDBRANCH   1   7
BRANCH   4  25
HETATM   25  C14 UNL     1      62.260  25.098  18.675  1.00  0.00     0.111 C 
HETATM   26  N3  UNL     1      62.777  24.771  19.809  1.00  0.00    -0.385 N 
ATOM     27  H32 UNL     1      63.567  24.126  19.844  1.00  0.00     0.157 HD
ATOM     28  H31 UNL     1      62.398  25.158  20.673  1.00  0.00     0.157 HD
BRANCH  25  29
HETATM   29  N4  UNL     1      61.167  25.990  18.626  1.00  0.00    -0.320 N 
ATOM     30  H4  UNL     1      61.346  26.945  18.313  1.00  0.00     0.169 HD
BRANCH  29  31
HETATM   31  C15 UNL     1      59.966  25.681  18.948  1.00  0.00     0.192 A 
HETATM   32  O1  UNL     1      59.419  25.574  20.145  1.00  0.00    -0.218 OA
HETATM   33  N5  UNL     1      58.176  25.240  20.069  1.00  0.00    -0.269 N 
HETATM   34  C16 UNL     1      57.833  25.107  18.786  1.00  0.00     0.139 A 
ATOM     35  H5  UNL     1      57.553  25.099  20.864  1.00  0.00     0.194 HD
HETATM   36  C17 UNL     1      58.961  25.385  18.059  1.00  0.00     0.088 A 
BRANCH  36  37
HETATM   37  C18 UNL     1      59.127  25.382  16.623  1.00  0.00    -0.058 C 
HETATM   38  C19 UNL     1      59.247  25.382  15.416  1.00  0.00    -0.069 C 
BRANCH  38  39
HETATM   39  C20 UNL     1      59.375  25.400  13.959  1.00  0.00     0.193 C 
HETATM   40  C21 UNL     1      59.236  24.010  13.373  1.00  0.00     0.053 C 
BRANCH  39  41
HETATM   41  O2  UNL     1      58.351  26.216  13.476  1.00  0.00    -0.384 OA
ATOM     42  H2  UNL     1      58.438  26.233  12.530  1.00  0.00     0.211 HD
ENDBRANCH  39  41
ENDBRANCH  38  39
ENDBRANCH  36  37
ENDBRANCH  29  31
ENDBRANCH  25  29
ENDBRANCH   4  25
TORSDOF 9
ENDMDL
MODEL 5
REMARK VINA RESULT: -9.608457962      2.277      3.814
REMARK  9 active torsions:
REMARK  status: ('A' for Active; 'I' for Inactive)
REMARK    1  A    between atoms: N1_6  and  C6_7 
REMARK    2  A    between atoms: C9_10  and  N2_11 
REMARK    3  A    between atoms: N2_11  and  C10_13 
REMARK    4  A    between atoms: C13_16  and  C14_17 
REMARK    5  A    between atoms: C14_17  and  N4_21 
REMARK    6  A    between atoms: N4_21  and  C15_23 
REMARK    7  A    between atoms: C17_28  and  C18_29 
REMARK    8  A    between atoms: C19_30  and  C20_31 
REMARK    9  A    between atoms: C20_31  and  O2_33 
ROOT
HETATM    1  C10 UNL     1      61.759  23.747   9.886  1.00  0.00     0.033 A 
HETATM    2  C11 UNL     1      62.018  24.507   8.764  1.00  0.00     0.030 A 
HETATM    3  C12 UNL     1      60.986  24.906   7.944  1.00  0.00     0.017 A 
HETATM    4  C13 UNL     1      59.681  24.555   8.229  1.00  0.00     0.008 A 
HETATM    5  C22 UNL     1      59.439  23.793   9.357  1.00  0.00     0.017 A 
HETATM    6  C23 UNL     1      60.465  23.383  10.193  1.00  0.00     0.030 A 
ENDROOT
BRANCH   1   7
HETATM    7  N2  UNL     1      62.836  23.345  10.719  1.00  0.00    -0.341 N 
ATOM      8  H2  UNL     1      63.592  22.790  10.317  1.00  0.00     0.167 HD
BRANCH   7   9
HETATM    9  C9  UNL     1      62.886  23.661  11.967  1.00  0.00     0.120 A 
HETATM   10  C8  UNL     1      63.357  22.725  12.853  1.00  0.00     0.054 A 
HETATM   11  C7  UNL     1      63.397  23.099  14.186  1.00  0.00     0.055 A 
HETATM   12  C6  UNL     1      62.976  24.362  14.589  1.00  0.00     0.141 A 
HETATM   13  N7  UNL     1      62.528  25.218  13.655  1.00  0.00    -0.282 N 
HETATM   14  N6  UNL     1      62.479  24.883  12.362  1.00  0.00    -0.284 N 
ATOM     15  H7  UNL     1      62.217  26.147  13.941  1.00  0.00     0.188 HD
ATOM     16  H6  UNL     1      62.135  25.553  11.674  1.00  0.00     0.188 HD
BRANCH  12  17
HETATM   17  N1  UNL     1      63.023  24.729  15.961  1.00  0.00    -0.243 N 
HETATM   18  C4  UNL     1      64.132  25.051  16.662  1.00  0.00     0.034 A 
HETATM   19  C3  UNL     1      63.801  25.353  17.963  1.00  0.00     0.052 A 
HETATM   20  C5  UNL     1      65.517  25.073  16.096  1.00  0.00     0.070 C 
HETATM   21  C2  UNL     1      62.432  25.203  18.036  1.00  0.00     0.024 A 
HETATM   22  C1  UNL     1      61.594  25.423  19.264  1.00  0.00     0.070 C 
HETATM   23  N8  UNL     1      62.020  24.831  16.820  1.00  0.00    -0.297 N 
ATOM     24  H8  UNL     1      61.046  24.646  16.582  1.00  0.00     0.187 HD
ENDBRANCH  12  17
ENDBRANCH   7   9
ENDBRANCH   1   7
BRANCH   4  25
HETATM   25  C14 UNL     1      58.577  24.968   7.373  1.00  0.00     0.111 C 
HETATM   26  N3  UNL     1      57.395  25.104   7.867  1.00  0.00    -0.385 N 
ATOM     27  H32 UNL     1      57.231  24.923   8.858  1.00  0.00     0.157 HD
ATOM     28  H31 UNL     1      56.622  25.394   7.268  1.00  0.00     0.157 HD
BRANCH  25  29
HETATM   29  N4  UNL     1      58.805  25.219   6.002  1.00  0.00    -0.320 N 
ATOM     30  H4  UNL     1      59.276  26.088   5.750  1.00  0.00     0.169 HD
BRANCH  29  31
HETATM   31  C15 UNL     1      58.460  24.428   5.055  1.00  0.00     0.192 A 
HETATM   32  O1  UNL     1      57.295  23.849   4.827  1.00  0.00    -0.218 OA
HETATM   33  N5  UNL     1      57.332  23.115   3.768  1.00  0.00    -0.269 N 
HETATM   34  C16 UNL     1      58.553  23.174   3.231  1.00  0.00     0.139 A 
ATOM     35  H5  UNL     1      56.551  22.574   3.398  1.00  0.00     0.194 HD
HETATM   36  C17 UNL     1      59.283  24.006   4.039  1.00  0.00     0.088 A 
BRANCH  36  37
HETATM   37  C18 UNL     1      60.667  24.404   3.901  1.00  0.00    -0.058 C 
HETATM   38  C19 UNL     1      61.823  24.754   3.795  1.00  0.00    -0.069 C 
BRANCH  38  39
HETATM   39  C20 UNL     1      63.217  25.184   3.690  1.00  0.00     0.193 C 
HETATM   40  C21 UNL     1      63.487  25.875   2.370  1.00  0.00     0.053 C 
BRANCH  39  41
HETATM   41  O2  UNL     1      63.442  26.075   4.740  1.00  0.00    -0.384 OA
ATOM     42  H2  UNL     1      64.334  26.389   4.646  1.00  0.00     0.211 HD
ENDBRANCH  39  41
ENDBRANCH  38  39
ENDBRANCH  36  37
ENDBRANCH  29  31
ENDBRANCH  25  29
ENDBRANCH   4  25
TORSDOF 9
ENDMDL
