MODEL 1
REMARK VINA RESULT: -8.992295584      0.000      0.000
REMARK  6 active torsions:
REMARK  status: ('A' for Active; 'I' for Inactive)
REMARK    1  A    between atoms: N1_2  and  C2_4 
REMARK    2  A    between atoms: C5_9  and  N3_10 
REMARK    3  A    between atoms: N3_10  and  C6_11 
REMARK    4  A    between atoms: C8_13  and  N4_14 
REMARK       I    between atoms: N4_14  and  C9_16 
REMARK    5  A    between atoms: C9_16  and  C10_18 
REMARK    6  A    between atoms: C12_22  and  N6_23 
ROOT
HETATM    1  C2  UNL     1      62.460  25.573   6.313  1.00  0.00     0.116 A 
HETATM    2  C3  UNL     1      63.174  25.360   7.474  1.00  0.00     0.136 A 
HETATM    3  N2  UNL     1      62.510  24.942   8.567  1.00  0.00    -0.357 N 
ATOM      4  H2  UNL     1      63.044  24.787   9.422  1.00  0.00     0.165 HD
HETATM    5  C4  UNL     1      61.186  24.718   8.601  1.00  0.00     0.119 A 
HETATM    6  C5  UNL     1      60.560  24.281   9.782  1.00  0.00     0.208 A 
HETATM    7  N8  UNL     1      59.230  24.086   9.712  1.00  0.00    -0.338 N 
ATOM      8  H8  UNL     1      58.729  23.770  10.543  1.00  0.00     0.168 HD
HETATM    9  C19 UNL     1      58.553  24.296   8.586  1.00  0.00     0.116 A 
HETATM   10  C20 UNL     1      59.151  24.719   7.432  1.00  0.00     0.089 A 
HETATM   11  C21 UNL     1      58.423  24.945   6.227  1.00  0.00     0.103 C 
HETATM   12  N9  UNL     1      57.854  25.122   5.247  1.00  0.00    -0.191 NA
HETATM   13  C22 UNL     1      60.501  24.939   7.431  1.00  0.00     0.088 A 
HETATM   14  N10 UNL     1      61.132  25.360   6.311  1.00  0.00    -0.338 N 
ATOM     15  H10 UNL     1      60.597  25.518   5.457  1.00  0.00     0.167 HD
ENDROOT
BRANCH   6  16
HETATM   16  N3  UNL     1      61.165  24.091  10.790  1.00  0.00    -0.385 NA
BRANCH  16  17
HETATM   17  C6  UNL     1      61.782  23.933  11.937  1.00  0.00     0.117 A 
HETATM   18  C7  UNL     1      61.270  24.490  13.139  1.00  0.00     0.074 A 
HETATM   19  C8  UNL     1      61.859  24.359  14.356  1.00  0.00     0.038 A 
HETATM   20  C15 UNL     1      63.053  23.618  14.388  1.00  0.00     0.030 A 
HETATM   21  C16 UNL     1      63.584  23.059  13.251  1.00  0.00     0.012 A 
HETATM   22  C17 UNL     1      62.979  23.199  12.030  1.00  0.00    -0.021 A 
HETATM   23  C18 UNL     1      63.512  22.617  10.802  1.00  0.00     0.052 C 
BRANCH  19  24
HETATM   24  N4  UNL     1      61.374  24.876  15.585  1.00  0.00    -0.323 N 
HETATM   25  C9  UNL     1      60.582  24.250  16.551  1.00  0.00     0.258 C 
HETATM   26  O1  UNL     1      60.184  23.082  16.438  1.00  0.00    -0.267 OA
ATOM     27  H4  UNL     1      61.640  25.839  15.792  1.00  0.00     0.169 HD
BRANCH  25  28
HETATM   28  C10 UNL     1      60.158  24.933  17.789  1.00  0.00     0.064 A 
HETATM   29  C11 UNL     1      58.798  25.044  18.104  1.00  0.00     0.124 A 
HETATM   30  N5  UNL     1      58.479  25.673  19.223  1.00  0.00    -0.201 N 
HETATM   31  C12 UNL     1      59.348  26.219  20.092  1.00  0.00     0.677 A 
ATOM     32  H5  UNL     1      57.487  25.752  19.447  1.00  0.00     0.183 HD
HETATM   33  N7  UNL     1      60.678  26.103  19.769  1.00  0.00    -0.201 N 
HETATM   34  C14 UNL     1      61.052  25.478  18.653  1.00  0.00     0.124 A 
ATOM     35  H7  UNL     1      61.385  26.498  20.388  1.00  0.00     0.183 HD
BRANCH  31  36
HETATM   36  N6  UNL     1      59.041  26.818  21.157  1.00  0.00    -0.230 N 
HETATM   37  C13 UNL     1      57.682  27.093  21.507  1.00  0.00     0.165 C 
ATOM     38  H6  UNL     1      59.785  27.115  21.789  1.00  0.00     0.177 HD
ENDBRANCH  31  36
ENDBRANCH  25  28
ENDBRANCH  19  24
ENDBRANCH  16  17
ENDBRANCH   6  16
BRANCH   1  39
HETATM   39  N1  UNL     1      63.096  25.972   5.265  1.00  0.00    -0.380 N 
HETATM   40  C1  UNL     1      63.347  25.096   4.155  1.00  0.00     0.147 C 
ATOM     41  H1  UNL     1      63.430  26.934   5.223  1.00  0.00     0.160 HD
ENDBRANCH   1  39
TORSDOF 6
ENDMDL
MODEL 2
REMARK VINA RESULT: -8.936916571      2.637      9.746
REMARK  6 active torsions:
REMARK  status: ('A' for Active; 'I' for Inactive)
REMARK    1  A    between atoms: N1_2  and  C2_4 
REMARK    2  A    between atoms: C5_9  and  N3_10 
REMARK    3  A    between atoms: N3_10  and  C6_11 
REMARK    4  A    between atoms: C8_13  and  N4_14 
REMARK       I    between atoms: N4_14  and  C9_16 
REMARK    5  A    between atoms: C9_16  and  C10_18 
REMARK    6  A    between atoms: C12_22  and  N6_23 
ROOT
HETATM    1  C2  UNL     1      56.899  27.226  14.673  1.00  0.00     0.116 A 
HETATM    2  C3  UNL     1      57.817  26.658  13.813  1.00  0.00     0.136 A 
HETATM    3  N2  UNL     1      58.822  25.934  14.337  1.00  0.00    -0.357 N 
ATOM      4  H2  UNL     1      59.497  25.517  13.695  1.00  0.00     0.165 HD
HETATM    5  C4  UNL     1      58.991  25.726  15.653  1.00  0.00     0.119 A 
HETATM    6  C5  UNL     1      60.067  24.955  16.128  1.00  0.00     0.208 A 
HETATM    7  N8  UNL     1      60.148  24.808  17.464  1.00  0.00    -0.338 N 
ATOM      8  H8  UNL     1      60.912  24.258  17.858  1.00  0.00     0.168 HD
HETATM    9  C19 UNL     1      59.257  25.361  18.282  1.00  0.00     0.116 A 
HETATM   10  C20 UNL     1      58.206  26.111  17.831  1.00  0.00     0.089 A 
HETATM   11  C21 UNL     1      57.253  26.705  18.710  1.00  0.00     0.103 C 
HETATM   12  N9  UNL     1      56.472  27.181  19.403  1.00  0.00    -0.191 NA
HETATM   13  C22 UNL     1      58.063  26.304  16.485  1.00  0.00     0.088 A 
HETATM   14  N10 UNL     1      57.038  27.041  15.997  1.00  0.00    -0.338 N 
ATOM     15  H10 UNL     1      56.366  27.460  16.639  1.00  0.00     0.167 HD
ENDROOT
BRANCH   6  16
HETATM   16  N3  UNL     1      60.865  24.457  15.396  1.00  0.00    -0.385 NA
BRANCH  16  17
HETATM   17  C6  UNL     1      61.747  23.980  14.552  1.00  0.00     0.117 A 
HETATM   18  C7  UNL     1      61.770  24.386  13.192  1.00  0.00     0.074 A 
HETATM   19  C8  UNL     1      62.659  23.931  12.270  1.00  0.00     0.038 A 
HETATM   20  C15 UNL     1      63.602  22.996  12.731  1.00  0.00     0.030 A 
HETATM   21  C16 UNL     1      63.618  22.575  14.038  1.00  0.00     0.012 A 
HETATM   22  C17 UNL     1      62.716  23.043  14.957  1.00  0.00    -0.021 A 
HETATM   23  C18 UNL     1      62.706  22.621  16.355  1.00  0.00     0.052 C 
BRANCH  19  24
HETATM   24  N4  UNL     1      62.735  24.325  10.909  1.00  0.00    -0.323 N 
HETATM   25  C9  UNL     1      61.780  24.186   9.899  1.00  0.00     0.258 C 
HETATM   26  O1  UNL     1      60.671  23.666  10.090  1.00  0.00    -0.267 OA
ATOM     27  H4  UNL     1      63.609  24.771  10.630  1.00  0.00     0.169 HD
BRANCH  25  28
HETATM   28  C10 UNL     1      62.016  24.654   8.519  1.00  0.00     0.064 A 
HETATM   29  C11 UNL     1      60.936  24.943   7.676  1.00  0.00     0.124 A 
HETATM   30  N5  UNL     1      61.210  25.350   6.448  1.00  0.00    -0.201 N 
HETATM   31  C12 UNL     1      62.441  25.514   5.932  1.00  0.00     0.677 A 
ATOM     32  H5  UNL     1      60.419  25.558   5.838  1.00  0.00     0.183 HD
HETATM   33  N7  UNL     1      63.490  25.226   6.770  1.00  0.00    -0.201 N 
HETATM   34  C14 UNL     1      63.267  24.812   8.016  1.00  0.00     0.124 A 
ATOM     35  H7  UNL     1      64.448  25.329   6.435  1.00  0.00     0.183 HD
BRANCH  31  36
HETATM   36  N6  UNL     1      62.699  25.902   4.761  1.00  0.00    -0.230 N 
HETATM   37  C13 UNL     1      63.261  25.027   3.779  1.00  0.00     0.165 C 
ATOM     38  H6  UNL     1      62.501  26.870   4.506  1.00  0.00     0.177 HD
ENDBRANCH  31  36
ENDBRANCH  25  28
ENDBRANCH  19  24
ENDBRANCH  16  17
ENDBRANCH   6  16
BRANCH   1  39
HETATM   39  N1  UNL     1      55.935  27.920  14.171  1.00  0.00    -0.380 N 
HETATM   40  C1  UNL     1      56.050  28.556  12.889  1.00  0.00     0.147 C 
ATOM     41  H1  UNL     1      55.068  28.019  14.699  1.00  0.00     0.160 HD
ENDBRANCH   1  39
TORSDOF 6
ENDMDL
MODEL 3
REMARK VINA RESULT: -8.850021068      2.152     10.162
REMARK  6 active torsions:
REMARK  status: ('A' for Active; 'I' for Inactive)
REMARK    1  A    between atoms: N1_2  and  C2_4 
REMARK    2  A    between atoms: C5_9  and  N3_10 
REMARK    3  A    between atoms: N3_10  and  C6_11 
REMARK    4  A    between atoms: C8_13  and  N4_14 
REMARK       I    between atoms: N4_14  and  C9_16 
REMARK    5  A    between atoms: C9_16  and  C10_18 
REMARK    6  A    between atoms: C12_22  and  N6_23 
ROOT
HETATM    1  C2  UNL     1      56.663  24.256  16.487  1.00  0.00     0.116 A 
HETATM    2  C3  UNL     1      57.486  23.854  15.455  1.00  0.00     0.136 A 
HETATM    3  N2  UNL     1      58.817  23.958  15.620  1.00  0.00    -0.357 N 
ATOM      4  H2  UNL     1      59.419  23.658  14.853  1.00  0.00     0.165 HD
HETATM    5  C4  UNL     1      59.401  24.432  16.733  1.00  0.00     0.119 A 
HETATM    6  C5  UNL     1      60.801  24.511  16.833  1.00  0.00     0.208 A 
HETATM    7  N8  UNL     1      61.287  25.001  17.988  1.00  0.00    -0.338 N 
ATOM      8  H8  UNL     1      62.297  25.079  18.110  1.00  0.00     0.168 HD
HETATM    9  C19 UNL     1      60.483  25.387  18.975  1.00  0.00     0.116 A 
HETATM   10  C20 UNL     1      59.120  25.314  18.889  1.00  0.00     0.089 A 
HETATM   11  C21 UNL     1      58.260  25.729  19.948  1.00  0.00     0.103 C 
HETATM   12  N9  UNL     1      57.554  26.050  20.793  1.00  0.00    -0.191 NA
HETATM   13  C22 UNL     1      58.557  24.826  17.743  1.00  0.00     0.088 A 
HETATM   14  N10 UNL     1      57.213  24.739  17.615  1.00  0.00    -0.338 N 
ATOM     15  H10 UNL     1      56.612  25.040  18.381  1.00  0.00     0.167 HD
ENDROOT
BRANCH   6  16
HETATM   16  N3  UNL     1      61.523  24.164  15.950  1.00  0.00    -0.385 NA
BRANCH  16  17
HETATM   17  C6  UNL     1      62.378  23.815  15.020  1.00  0.00     0.117 A 
HETATM   18  C7  UNL     1      62.241  24.263  13.679  1.00  0.00     0.074 A 
HETATM   19  C8  UNL     1      63.094  23.940  12.671  1.00  0.00     0.038 A 
HETATM   20  C15 UNL     1      64.170  23.104  13.017  1.00  0.00     0.030 A 
HETATM   21  C16 UNL     1      64.343  22.648  14.301  1.00  0.00     0.012 A 
HETATM   22  C17 UNL     1      63.475  22.982  15.308  1.00  0.00    -0.021 A 
HETATM   23  C18 UNL     1      63.630  22.520  16.684  1.00  0.00     0.052 C 
BRANCH  19  24
HETATM   24  N4  UNL     1      63.011  24.381  11.326  1.00  0.00    -0.323 N 
HETATM   25  C9  UNL     1      62.137  23.967  10.317  1.00  0.00     0.258 C 
HETATM   26  O1  UNL     1      61.267  23.103  10.495  1.00  0.00    -0.267 OA
ATOM     27  H4  UNL     1      63.683  25.100  11.057  1.00  0.00     0.169 HD
BRANCH  25  28
HETATM   28  C10 UNL     1      62.180  24.531   8.953  1.00  0.00     0.064 A 
HETATM   29  C11 UNL     1      61.012  24.619   8.187  1.00  0.00     0.124 A 
HETATM   30  N5  UNL     1      61.115  25.126   6.970  1.00  0.00    -0.201 N 
HETATM   31  C12 UNL     1      62.248  25.569   6.398  1.00  0.00     0.677 A 
ATOM     32  H5  UNL     1      60.260  25.187   6.417  1.00  0.00     0.183 HD
HETATM   33  N7  UNL     1      63.386  25.476   7.161  1.00  0.00    -0.201 N 
HETATM   34  C14 UNL     1      63.336  24.973   8.393  1.00  0.00     0.124 A 
ATOM     35  H7  UNL     1      64.277  25.794   6.780  1.00  0.00     0.183 HD
BRANCH  31  36
HETATM   36  N6  UNL     1      62.343  26.052   5.238  1.00  0.00    -0.230 N 
HETATM   37  C13 UNL     1      63.003  25.354   4.178  1.00  0.00     0.165 C 
ATOM     38  H6  UNL     1      61.936  26.968   5.049  1.00  0.00     0.177 HD
ENDBRANCH  31  36
ENDBRANCH  25  28
ENDBRANCH  19  24
ENDBRANCH  16  17
ENDBRANCH   6  16
BRANCH   1  39
HETATM   39  N1  UNL     1      55.387  24.155  16.330  1.00  0.00    -0.380 N 
HETATM   40  C1  UNL     1      54.801  23.920  15.040  1.00  0.00     0.147 C 
ATOM     41  H1  UNL     1      54.778  24.245  17.143  1.00  0.00     0.160 HD
ENDBRANCH   1  39
TORSDOF 6
ENDMDL
MODEL 4
REMARK VINA RESULT: -8.767056193      2.675     10.623
REMARK  6 active torsions:
REMARK  status: ('A' for Active; 'I' for Inactive)
REMARK    1  A    between atoms: N1_2  and  C2_4 
REMARK    2  A    between atoms: C5_9  and  N3_10 
REMARK    3  A    between atoms: N3_10  and  C6_11 
REMARK    4  A    between atoms: C8_13  and  N4_14 
REMARK       I    between atoms: N4_14  and  C9_16 
REMARK    5  A    between atoms: C9_16  and  C10_18 
REMARK    6  A    between atoms: C12_22  and  N6_23 
ROOT
HETATM    1  C2  UNL     1      61.779  25.108  17.885  1.00  0.00     0.116 A 
HETATM    2  C3  UNL     1      62.665  24.964  16.837  1.00  0.00     0.136 A 
HETATM    3  N2  UNL     1      62.177  24.648  15.625  1.00  0.00    -0.357 N 
ATOM      4  H2  UNL     1      62.838  24.544  14.855  1.00  0.00     0.165 HD
HETATM    5  C4  UNL     1      60.872  24.462  15.366  1.00  0.00     0.119 A 
HETATM    6  C5  UNL     1      60.434  24.133  14.071  1.00  0.00     0.208 A 
HETATM    7  N8  UNL     1      59.108  23.966  13.916  1.00  0.00    -0.338 N 
ATOM      8  H8  UNL     1      58.740  23.726  12.995  1.00  0.00     0.168 HD
HETATM    9  C19 UNL     1      58.264  24.107  14.935  1.00  0.00     0.116 A 
HETATM   10  C20 UNL     1      58.678  24.428  16.198  1.00  0.00     0.089 A 
HETATM   11  C21 UNL     1      57.772  24.577  17.290  1.00  0.00     0.103 C 
HETATM   12  N9  UNL     1      57.056  24.709  18.176  1.00  0.00    -0.191 NA
HETATM   13  C22 UNL     1      60.013  24.610  16.429  1.00  0.00     0.088 A 
HETATM   14  N10 UNL     1      60.466  24.926  17.664  1.00  0.00    -0.338 N 
ATOM     15  H10 UNL     1      59.805  25.028  18.434  1.00  0.00     0.167 HD
ENDROOT
BRANCH   6  16
HETATM   16  N3  UNL     1      61.189  24.009  13.157  1.00  0.00    -0.385 NA
BRANCH  16  17
HETATM   17  C6  UNL     1      61.960  23.834  12.111  1.00  0.00     0.117 A 
HETATM   18  C7  UNL     1      61.538  24.202  10.806  1.00  0.00     0.074 A 
HETATM   19  C8  UNL     1      62.290  24.050   9.685  1.00  0.00     0.038 A 
HETATM   20  C15 UNL     1      63.565  23.487   9.868  1.00  0.00     0.030 A 
HETATM   21  C16 UNL     1      64.016  23.118  11.112  1.00  0.00     0.012 A 
HETATM   22  C17 UNL     1      63.246  23.277  12.234  1.00  0.00    -0.021 A 
HETATM   23  C18 UNL     1      63.694  22.900  13.572  1.00  0.00     0.052 C 
BRANCH  19  24
HETATM   24  N4  UNL     1      61.920  24.423   8.367  1.00  0.00    -0.323 N 
HETATM   25  C9  UNL     1      62.563  25.299   7.489  1.00  0.00     0.258 C 
HETATM   26  O1  UNL     1      63.610  25.895   7.781  1.00  0.00    -0.267 OA
ATOM     27  H4  UNL     1      61.067  23.992   8.011  1.00  0.00     0.169 HD
BRANCH  25  28
HETATM   28  C10 UNL     1      62.045  25.584   6.136  1.00  0.00     0.064 A 
HETATM   29  C11 UNL     1      62.831  25.321   5.008  1.00  0.00     0.124 A 
HETATM   30  N5  UNL     1      62.316  25.604   3.823  1.00  0.00    -0.201 N 
HETATM   31  C12 UNL     1      61.096  26.125   3.602  1.00  0.00     0.677 A 
ATOM     32  H5  UNL     1      62.894  25.411   3.005  1.00  0.00     0.183 HD
HETATM   33  N7  UNL     1      60.337  26.379   4.718  1.00  0.00    -0.201 N 
HETATM   34  C14 UNL     1      60.810  26.111   5.935  1.00  0.00     0.124 A 
ATOM     35  H7  UNL     1      59.403  26.777   4.615  1.00  0.00     0.183 HD
BRANCH  31  36
HETATM   36  N6  UNL     1      60.608  26.395   2.473  1.00  0.00    -0.230 N 
HETATM   37  C13 UNL     1      61.211  25.939   1.258  1.00  0.00     0.165 C 
ATOM     38  H6  UNL     1      59.756  26.954   2.423  1.00  0.00     0.177 HD
ENDBRANCH  31  36
ENDBRANCH  25  28
ENDBRANCH  19  24
ENDBRANCH  16  17
ENDBRANCH   6  16
BRANCH   1  39
HETATM   39  N1  UNL     1      62.247  25.412  19.048  1.00  0.00    -0.380 N 
HETATM   40  C1  UNL     1      63.401  24.755  19.593  1.00  0.00     0.147 C 
ATOM     41  H1  UNL     1      61.785  26.139  19.594  1.00  0.00     0.160 HD
ENDBRANCH   1  39
TORSDOF 6
ENDMDL
MODEL 5
REMARK VINA RESULT: -8.754847269      1.848     10.568
REMARK  6 active torsions:
REMARK  status: ('A' for Active; 'I' for Inactive)
REMARK    1  A    between atoms: N1_2  and  C2_4 
REMARK    2  A    between atoms: C5_9  and  N3_10 
REMARK    3  A    between atoms: N3_10  and  C6_11 
REMARK    4  A    between atoms: C8_13  and  N4_14 
REMARK       I    between atoms: N4_14  and  C9_16 
REMARK    5  A    between atoms: C9_16  and  C10_18 
REMARK    6  A    between atoms: C12_22  and  N6_23 
ROOT
HETATM    1  C2  UNL     1      59.571  26.109  20.148  1.00  0.00     0.116 A 
HETATM    2  C3  UNL     1      60.726  25.901  19.422  1.00  0.00     0.136 A 
HETATM    3  N2  UNL     1      60.650  25.169  18.296  1.00  0.00    -0.357 N 
ATOM      4  H2  UNL     1      61.508  25.020  17.764  1.00  0.00     0.165 HD
HETATM    5  C4  UNL     1      59.515  24.623  17.830  1.00  0.00     0.119 A 
HETATM    6  C5  UNL     1      59.513  23.869  16.642  1.00  0.00     0.208 A 
HETATM    7  N8  UNL     1      58.325  23.364  16.261  1.00  0.00    -0.338 N 
ATOM      8  H8  UNL     1      58.272  22.809  15.407  1.00  0.00     0.168 HD
HETATM    9  C19 UNL     1      57.220  23.572  16.971  1.00  0.00     0.116 A 
HETATM   10  C20 UNL     1      57.209  24.304  18.126  1.00  0.00     0.089 A 
HETATM   11  C21 UNL     1      56.023  24.523  18.886  1.00  0.00     0.103 C 
HETATM   12  N9  UNL     1      55.076  24.717  19.504  1.00  0.00    -0.191 NA
HETATM   13  C22 UNL     1      58.382  24.846  18.574  1.00  0.00     0.088 A 
HETATM   14  N10 UNL     1      58.416  25.575  19.713  1.00  0.00    -0.338 N 
ATOM     15  H10 UNL     1      57.559  25.722  20.245  1.00  0.00     0.167 HD
ENDROOT
BRANCH   6  16
HETATM   16  N3  UNL     1      60.503  23.684  16.005  1.00  0.00    -0.385 NA
BRANCH  16  17
HETATM   17  C6  UNL     1      61.548  23.492  15.237  1.00  0.00     0.117 A 
HETATM   18  C7  UNL     1      61.564  23.920  13.883  1.00  0.00     0.074 A 
HETATM   19  C8  UNL     1      62.615  23.753  13.038  1.00  0.00     0.038 A 
HETATM   20  C15 UNL     1      63.743  23.109  13.576  1.00  0.00     0.030 A 
HETATM   21  C16 UNL     1      63.773  22.680  14.880  1.00  0.00     0.012 A 
HETATM   22  C17 UNL     1      62.705  22.855  15.721  1.00  0.00    -0.021 A 
HETATM   23  C18 UNL     1      62.703  22.415  17.113  1.00  0.00     0.052 C 
BRANCH  19  24
HETATM   24  N4  UNL     1      62.686  24.184  11.688  1.00  0.00    -0.323 N 
HETATM   25  C9  UNL     1      61.793  23.945  10.641  1.00  0.00     0.258 C 
HETATM   26  O1  UNL     1      60.757  23.279  10.781  1.00  0.00    -0.267 OA
ATOM     27  H4  UNL     1      63.503  24.748  11.449  1.00  0.00     0.169 HD
BRANCH  25  28
HETATM   28  C10 UNL     1      62.013  24.470   9.279  1.00  0.00     0.064 A 
HETATM   29  C11 UNL     1      63.313  24.710   8.815  1.00  0.00     0.124 A 
HETATM   30  N5  UNL     1      63.446  25.188   7.589  1.00  0.00    -0.201 N 
HETATM   31  C12 UNL     1      62.440  25.465   6.741  1.00  0.00     0.677 A 
ATOM     32  H5  UNL     1      64.395  25.362   7.258  1.00  0.00     0.183 HD
HETATM   33  N7  UNL     1      61.172  25.225   7.210  1.00  0.00    -0.201 N 
HETATM   34  C14 UNL     1      60.983  24.743   8.438  1.00  0.00     0.124 A 
ATOM     35  H7  UNL     1      60.367  25.417   6.613  1.00  0.00     0.183 HD
BRANCH  31  36
HETATM   36  N6  UNL     1      62.570  25.921   5.573  1.00  0.00    -0.230 N 
HETATM   37  C13 UNL     1      63.306  25.223   4.565  1.00  0.00     0.165 C 
ATOM     38  H6  UNL     1      62.137  26.814   5.341  1.00  0.00     0.177 HD
ENDBRANCH  31  36
ENDBRANCH  25  28
ENDBRANCH  19  24
ENDBRANCH  16  17
ENDBRANCH   6  16
BRANCH   1  39
HETATM   39  N1  UNL     1      59.642  26.812  21.227  1.00  0.00    -0.380 N 
HETATM   40  C1  UNL     1      58.468  27.186  21.964  1.00  0.00     0.147 C 
ATOM     41  H1  UNL     1      60.557  27.110  21.566  1.00  0.00     0.160 HD
ENDBRANCH   1  39
TORSDOF 6
ENDMDL
