MODEL 1
REMARK VINA RESULT: -6.367497850      0.000      0.000
REMARK  23 active torsions:
REMARK  status: ('A' for Active; 'I' for Inactive)
REMARK    1  A    between atoms: C2_2  and  C3_3 
REMARK    2  A    between atoms: C3_3  and  C4_4 
REMARK    3  A    between atoms: C4_4  and  C5_5 
REMARK    4  A    between atoms: C5_5  and  C6_6 
REMARK    5  A    between atoms: C6_6  and  N1_7 
REMARK    6  A    between atoms: C6_6  and  C14_22 
REMARK    7  A    between atoms: C6_6  and  C28_46 
REMARK       I    between atoms: N1_7  and  C7_9 
REMARK    8  A    between atoms: C7_9  and  C8_11 
REMARK    9  A    between atoms: C8_11  and  N2_12 
REMARK   10  A    between atoms: C8_11  and  C9_16 
REMARK   11  A    between atoms: C9_16  and  C10_17 
REMARK   12  A    between atoms: C10_17  and  N3_18 
REMARK       I    between atoms: C14_22  and  N4_24 
REMARK   13  A    between atoms: N4_24  and  C15_26 
REMARK   14  A    between atoms: C15_26  and  O3_27 
REMARK   15  A    between atoms: C15_26  and  C16_29 
REMARK   16  A    between atoms: C16_29  and  C17_30 
REMARK   17  A    between atoms: C17_30  and  C18_31 
REMARK       I    between atoms: C18_31  and  N5_33 
REMARK   18  A    between atoms: C22_37  and  C23_38 
REMARK   19  A    between atoms: C23_38  and  C24_39 
REMARK   20  A    between atoms: C23_38  and  N6_42 
REMARK   21  A    between atoms: C24_39  and  C25_40 
REMARK       I    between atoms: N6_42  and  C27_43 
REMARK   22  A    between atoms: C28_46  and  O5_47 
REMARK   23  A    between atoms: C28_46  and  N9_49 
ROOT
HETATM    1  C6  UNL     1      30.257  43.271  -1.794  1.00  0.00     0.179 C 
ENDROOT
BRANCH   1   2
HETATM    2  C5  UNL     1      29.764  43.471  -3.171  1.00  0.00     0.050 C 
BRANCH   2   3
HETATM    3  C4  UNL     1      29.603  44.769  -3.821  1.00  0.00     0.004 C 
BRANCH   3   4
HETATM    4  C3  UNL     1      28.057  45.050  -3.959  1.00  0.00    -0.000 C 
BRANCH   4   5
HETATM    5  C2  UNL     1      27.841  45.509  -5.368  1.00  0.00    -0.005 C 
HETATM    6  C1  UNL     1      28.951  45.215  -6.315  1.00  0.00     0.005 C 
ENDBRANCH   4   5
ENDBRANCH   3   4
ENDBRANCH   2   3
ENDBRANCH   1   2
BRANCH   1   7
HETATM    7  N1  UNL     1      30.235  41.788  -1.577  1.00  0.00    -0.335 N 
HETATM    8  C7  UNL     1      29.152  40.944  -1.573  1.00  0.00     0.249 C 
HETATM    9  O1  UNL     1      27.989  41.405  -1.768  1.00  0.00    -0.271 OA
ATOM     10  H1  UNL     1      31.140  41.350  -1.410  1.00  0.00     0.164 HD
BRANCH   8  11
HETATM   11  C8  UNL     1      29.226  39.481  -1.346  1.00  0.00     0.276 C 
BRANCH  11  12
HETATM   12  N2  UNL     1      29.620  39.248   0.027  1.00  0.00    -0.066 N 
ATOM     13  H23 UNL     1      28.970  39.662   0.696  1.00  0.00     0.275 HD
ATOM     14  H22 UNL     1      29.506  38.274   0.307  1.00  0.00     0.275 HD
ATOM     15  H21 UNL     1      30.575  39.582   0.151  1.00  0.00     0.275 HD
ENDBRANCH  11  12
BRANCH  11  16
HETATM   16  C9  UNL     1      30.339  38.960  -2.283  1.00  0.00     0.070 C 
BRANCH  16  17
HETATM   17  C10 UNL     1      29.785  37.976  -3.283  1.00  0.00     0.238 C 
BRANCH  17  18
HETATM   18  N3  UNL     1      30.178  36.621  -2.961  1.00  0.00    -0.079 N 
HETATM   19  C11 UNL     1      31.302  36.668  -2.041  1.00  0.00     0.271 C 
HETATM   20  C12 UNL     1      30.545  35.838  -4.097  1.00  0.00     0.271 C 
HETATM   21  C13 UNL     1      29.102  35.941  -2.243  1.00  0.00     0.271 C 
ENDBRANCH  17  18
ENDBRANCH  16  17
ENDBRANCH  11  16
ENDBRANCH   8  11
ENDBRANCH   1   7
BRANCH   1  22
HETATM   22  C14 UNL     1      31.772  43.475  -1.888  1.00  0.00     0.260 C 
HETATM   23  O2  UNL     1      32.476  42.875  -2.739  1.00  0.00    -0.270 OA
HETATM   24  N4  UNL     1      32.408  44.330  -0.993  1.00  0.00    -0.309 N 
ATOM     25  H4  UNL     1      31.802  44.880  -0.383  1.00  0.00     0.170 HD
BRANCH  24  26
HETATM   26  C15 UNL     1      33.769  44.516  -0.838  1.00  0.00     0.118 C 
BRANCH  26  27
HETATM   27  O3  UNL     1      34.379  43.441  -0.335  1.00  0.00    -0.349 OA
ATOM     28  H3  UNL     1      34.720  43.591   0.538  1.00  0.00     0.219 HD
ENDBRANCH  26  27
BRANCH  26  29
HETATM   29  C16 UNL     1      34.701  45.604  -1.091  1.00  0.00     0.093 C 
BRANCH  29  30
HETATM   30  C17 UNL     1      35.269  45.380  -2.462  1.00  0.00     0.111 C 
BRANCH  30  31
HETATM   31  C18 UNL     1      34.604  45.978  -3.614  1.00  0.00     0.220 C 
HETATM   32  O4  UNL     1      33.343  46.001  -3.736  1.00  0.00    -0.273 OA
HETATM   33  N5  UNL     1      35.421  46.589  -4.645  1.00  0.00    -0.344 N 
HETATM   34  C19 UNL     1      36.871  46.325  -4.714  1.00  0.00     0.126 C 
HETATM   35  C22 UNL     1      35.030  47.566  -5.553  1.00  0.00     0.123 C 
HETATM   36  C20 UNL     1      37.297  46.840  -6.046  1.00  0.00     0.022 C 
HETATM   37  C21 UNL     1      36.203  47.798  -6.488  1.00  0.00     0.030 C 
BRANCH  35  38
HETATM   38  C23 UNL     1      33.741  47.386  -6.335  1.00  0.00     0.189 C 
BRANCH  38  39
HETATM   39  C24 UNL     1      33.020  48.723  -6.164  1.00  0.00     0.041 C 
BRANCH  39  40
HETATM   40  C25 UNL     1      31.548  48.662  -6.302  1.00  0.00    -0.001 C 
HETATM   41  C26 UNL     1      30.850  48.177  -5.055  1.00  0.00     0.005 C 
ENDBRANCH  39  40
ENDBRANCH  38  39
BRANCH  38  42
HETATM   42  N6  UNL     1      33.883  46.920  -7.613  1.00  0.00    -0.413 NA
HETATM   43  C27 UNL     1      33.717  46.520  -8.711  1.00  0.00     0.270 C 
HETATM   44  N7  UNL     1      34.831  46.208  -9.585  1.00  0.00    -0.053 NA
HETATM   45  N8  UNL     1      32.443  46.258  -9.309  1.00  0.00    -0.053 NA
ENDBRANCH  38  42
ENDBRANCH  35  38
ENDBRANCH  30  31
ENDBRANCH  29  30
ENDBRANCH  26  29
ENDBRANCH  24  26
ENDBRANCH   1  22
BRANCH   1  46
HETATM   46  C28 UNL     1      29.648  43.930  -0.673  1.00  0.00     0.151 C 
BRANCH  46  47
HETATM   47  O5  UNL     1      30.094  43.422   0.488  1.00  0.00    -0.347 OA
ATOM     48  H5  UNL     1      29.505  43.631   1.203  1.00  0.00     0.219 HD
ENDBRANCH  46  47
BRANCH  46  49
HETATM   49  N9  UNL     1      28.727  44.935  -0.440  1.00  0.00    -0.372 N 
HETATM   50  C29 UNL     1      27.303  44.949  -0.312  1.00  0.00     0.150 C 
HETATM   51  C30 UNL     1      29.283  46.347  -0.368  1.00  0.00     0.150 C 
ENDBRANCH  46  49
ENDBRANCH   1  46
TORSDOF 23
ENDMDL
MODEL 2
REMARK VINA RESULT: -6.348063623      2.028      3.065
REMARK  23 active torsions:
REMARK  status: ('A' for Active; 'I' for Inactive)
REMARK    1  A    between atoms: C2_2  and  C3_3 
REMARK    2  A    between atoms: C3_3  and  C4_4 
REMARK    3  A    between atoms: C4_4  and  C5_5 
REMARK    4  A    between atoms: C5_5  and  C6_6 
REMARK    5  A    between atoms: C6_6  and  N1_7 
REMARK    6  A    between atoms: C6_6  and  C14_22 
REMARK    7  A    between atoms: C6_6  and  C28_46 
REMARK       I    between atoms: N1_7  and  C7_9 
REMARK    8  A    between atoms: C7_9  and  C8_11 
REMARK    9  A    between atoms: C8_11  and  N2_12 
REMARK   10  A    between atoms: C8_11  and  C9_16 
REMARK   11  A    between atoms: C9_16  and  C10_17 
REMARK   12  A    between atoms: C10_17  and  N3_18 
REMARK       I    between atoms: C14_22  and  N4_24 
REMARK   13  A    between atoms: N4_24  and  C15_26 
REMARK   14  A    between atoms: C15_26  and  O3_27 
REMARK   15  A    between atoms: C15_26  and  C16_29 
REMARK   16  A    between atoms: C16_29  and  C17_30 
REMARK   17  A    between atoms: C17_30  and  C18_31 
REMARK       I    between atoms: C18_31  and  N5_33 
REMARK   18  A    between atoms: C22_37  and  C23_38 
REMARK   19  A    between atoms: C23_38  and  C24_39 
REMARK   20  A    between atoms: C23_38  and  N6_42 
REMARK   21  A    between atoms: C24_39  and  C25_40 
REMARK       I    between atoms: N6_42  and  C27_43 
REMARK   22  A    between atoms: C28_46  and  O5_47 
REMARK   23  A    between atoms: C28_46  and  N9_49 
ROOT
HETATM    1  C6  UNL     1      28.707  42.209  -2.857  1.00  0.00     0.179 C 
ENDROOT
BRANCH   1   2
HETATM    2  C5  UNL     1      28.410  42.601  -4.249  1.00  0.00     0.050 C 
BRANCH   2   3
HETATM    3  C4  UNL     1      28.586  43.944  -4.795  1.00  0.00     0.004 C 
BRANCH   3   4
HETATM    4  C3  UNL     1      27.570  44.117  -5.988  1.00  0.00    -0.000 C 
BRANCH   4   5
HETATM    5  C2  UNL     1      26.582  42.998  -5.860  1.00  0.00    -0.005 C 
HETATM    6  C1  UNL     1      25.786  42.704  -7.083  1.00  0.00     0.005 C 
ENDBRANCH   4   5
ENDBRANCH   3   4
ENDBRANCH   2   3
ENDBRANCH   1   2
BRANCH   1   7
HETATM    7  N1  UNL     1      28.358  40.754  -2.773  1.00  0.00    -0.335 N 
HETATM    8  C7  UNL     1      27.120  40.183  -2.608  1.00  0.00     0.249 C 
HETATM    9  O1  UNL     1      26.093  40.916  -2.503  1.00  0.00    -0.271 OA
ATOM     10  H1  UNL     1      29.140  40.104  -2.847  1.00  0.00     0.164 HD
BRANCH   8  11
HETATM   11  C8  UNL     1      26.869  38.724  -2.533  1.00  0.00     0.276 C 
BRANCH  11  12
HETATM   12  N2  UNL     1      25.673  38.502  -1.750  1.00  0.00    -0.066 N 
ATOM     13  H23 UNL     1      25.879  38.264  -0.780  1.00  0.00     0.275 HD
ATOM     14  H22 UNL     1      25.154  39.363  -1.575  1.00  0.00     0.275 HD
ATOM     15  H21 UNL     1      25.108  37.792  -2.216  1.00  0.00     0.275 HD
ENDBRANCH  11  12
BRANCH  11  16
HETATM   16  C9  UNL     1      28.079  38.121  -1.784  1.00  0.00     0.070 C 
BRANCH  16  17
HETATM   17  C10 UNL     1      28.601  36.899  -2.497  1.00  0.00     0.238 C 
BRANCH  17  18
HETATM   18  N3  UNL     1      30.008  37.033  -2.809  1.00  0.00    -0.079 N 
HETATM   19  C11 UNL     1      30.145  37.359  -4.217  1.00  0.00     0.271 C 
HETATM   20  C12 UNL     1      30.778  35.862  -2.529  1.00  0.00     0.271 C 
HETATM   21  C13 UNL     1      30.580  38.162  -2.079  1.00  0.00     0.271 C 
ENDBRANCH  17  18
ENDBRANCH  16  17
ENDBRANCH  11  16
ENDBRANCH   8  11
ENDBRANCH   1   7
BRANCH   1  22
HETATM   22  C14 UNL     1      30.233  42.091  -2.802  1.00  0.00     0.260 C 
HETATM   23  O2  UNL     1      30.890  41.489  -3.688  1.00  0.00    -0.270 OA
HETATM   24  N4  UNL     1      30.926  42.641  -1.728  1.00  0.00    -0.309 N 
ATOM     25  H4  UNL     1      30.381  43.209  -1.080  1.00  0.00     0.170 HD
BRANCH  24  26
HETATM   26  C15 UNL     1      32.272  42.501  -1.443  1.00  0.00     0.118 C 
BRANCH  26  27
HETATM   27  O3  UNL     1      32.734  41.284  -1.737  1.00  0.00    -0.349 OA
ATOM     28  H3  UNL     1      32.311  40.909  -2.500  1.00  0.00     0.219 HD
ENDBRANCH  26  27
BRANCH  26  29
HETATM   29  C16 UNL     1      33.310  43.362  -0.896  1.00  0.00     0.093 C 
BRANCH  29  30
HETATM   30  C17 UNL     1      32.977  44.764  -1.317  1.00  0.00     0.111 C 
BRANCH  30  31
HETATM   31  C18 UNL     1      33.404  45.233  -2.629  1.00  0.00     0.220 C 
HETATM   32  O4  UNL     1      33.459  44.471  -3.640  1.00  0.00    -0.273 OA
HETATM   33  N5  UNL     1      33.757  46.632  -2.784  1.00  0.00    -0.344 N 
HETATM   34  C19 UNL     1      34.009  47.481  -1.604  1.00  0.00     0.126 C 
HETATM   35  C22 UNL     1      33.751  47.371  -3.961  1.00  0.00     0.123 C 
HETATM   36  C20 UNL     1      34.641  48.718  -2.143  1.00  0.00     0.022 C 
HETATM   37  C21 UNL     1      34.297  48.747  -3.623  1.00  0.00     0.030 C 
BRANCH  35  38
HETATM   38  C23 UNL     1      34.428  46.809  -5.199  1.00  0.00     0.189 C 
BRANCH  38  39
HETATM   39  C24 UNL     1      33.997  47.762  -6.314  1.00  0.00     0.041 C 
BRANCH  39  40
HETATM   40  C25 UNL     1      34.813  47.691  -7.547  1.00  0.00    -0.001 C 
HETATM   41  C26 UNL     1      34.331  46.646  -8.524  1.00  0.00     0.005 C 
ENDBRANCH  39  40
ENDBRANCH  38  39
BRANCH  38  42
HETATM   42  N6  UNL     1      35.768  46.561  -5.081  1.00  0.00    -0.413 NA
HETATM   43  C27 UNL     1      36.847  46.248  -4.720  1.00  0.00     0.270 C 
HETATM   44  N7  UNL     1      38.015  46.429  -5.560  1.00  0.00    -0.053 NA
HETATM   45  N8  UNL     1      37.158  45.698  -3.436  1.00  0.00    -0.053 NA
ENDBRANCH  38  42
ENDBRANCH  35  38
ENDBRANCH  30  31
ENDBRANCH  29  30
ENDBRANCH  26  29
ENDBRANCH  24  26
ENDBRANCH   1  22
BRANCH   1  46
HETATM   46  C28 UNL     1      28.134  42.906  -1.740  1.00  0.00     0.151 C 
BRANCH  46  47
HETATM   47  O5  UNL     1      28.315  42.220  -0.598  1.00  0.00    -0.347 OA
ATOM     48  H5  UNL     1      27.865  42.639   0.127  1.00  0.00     0.219 HD
ENDBRANCH  46  47
BRANCH  46  49
HETATM   49  N9  UNL     1      27.443  44.078  -1.497  1.00  0.00    -0.372 N 
HETATM   50  C29 UNL     1      26.189  44.591  -1.958  1.00  0.00     0.150 C 
HETATM   51  C30 UNL     1      28.147  45.101  -0.623  1.00  0.00     0.150 C 
ENDBRANCH  46  49
ENDBRANCH   1  46
TORSDOF 23
ENDMDL
MODEL 3
REMARK VINA RESULT: -6.330300023      2.199      3.522
REMARK  23 active torsions:
REMARK  status: ('A' for Active; 'I' for Inactive)
REMARK    1  A    between atoms: C2_2  and  C3_3 
REMARK    2  A    between atoms: C3_3  and  C4_4 
REMARK    3  A    between atoms: C4_4  and  C5_5 
REMARK    4  A    between atoms: C5_5  and  C6_6 
REMARK    5  A    between atoms: C6_6  and  N1_7 
REMARK    6  A    between atoms: C6_6  and  C14_22 
REMARK    7  A    between atoms: C6_6  and  C28_46 
REMARK       I    between atoms: N1_7  and  C7_9 
REMARK    8  A    between atoms: C7_9  and  C8_11 
REMARK    9  A    between atoms: C8_11  and  N2_12 
REMARK   10  A    between atoms: C8_11  and  C9_16 
REMARK   11  A    between atoms: C9_16  and  C10_17 
REMARK   12  A    between atoms: C10_17  and  N3_18 
REMARK       I    between atoms: C14_22  and  N4_24 
REMARK   13  A    between atoms: N4_24  and  C15_26 
REMARK   14  A    between atoms: C15_26  and  O3_27 
REMARK   15  A    between atoms: C15_26  and  C16_29 
REMARK   16  A    between atoms: C16_29  and  C17_30 
REMARK   17  A    between atoms: C17_30  and  C18_31 
REMARK       I    between atoms: C18_31  and  N5_33 
REMARK   18  A    between atoms: C22_37  and  C23_38 
REMARK   19  A    between atoms: C23_38  and  C24_39 
REMARK   20  A    between atoms: C23_38  and  N6_42 
REMARK   21  A    between atoms: C24_39  and  C25_40 
REMARK       I    between atoms: N6_42  and  C27_43 
REMARK   22  A    between atoms: C28_46  and  O5_47 
REMARK   23  A    between atoms: C28_46  and  N9_49 
ROOT
HETATM    1  C6  UNL     1      28.690  42.196  -2.869  1.00  0.00     0.179 C 
ENDROOT
BRANCH   1   2
HETATM    2  C5  UNL     1      28.376  42.642  -4.241  1.00  0.00     0.050 C 
BRANCH   2   3
HETATM    3  C4  UNL     1      27.071  43.122  -4.685  1.00  0.00     0.004 C 
BRANCH   3   4
HETATM    4  C3  UNL     1      27.247  44.609  -5.179  1.00  0.00    -0.000 C 
BRANCH   4   5
HETATM    5  C2  UNL     1      28.604  44.682  -5.809  1.00  0.00    -0.005 C 
HETATM    6  C1  UNL     1      29.308  45.985  -5.662  1.00  0.00     0.005 C 
ENDBRANCH   4   5
ENDBRANCH   3   4
ENDBRANCH   2   3
ENDBRANCH   1   2
BRANCH   1   7
HETATM    7  N1  UNL     1      28.326  40.743  -2.832  1.00  0.00    -0.335 N 
HETATM    8  C7  UNL     1      27.107  40.177  -2.550  1.00  0.00     0.249 C 
HETATM    9  O1  UNL     1      26.116  40.914  -2.273  1.00  0.00    -0.271 OA
ATOM     10  H1  UNL     1      29.080  40.090  -3.044  1.00  0.00     0.164 HD
BRANCH   8  11
HETATM   11  C8  UNL     1      26.839  38.719  -2.535  1.00  0.00     0.276 C 
BRANCH  11  12
HETATM   12  N2  UNL     1      25.610  38.484  -1.809  1.00  0.00    -0.066 N 
ATOM     13  H23 UNL     1      25.735  38.546  -0.798  1.00  0.00     0.275 HD
ATOM     14  H22 UNL     1      24.941  39.247  -1.914  1.00  0.00     0.275 HD
ATOM     15  H21 UNL     1      25.228  37.585  -2.100  1.00  0.00     0.275 HD
ENDBRANCH  11  12
BRANCH  11  16
HETATM   16  C9  UNL     1      28.012  38.078  -1.759  1.00  0.00     0.070 C 
BRANCH  16  17
HETATM   17  C10 UNL     1      28.577  36.899  -2.511  1.00  0.00     0.238 C 
BRANCH  17  18
HETATM   18  N3  UNL     1      29.979  37.091  -2.813  1.00  0.00    -0.079 N 
HETATM   19  C11 UNL     1      30.686  35.847  -2.564  1.00  0.00     0.271 C 
HETATM   20  C12 UNL     1      30.598  38.132  -2.055  1.00  0.00     0.271 C 
HETATM   21  C13 UNL     1      30.154  37.373  -4.236  1.00  0.00     0.271 C 
ENDBRANCH  17  18
ENDBRANCH  16  17
ENDBRANCH  11  16
ENDBRANCH   8  11
ENDBRANCH   1   7
BRANCH   1  22
HETATM   22  C14 UNL     1      30.215  42.060  -2.841  1.00  0.00     0.260 C 
HETATM   23  O2  UNL     1      30.848  41.443  -3.734  1.00  0.00    -0.270 OA
HETATM   24  N4  UNL     1      30.935  42.611  -1.785  1.00  0.00    -0.309 N 
ATOM     25  H4  UNL     1      30.409  43.191  -1.132  1.00  0.00     0.170 HD
BRANCH  24  26
HETATM   26  C15 UNL     1      32.284  42.457  -1.524  1.00  0.00     0.118 C 
BRANCH  26  27
HETATM   27  O3  UNL     1      32.731  41.239  -1.837  1.00  0.00    -0.349 OA
ATOM     28  H3  UNL     1      32.877  40.697  -1.071  1.00  0.00     0.219 HD
ENDBRANCH  26  27
BRANCH  26  29
HETATM   29  C16 UNL     1      33.338  43.304  -0.988  1.00  0.00     0.093 C 
BRANCH  29  30
HETATM   30  C17 UNL     1      33.220  44.633  -1.676  1.00  0.00     0.111 C 
BRANCH  30  31
HETATM   31  C18 UNL     1      34.342  45.129  -2.463  1.00  0.00     0.220 C 
HETATM   32  O4  UNL     1      35.548  44.957  -2.113  1.00  0.00    -0.273 OA
HETATM   33  N5  UNL     1      34.064  45.826  -3.704  1.00  0.00    -0.344 N 
HETATM   34  C19 UNL     1      32.707  46.321  -4.004  1.00  0.00     0.126 C 
HETATM   35  C22 UNL     1      34.920  45.977  -4.789  1.00  0.00     0.123 C 
HETATM   36  C20 UNL     1      32.874  47.235  -5.169  1.00  0.00     0.022 C 
HETATM   37  C21 UNL     1      34.210  46.868  -5.792  1.00  0.00     0.030 C 
BRANCH  35  38
HETATM   38  C23 UNL     1      36.344  46.451  -4.556  1.00  0.00     0.189 C 
BRANCH  38  39
HETATM   39  C24 UNL     1      37.007  46.300  -5.925  1.00  0.00     0.041 C 
BRANCH  39  40
HETATM   40  C25 UNL     1      38.273  47.048  -6.093  1.00  0.00    -0.001 C 
HETATM   41  C26 UNL     1      38.189  48.141  -7.131  1.00  0.00     0.005 C 
ENDBRANCH  39  40
ENDBRANCH  38  39
BRANCH  38  42
HETATM   42  N6  UNL     1      36.472  47.665  -3.938  1.00  0.00    -0.413 NA
HETATM   43  C27 UNL     1      36.378  48.604  -3.230  1.00  0.00     0.270 C 
HETATM   44  N7  UNL     1      37.185  49.793  -3.431  1.00  0.00    -0.053 NA
HETATM   45  N8  UNL     1      35.466  48.723  -2.134  1.00  0.00    -0.053 NA
ENDBRANCH  38  42
ENDBRANCH  35  38
ENDBRANCH  30  31
ENDBRANCH  29  30
ENDBRANCH  26  29
ENDBRANCH  24  26
ENDBRANCH   1  22
BRANCH   1  46
HETATM   46  C28 UNL     1      28.141  42.858  -1.718  1.00  0.00     0.151 C 
BRANCH  46  47
HETATM   47  O5  UNL     1      28.373  42.153  -0.598  1.00  0.00    -0.347 OA
ATOM     48  H5  UNL     1      27.599  42.120  -0.049  1.00  0.00     0.219 HD
ENDBRANCH  46  47
BRANCH  46  49
HETATM   49  N9  UNL     1      27.436  44.011  -1.428  1.00  0.00    -0.372 N 
HETATM   50  C29 UNL     1      26.086  44.261  -1.028  1.00  0.00     0.150 C 
HETATM   51  C30 UNL     1      28.183  45.319  -1.628  1.00  0.00     0.150 C 
ENDBRANCH  46  49
ENDBRANCH   1  46
TORSDOF 23
ENDMDL
MODEL 4
REMARK VINA RESULT: -6.299441119      3.303      6.719
REMARK  23 active torsions:
REMARK  status: ('A' for Active; 'I' for Inactive)
REMARK    1  A    between atoms: C2_2  and  C3_3 
REMARK    2  A    between atoms: C3_3  and  C4_4 
REMARK    3  A    between atoms: C4_4  and  C5_5 
REMARK    4  A    between atoms: C5_5  and  C6_6 
REMARK    5  A    between atoms: C6_6  and  N1_7 
REMARK    6  A    between atoms: C6_6  and  C14_22 
REMARK    7  A    between atoms: C6_6  and  C28_46 
REMARK       I    between atoms: N1_7  and  C7_9 
REMARK    8  A    between atoms: C7_9  and  C8_11 
REMARK    9  A    between atoms: C8_11  and  N2_12 
REMARK   10  A    between atoms: C8_11  and  C9_16 
REMARK   11  A    between atoms: C9_16  and  C10_17 
REMARK   12  A    between atoms: C10_17  and  N3_18 
REMARK       I    between atoms: C14_22  and  N4_24 
REMARK   13  A    between atoms: N4_24  and  C15_26 
REMARK   14  A    between atoms: C15_26  and  O3_27 
REMARK   15  A    between atoms: C15_26  and  C16_29 
REMARK   16  A    between atoms: C16_29  and  C17_30 
REMARK   17  A    between atoms: C17_30  and  C18_31 
REMARK       I    between atoms: C18_31  and  N5_33 
REMARK   18  A    between atoms: C22_37  and  C23_38 
REMARK   19  A    between atoms: C23_38  and  C24_39 
REMARK   20  A    between atoms: C23_38  and  N6_42 
REMARK   21  A    between atoms: C24_39  and  C25_40 
REMARK       I    between atoms: N6_42  and  C27_43 
REMARK   22  A    between atoms: C28_46  and  O5_47 
REMARK   23  A    between atoms: C28_46  and  N9_49 
ROOT
HETATM    1  C6  UNL     1      29.146  40.894  -1.387  1.00  0.00     0.179 C 
ENDROOT
BRANCH   1   2
HETATM    2  C5  UNL     1      29.425  39.849  -0.383  1.00  0.00     0.050 C 
BRANCH   2   3
HETATM    3  C4  UNL     1      28.990  38.458  -0.481  1.00  0.00     0.004 C 
BRANCH   3   4
HETATM    4  C3  UNL     1      30.080  37.669  -1.304  1.00  0.00    -0.000 C 
BRANCH   4   5
HETATM    5  C2  UNL     1      29.344  36.609  -2.063  1.00  0.00    -0.005 C 
HETATM    6  C1  UNL     1      30.171  35.458  -2.519  1.00  0.00     0.005 C 
ENDBRANCH   4   5
ENDBRANCH   3   4
ENDBRANCH   2   3
ENDBRANCH   1   2
BRANCH   1   7
HETATM    7  N1  UNL     1      28.799  42.120  -0.598  1.00  0.00    -0.335 N 
HETATM    8  C7  UNL     1      28.471  43.369  -1.064  1.00  0.00     0.249 C 
HETATM    9  O1  UNL     1      28.441  43.592  -2.309  1.00  0.00    -0.271 OA
ATOM     10  H1  UNL     1      28.806  42.012   0.416  1.00  0.00     0.164 HD
BRANCH   8  11
HETATM   11  C8  UNL     1      28.142  44.529  -0.202  1.00  0.00     0.276 C 
BRANCH  11  12
HETATM   12  N2  UNL     1      26.981  45.196  -0.751  1.00  0.00    -0.066 N 
ATOM     13  H23 UNL     1      26.889  46.157  -0.421  1.00  0.00     0.275 HD
ATOM     14  H22 UNL     1      27.081  45.399  -1.746  1.00  0.00     0.275 HD
ATOM     15  H21 UNL     1      26.157  44.632  -0.548  1.00  0.00     0.275 HD
ENDBRANCH  11  12
BRANCH  11  16
HETATM   16  C9  UNL     1      29.356  45.482  -0.287  1.00  0.00     0.070 C 
BRANCH  16  17
HETATM   17  C10 UNL     1      30.021  45.630   1.059  1.00  0.00     0.238 C 
BRANCH  17  18
HETATM   18  N3  UNL     1      29.909  46.985   1.554  1.00  0.00    -0.079 N 
HETATM   19  C11 UNL     1      29.682  47.876   0.430  1.00  0.00     0.271 C 
HETATM   20  C12 UNL     1      31.056  47.435   2.276  1.00  0.00     0.271 C 
HETATM   21  C13 UNL     1      28.731  47.113   2.410  1.00  0.00     0.271 C 
ENDBRANCH  17  18
ENDBRANCH  16  17
ENDBRANCH  11  16
ENDBRANCH   8  11
ENDBRANCH   1   7
BRANCH   1  22
HETATM   22  C14 UNL     1      30.525  41.323  -1.898  1.00  0.00     0.260 C 
HETATM   23  O2  UNL     1      31.147  40.670  -2.773  1.00  0.00    -0.270 OA
HETATM   24  N4  UNL     1      31.133  42.456  -1.365  1.00  0.00    -0.309 N 
ATOM     25  H4  UNL     1      30.565  43.021  -0.735  1.00  0.00     0.170 HD
BRANCH  24  26
HETATM   26  C15 UNL     1      32.422  42.899  -1.597  1.00  0.00     0.118 C 
BRANCH  26  27
HETATM   27  O3  UNL     1      32.706  42.989  -2.898  1.00  0.00    -0.349 OA
ATOM     28  H3  UNL     1      32.338  42.274  -3.401  1.00  0.00     0.219 HD
ENDBRANCH  26  27
BRANCH  26  29
HETATM   29  C16 UNL     1      33.548  43.292  -0.764  1.00  0.00     0.093 C 
BRANCH  29  30
HETATM   30  C17 UNL     1      33.484  44.785  -0.623  1.00  0.00     0.111 C 
BRANCH  30  31
HETATM   31  C18 UNL     1      34.513  45.604  -1.253  1.00  0.00     0.220 C 
HETATM   32  O4  UNL     1      35.598  45.116  -1.690  1.00  0.00    -0.273 OA
HETATM   33  N5  UNL     1      34.272  47.026  -1.403  1.00  0.00    -0.344 N 
HETATM   34  C19 UNL     1      33.190  47.691  -0.652  1.00  0.00     0.126 C 
HETATM   35  C22 UNL     1      34.863  47.883  -2.324  1.00  0.00     0.123 C 
HETATM   36  C20 UNL     1      33.449  49.151  -0.806  1.00  0.00     0.022 C 
HETATM   37  C21 UNL     1      34.364  49.282  -2.012  1.00  0.00     0.030 C 
BRANCH  35  38
HETATM   38  C23 UNL     1      36.372  47.871  -2.493  1.00  0.00     0.189 C 
BRANCH  38  39
HETATM   39  C24 UNL     1      36.606  48.729  -3.737  1.00  0.00     0.041 C 
BRANCH  39  40
HETATM   40  C25 UNL     1      36.759  47.971  -4.999  1.00  0.00    -0.001 C 
HETATM   41  C26 UNL     1      37.163  46.532  -4.788  1.00  0.00     0.005 C 
ENDBRANCH  39  40
ENDBRANCH  38  39
BRANCH  38  42
HETATM   42  N6  UNL     1      37.096  48.190  -1.378  1.00  0.00    -0.413 NA
HETATM   43  C27 UNL     1      37.485  48.370  -0.278  1.00  0.00     0.270 C 
HETATM   44  N7  UNL     1      38.804  48.913  -0.015  1.00  0.00    -0.053 NA
HETATM   45  N8  UNL     1      36.731  48.124   0.913  1.00  0.00    -0.053 NA
ENDBRANCH  38  42
ENDBRANCH  35  38
ENDBRANCH  30  31
ENDBRANCH  29  30
ENDBRANCH  26  29
ENDBRANCH  24  26
ENDBRANCH   1  22
BRANCH   1  46
HETATM   46  C28 UNL     1      28.174  40.700  -2.426  1.00  0.00     0.151 C 
BRANCH  46  47
HETATM   47  O5  UNL     1      28.601  41.216  -3.591  1.00  0.00    -0.347 OA
ATOM     48  H5  UNL     1      28.468  40.604  -4.305  1.00  0.00     0.219 HD
ENDBRANCH  46  47
BRANCH  46  49
HETATM   49  N9  UNL     1      26.918  40.141  -2.574  1.00  0.00    -0.372 N 
HETATM   50  C29 UNL     1      26.455  38.900  -3.114  1.00  0.00     0.150 C 
HETATM   51  C30 UNL     1      25.745  41.012  -2.158  1.00  0.00     0.150 C 
ENDBRANCH  46  49
ENDBRANCH   1  46
TORSDOF 23
ENDMDL
MODEL 5
REMARK VINA RESULT: -6.295802472      2.689      4.105
REMARK  23 active torsions:
REMARK  status: ('A' for Active; 'I' for Inactive)
REMARK    1  A    between atoms: C2_2  and  C3_3 
REMARK    2  A    between atoms: C3_3  and  C4_4 
REMARK    3  A    between atoms: C4_4  and  C5_5 
REMARK    4  A    between atoms: C5_5  and  C6_6 
REMARK    5  A    between atoms: C6_6  and  N1_7 
REMARK    6  A    between atoms: C6_6  and  C14_22 
REMARK    7  A    between atoms: C6_6  and  C28_46 
REMARK       I    between atoms: N1_7  and  C7_9 
REMARK    8  A    between atoms: C7_9  and  C8_11 
REMARK    9  A    between atoms: C8_11  and  N2_12 
REMARK   10  A    between atoms: C8_11  and  C9_16 
REMARK   11  A    between atoms: C9_16  and  C10_17 
REMARK   12  A    between atoms: C10_17  and  N3_18 
REMARK       I    between atoms: C14_22  and  N4_24 
REMARK   13  A    between atoms: N4_24  and  C15_26 
REMARK   14  A    between atoms: C15_26  and  O3_27 
REMARK   15  A    between atoms: C15_26  and  C16_29 
REMARK   16  A    between atoms: C16_29  and  C17_30 
REMARK   17  A    between atoms: C17_30  and  C18_31 
REMARK       I    between atoms: C18_31  and  N5_33 
REMARK   18  A    between atoms: C22_37  and  C23_38 
REMARK   19  A    between atoms: C23_38  and  C24_39 
REMARK   20  A    between atoms: C23_38  and  N6_42 
REMARK   21  A    between atoms: C24_39  and  C25_40 
REMARK       I    between atoms: N6_42  and  C27_43 
REMARK   22  A    between atoms: C28_46  and  O5_47 
REMARK   23  A    between atoms: C28_46  and  N9_49 
ROOT
HETATM    1  C6  UNL     1      28.679  42.163  -2.869  1.00  0.00     0.179 C 
ENDROOT
BRANCH   1   2
HETATM    2  C5  UNL     1      28.347  42.609  -4.236  1.00  0.00     0.050 C 
BRANCH   2   3
HETATM    3  C4  UNL     1      28.599  43.948  -4.762  1.00  0.00     0.004 C 
BRANCH   3   4
HETATM    4  C3  UNL     1      27.652  44.163  -6.006  1.00  0.00    -0.000 C 
BRANCH   4   5
HETATM    5  C2  UNL     1      28.429  44.990  -6.984  1.00  0.00    -0.005 C 
HETATM    6  C1  UNL     1      29.353  45.991  -6.383  1.00  0.00     0.005 C 
ENDBRANCH   4   5
ENDBRANCH   3   4
ENDBRANCH   2   3
ENDBRANCH   1   2
BRANCH   1   7
HETATM    7  N1  UNL     1      28.310  40.710  -2.827  1.00  0.00    -0.335 N 
HETATM    8  C7  UNL     1      27.078  40.151  -2.591  1.00  0.00     0.249 C 
HETATM    9  O1  UNL     1      26.078  40.893  -2.369  1.00  0.00    -0.271 OA
ATOM     10  H1  UNL     1      29.071  40.053  -2.996  1.00  0.00     0.164 HD
BRANCH   8  11
HETATM   11  C8  UNL     1      26.807  38.694  -2.566  1.00  0.00     0.276 C 
BRANCH  11  12
HETATM   12  N2  UNL     1      25.584  38.466  -1.827  1.00  0.00    -0.066 N 
ATOM     13  H23 UNL     1      25.559  37.546  -1.386  1.00  0.00     0.275 HD
ATOM     14  H22 UNL     1      25.528  39.029  -0.979  1.00  0.00     0.275 HD
ATOM     15  H21 UNL     1      24.794  38.621  -2.453  1.00  0.00     0.275 HD
ENDBRANCH  11  12
BRANCH  11  16
HETATM   16  C9  UNL     1      27.985  38.053  -1.798  1.00  0.00     0.070 C 
BRANCH  16  17
HETATM   17  C10 UNL     1      28.534  36.864  -2.546  1.00  0.00     0.238 C 
BRANCH  17  18
HETATM   18  N3  UNL     1      29.951  37.010  -2.798  1.00  0.00    -0.079 N 
HETATM   19  C11 UNL     1      30.142  37.394  -4.186  1.00  0.00     0.271 C 
HETATM   20  C12 UNL     1      30.712  35.829  -2.537  1.00  0.00     0.271 C 
HETATM   21  C13 UNL     1      30.494  38.109  -2.001  1.00  0.00     0.271 C 
ENDBRANCH  17  18
ENDBRANCH  16  17
ENDBRANCH  11  16
ENDBRANCH   8  11
ENDBRANCH   1   7
BRANCH   1  22
HETATM   22  C14 UNL     1      30.203  42.021  -2.863  1.00  0.00     0.260 C 
HETATM   23  O2  UNL     1      30.828  41.469  -3.804  1.00  0.00    -0.270 OA
HETATM   24  N4  UNL     1      30.933  42.491  -1.776  1.00  0.00    -0.309 N 
ATOM     25  H4  UNL     1      30.414  43.023  -1.078  1.00  0.00     0.170 HD
BRANCH  24  26
HETATM   26  C15 UNL     1      32.283  42.315  -1.537  1.00  0.00     0.118 C 
BRANCH  26  27
HETATM   27  O3  UNL     1      32.719  41.113  -1.920  1.00  0.00    -0.349 OA
ATOM     28  H3  UNL     1      33.004  41.101  -2.825  1.00  0.00     0.219 HD
ENDBRANCH  26  27
BRANCH  26  29
HETATM   29  C16 UNL     1      33.348  43.125  -0.965  1.00  0.00     0.093 C 
BRANCH  29  30
HETATM   30  C17 UNL     1      33.112  44.536  -1.421  1.00  0.00     0.111 C 
BRANCH  30  31
HETATM   31  C18 UNL     1      34.240  45.328  -1.897  1.00  0.00     0.220 C 
HETATM   32  O4  UNL     1      35.362  44.813  -2.182  1.00  0.00    -0.273 OA
HETATM   33  N5  UNL     1      34.059  46.757  -2.071  1.00  0.00    -0.344 N 
HETATM   34  C19 UNL     1      32.901  47.449  -1.473  1.00  0.00     0.126 C 
HETATM   35  C22 UNL     1      34.794  47.599  -2.896  1.00  0.00     0.123 C 
HETATM   36  C20 UNL     1      33.216  48.901  -1.582  1.00  0.00     0.022 C 
HETATM   37  C21 UNL     1      34.293  49.010  -2.649  1.00  0.00     0.030 C 
BRANCH  35  38
HETATM   38  C23 UNL     1      36.312  47.548  -2.855  1.00  0.00     0.189 C 
BRANCH  38  39
HETATM   39  C24 UNL     1      36.738  48.378  -4.065  1.00  0.00     0.041 C 
BRANCH  39  40
HETATM   40  C25 UNL     1      36.855  47.621  -5.332  1.00  0.00    -0.001 C 
HETATM   41  C26 UNL     1      37.456  46.248  -5.156  1.00  0.00     0.005 C 
ENDBRANCH  39  40
ENDBRANCH  38  39
BRANCH  38  42
HETATM   42  N6  UNL     1      36.883  47.868  -1.654  1.00  0.00    -0.413 NA
HETATM   43  C27 UNL     1      37.118  48.061  -0.514  1.00  0.00     0.270 C 
HETATM   44  N7  UNL     1      38.408  48.560  -0.076  1.00  0.00    -0.053 NA
HETATM   45  N8  UNL     1      36.193  47.877   0.562  1.00  0.00    -0.053 NA
ENDBRANCH  38  42
ENDBRANCH  35  38
ENDBRANCH  30  31
ENDBRANCH  29  30
ENDBRANCH  26  29
ENDBRANCH  24  26
ENDBRANCH   1  22
BRANCH   1  46
HETATM   46  C28 UNL     1      28.149  42.826  -1.711  1.00  0.00     0.151 C 
BRANCH  46  47
HETATM   47  O5  UNL     1      28.402  42.125  -0.593  1.00  0.00    -0.347 OA
ATOM     48  H5  UNL     1      29.321  41.890  -0.538  1.00  0.00     0.219 HD
ENDBRANCH  46  47
BRANCH  46  49
HETATM   49  N9  UNL     1      27.446  43.979  -1.412  1.00  0.00    -0.372 N 
HETATM   50  C29 UNL     1      26.200  44.513  -1.866  1.00  0.00     0.150 C 
HETATM   51  C30 UNL     1      28.127  44.949  -0.461  1.00  0.00     0.150 C 
ENDBRANCH  46  49
ENDBRANCH   1  46
TORSDOF 23
ENDMDL
