MODEL 1
REMARK VINA RESULT: -7.016587493      0.000      0.000
REMARK  21 active torsions:
REMARK  status: ('A' for Active; 'I' for Inactive)
REMARK    1  A    between atoms: N1_1  and  C1_5 
REMARK    2  A    between atoms: C1_5  and  C2_6 
REMARK    3  A    between atoms: C2_6  and  C3_7 
REMARK    4  A    between atoms: C3_7  and  C4_8 
REMARK    5  A    between atoms: C4_8  and  C5_9 
REMARK    6  A    between atoms: C5_9  and  N2_10 
REMARK    7  A    between atoms: C5_9  and  C17_27 
REMARK       I    between atoms: N2_10  and  C6_11 
REMARK    8  A    between atoms: C6_11  and  C7_13 
REMARK    9  A    between atoms: C7_13  and  C8_14 
REMARK   10  A    between atoms: C8_14  and  C9_15 
REMARK   11  A    between atoms: C9_15  and  C10_16 
REMARK   12  A    between atoms: C10_16  and  C11_17 
REMARK   13  A    between atoms: C11_17  and  N3_18 
REMARK       I    between atoms: C12_20  and  N5_22 
REMARK   14  A    between atoms: C17_27  and  O2_28 
REMARK   15  A    between atoms: C17_27  and  N6_30 
REMARK   16  A    between atoms: C21_34  and  S1_35 
REMARK   17  A    between atoms: S1_35  and  C22_37 
REMARK   18  A    between atoms: C22_37  and  C23_38 
REMARK   19  A    between atoms: C23_38  and  C24_39 
REMARK   20  A    between atoms: C24_39  and  C25_40 
REMARK       I    between atoms: C25_40  and  N7_42 
REMARK   21  A    between atoms: C27_47  and  C28_48 
ROOT
HETATM    1  C5  UNL     1      29.487  39.037  -1.913  1.00  0.00     0.240 C 
ENDROOT
BRANCH   1   2
HETATM    2  C4  UNL     1      29.617  37.791  -1.166  1.00  0.00     0.048 C 
BRANCH   2   3
HETATM    3  C3  UNL     1      29.485  36.450  -1.767  1.00  0.00     0.005 C 
BRANCH   3   4
HETATM    4  C2  UNL     1      30.739  36.267  -2.600  1.00  0.00     0.027 C 
BRANCH   4   5
HETATM    5  C1  UNL     1      30.465  36.138  -4.094  1.00  0.00     0.229 C 
BRANCH   5   6
HETATM    6  N1  UNL     1      30.167  37.455  -4.704  1.00  0.00    -0.079 N 
ATOM      7  H13 UNL     1      29.293  37.434  -5.230  1.00  0.00     0.274 HD
ATOM      8  H12 UNL     1      29.910  38.144  -3.997  1.00  0.00     0.274 HD
ATOM      9  H11 UNL     1      30.942  37.781  -5.280  1.00  0.00     0.274 HD
ENDBRANCH   5   6
ENDBRANCH   4   5
ENDBRANCH   3   4
ENDBRANCH   2   3
ENDBRANCH   1   2
BRANCH   1  10
HETATM   10  N2  UNL     1      28.085  39.065  -2.356  1.00  0.00    -0.401 NA
HETATM   11  C6  UNL     1      26.833  39.091  -2.755  1.00  0.00     0.287 C 
HETATM   12  O1  UNL     1      26.239  39.794  -3.562  1.00  0.00    -0.258 OA
BRANCH  11  13
HETATM   13  C7  UNL     1      25.911  38.039  -2.071  1.00  0.00     0.119 C 
BRANCH  13  14
HETATM   14  C8  UNL     1      24.842  37.527  -2.943  1.00  0.00     0.010 C 
BRANCH  14  15
HETATM   15  C9  UNL     1      23.418  37.755  -2.507  1.00  0.00     0.002 C 
BRANCH  15  16
HETATM   16  C10 UNL     1      22.949  38.991  -3.283  1.00  0.00     0.020 C 
BRANCH  16  17
HETATM   17  C11 UNL     1      22.606  40.096  -2.323  1.00  0.00     0.122 C 
BRANCH  17  18
HETATM   18  N3  UNL     1      23.585  41.111  -2.354  1.00  0.00    -0.365 N 
HETATM   19  C12 UNL     1      23.695  42.183  -1.740  1.00  0.00     0.186 C 
HETATM   20  N4  UNL     1      22.791  42.712  -0.761  1.00  0.00    -0.064 NA
HETATM   21  N5  UNL     1      24.856  42.959  -2.043  1.00  0.00    -0.356 N 
HETATM   22  C13 UNL     1      25.505  43.178  -3.339  1.00  0.00     0.125 C 
HETATM   23  C16 UNL     1      25.650  43.737  -1.123  1.00  0.00     0.125 C 
HETATM   24  C14 UNL     1      25.519  44.727  -3.341  1.00  0.00     0.021 C 
HETATM   25  C15 UNL     1      25.927  45.029  -1.902  1.00  0.00     0.021 C 
ATOM     26  H3  UNL     1      24.348  40.928  -3.006  1.00  0.00     0.162 HD
ENDBRANCH  17  18
ENDBRANCH  16  17
ENDBRANCH  15  16
ENDBRANCH  14  15
ENDBRANCH  13  14
ENDBRANCH  11  13
ENDBRANCH   1  10
BRANCH   1  27
HETATM   27  C17 UNL     1      29.892  40.372  -1.565  1.00  0.00     0.151 C 
BRANCH  27  28
HETATM   28  O2  UNL     1      30.493  40.442  -0.386  1.00  0.00    -0.347 OA
ATOM     29  H2  UNL     1      30.260  41.220   0.106  1.00  0.00     0.219 HD
ENDBRANCH  27  28
BRANCH  27  30
HETATM   30  N6  UNL     1      29.798  41.604  -2.222  1.00  0.00    -0.351 N 
HETATM   31  C18 UNL     1      28.925  42.732  -2.161  1.00  0.00     0.102 C 
HETATM   32  C19 UNL     1      29.073  42.606  -3.751  1.00  0.00     0.052 C 
HETATM   33  C27 UNL     1      29.582  44.041  -2.036  1.00  0.00     0.116 C 
HETATM   34  C20 UNL     1      30.505  42.318  -3.242  1.00  0.00     0.105 C 
HETATM   35  C21 UNL     1      30.890  43.683  -2.672  1.00  0.00     0.117 C 
BRANCH  35  36
HETATM   36  S1  UNL     1      32.318  43.779  -1.761  1.00  0.00     0.022 S 
HETATM   37  O3  UNL     1      32.839  42.487  -0.983  1.00  0.00    -0.258 OA
BRANCH  36  38
HETATM   38  C22 UNL     1      33.555  44.753  -2.611  1.00  0.00     0.109 C 
BRANCH  38  39
HETATM   39  C23 UNL     1      34.768  44.877  -1.745  1.00  0.00     0.022 C 
BRANCH  39  40
HETATM   40  C24 UNL     1      35.332  46.228  -1.664  1.00  0.00     0.104 C 
BRANCH  40  41
HETATM   41  C25 UNL     1      36.765  46.343  -1.974  1.00  0.00     0.223 C 
HETATM   42  O4  UNL     1      37.605  46.509  -1.016  1.00  0.00    -0.273 OA
HETATM   43  N7  UNL     1      37.265  46.286  -3.240  1.00  0.00    -0.304 N 
HETATM   44  C26 UNL     1      36.883  46.509  -4.378  1.00  0.00     0.203 C 
ATOM     45  H7  UNL     1      38.233  45.966  -3.236  1.00  0.00     0.171 HD
HETATM   46  N8  UNL     1      35.614  46.972  -4.766  1.00  0.00    -0.066 NA
HETATM   47  N9  UNL     1      37.852  46.256  -5.441  1.00  0.00    -0.066 NA
ENDBRANCH  40  41
ENDBRANCH  39  40
ENDBRANCH  38  39
ENDBRANCH  36  38
ENDBRANCH  35  36
BRANCH  33  48
HETATM   48  C28 UNL     1      29.519  44.778  -0.825  1.00  0.00     0.238 C 
HETATM   49  N10 UNL     1      29.494  46.183  -0.801  1.00  0.00    -0.062 NA
HETATM   50  O5  UNL     1      29.474  44.180   0.286  1.00  0.00    -0.276 OA
ENDBRANCH  33  48
ENDBRANCH  27  30
ENDBRANCH   1  27
TORSDOF 21
ENDMDL
MODEL 2
REMARK VINA RESULT: -6.940431068      1.707      2.348
REMARK  21 active torsions:
REMARK  status: ('A' for Active; 'I' for Inactive)
REMARK    1  A    between atoms: N1_1  and  C1_5 
REMARK    2  A    between atoms: C1_5  and  C2_6 
REMARK    3  A    between atoms: C2_6  and  C3_7 
REMARK    4  A    between atoms: C3_7  and  C4_8 
REMARK    5  A    between atoms: C4_8  and  C5_9 
REMARK    6  A    between atoms: C5_9  and  N2_10 
REMARK    7  A    between atoms: C5_9  and  C17_27 
REMARK       I    between atoms: N2_10  and  C6_11 
REMARK    8  A    between atoms: C6_11  and  C7_13 
REMARK    9  A    between atoms: C7_13  and  C8_14 
REMARK   10  A    between atoms: C8_14  and  C9_15 
REMARK   11  A    between atoms: C9_15  and  C10_16 
REMARK   12  A    between atoms: C10_16  and  C11_17 
REMARK   13  A    between atoms: C11_17  and  N3_18 
REMARK       I    between atoms: C12_20  and  N5_22 
REMARK   14  A    between atoms: C17_27  and  O2_28 
REMARK   15  A    between atoms: C17_27  and  N6_30 
REMARK   16  A    between atoms: C21_34  and  S1_35 
REMARK   17  A    between atoms: S1_35  and  C22_37 
REMARK   18  A    between atoms: C22_37  and  C23_38 
REMARK   19  A    between atoms: C23_38  and  C24_39 
REMARK   20  A    between atoms: C24_39  and  C25_40 
REMARK       I    between atoms: C25_40  and  N7_42 
REMARK   21  A    between atoms: C27_47  and  C28_48 
ROOT
HETATM    1  C5  UNL     1      29.374  39.026  -1.966  1.00  0.00     0.240 C 
ENDROOT
BRANCH   1   2
HETATM    2  C4  UNL     1      29.679  37.777  -1.275  1.00  0.00     0.048 C 
BRANCH   2   3
HETATM    3  C3  UNL     1      30.676  36.796  -1.743  1.00  0.00     0.005 C 
BRANCH   3   4
HETATM    4  C2  UNL     1      29.941  35.939  -2.756  1.00  0.00     0.027 C 
BRANCH   4   5
HETATM    5  C1  UNL     1      30.476  36.078  -4.176  1.00  0.00     0.229 C 
BRANCH   5   6
HETATM    6  N1  UNL     1      30.153  37.406  -4.747  1.00  0.00    -0.079 N 
ATOM      7  H13 UNL     1      29.745  38.025  -4.046  1.00  0.00     0.274 HD
ATOM      8  H12 UNL     1      30.998  37.938  -4.956  1.00  0.00     0.274 HD
ATOM      9  H11 UNL     1      29.553  37.322  -5.566  1.00  0.00     0.274 HD
ENDBRANCH   5   6
ENDBRANCH   4   5
ENDBRANCH   3   4
ENDBRANCH   2   3
ENDBRANCH   1   2
BRANCH   1  10
HETATM   10  N2  UNL     1      27.984  38.872  -2.423  1.00  0.00    -0.401 NA
HETATM   11  C6  UNL     1      26.745  38.737  -2.836  1.00  0.00     0.287 C 
HETATM   12  O1  UNL     1      26.125  39.235  -3.766  1.00  0.00    -0.258 OA
BRANCH  11  13
HETATM   13  C7  UNL     1      25.878  37.766  -1.979  1.00  0.00     0.119 C 
BRANCH  13  14
HETATM   14  C8  UNL     1      24.972  36.920  -2.771  1.00  0.00     0.010 C 
BRANCH  14  15
HETATM   15  C9  UNL     1      24.060  35.983  -2.021  1.00  0.00     0.002 C 
BRANCH  15  16
HETATM   16  C10 UNL     1      22.648  36.299  -2.526  1.00  0.00     0.020 C 
BRANCH  16  17
HETATM   17  C11 UNL     1      21.923  37.144  -1.516  1.00  0.00     0.122 C 
BRANCH  17  18
HETATM   18  N3  UNL     1      22.199  38.513  -1.717  1.00  0.00    -0.365 N 
HETATM   19  C12 UNL     1      21.706  39.361  -2.477  1.00  0.00     0.186 C 
HETATM   20  N4  UNL     1      20.646  39.159  -3.421  1.00  0.00    -0.064 NA
HETATM   21  N5  UNL     1      22.258  40.676  -2.386  1.00  0.00    -0.356 N 
HETATM   22  C13 UNL     1      23.654  41.078  -2.199  1.00  0.00     0.125 C 
HETATM   23  C16 UNL     1      21.548  41.928  -2.486  1.00  0.00     0.125 C 
HETATM   24  C14 UNL     1      23.794  42.031  -3.412  1.00  0.00     0.021 C 
HETATM   25  C15 UNL     1      22.471  42.788  -3.358  1.00  0.00     0.021 C 
ATOM     26  H3  UNL     1      22.946  38.875  -1.124  1.00  0.00     0.162 HD
ENDBRANCH  17  18
ENDBRANCH  16  17
ENDBRANCH  15  16
ENDBRANCH  14  15
ENDBRANCH  13  14
ENDBRANCH  11  13
ENDBRANCH   1  10
BRANCH   1  27
HETATM   27  C17 UNL     1      29.581  40.387  -1.552  1.00  0.00     0.151 C 
BRANCH  27  28
HETATM   28  O2  UNL     1      30.477  40.505  -0.583  1.00  0.00    -0.347 OA
ATOM     29  H2  UNL     1      31.373  40.456  -0.896  1.00  0.00     0.219 HD
ENDBRANCH  27  28
BRANCH  27  30
HETATM   30  N6  UNL     1      29.044  41.609  -1.974  1.00  0.00    -0.351 N 
HETATM   31  C18 UNL     1      28.140  42.571  -1.431  1.00  0.00     0.102 C 
HETATM   32  C19 UNL     1      27.599  42.529  -2.939  1.00  0.00     0.052 C 
HETATM   33  C27 UNL     1      28.601  43.966  -1.458  1.00  0.00     0.116 C 
HETATM   34  C20 UNL     1      29.134  42.468  -3.116  1.00  0.00     0.105 C 
HETATM   35  C21 UNL     1      29.539  43.857  -2.621  1.00  0.00     0.117 C 
BRANCH  35  36
HETATM   36  S1  UNL     1      31.193  44.159  -2.393  1.00  0.00     0.022 S 
HETATM   37  O3  UNL     1      32.259  43.058  -2.841  1.00  0.00    -0.258 OA
BRANCH  36  38
HETATM   38  C22 UNL     1      31.592  45.860  -2.778  1.00  0.00     0.109 C 
BRANCH  38  39
HETATM   39  C23 UNL     1      31.986  46.572  -1.523  1.00  0.00     0.022 C 
BRANCH  39  40
HETATM   40  C24 UNL     1      32.919  45.836  -0.665  1.00  0.00     0.104 C 
BRANCH  40  41
HETATM   41  C25 UNL     1      34.205  46.499  -0.401  1.00  0.00     0.223 C 
HETATM   42  O4  UNL     1      34.249  47.480   0.428  1.00  0.00    -0.273 OA
HETATM   43  N7  UNL     1      35.374  46.132  -0.996  1.00  0.00    -0.304 N 
HETATM   44  C26 UNL     1      35.736  45.584  -2.026  1.00  0.00     0.203 C 
ATOM     45  H7  UNL     1      36.174  46.385  -0.417  1.00  0.00     0.171 HD
HETATM   46  N8  UNL     1      34.913  45.110  -3.062  1.00  0.00    -0.066 NA
HETATM   47  N9  UNL     1      37.176  45.402  -2.183  1.00  0.00    -0.066 NA
ENDBRANCH  40  41
ENDBRANCH  39  40
ENDBRANCH  38  39
ENDBRANCH  36  38
ENDBRANCH  35  36
BRANCH  33  48
HETATM   48  C28 UNL     1      28.970  44.637  -0.263  1.00  0.00     0.238 C 
HETATM   49  N10 UNL     1      28.540  45.944   0.027  1.00  0.00    -0.062 NA
HETATM   50  O5  UNL     1      29.701  44.065   0.592  1.00  0.00    -0.276 OA
ENDBRANCH  33  48
ENDBRANCH  27  30
ENDBRANCH   1  27
TORSDOF 21
ENDMDL
MODEL 3
REMARK VINA RESULT: -6.930147584      3.370      9.971
REMARK  21 active torsions:
REMARK  status: ('A' for Active; 'I' for Inactive)
REMARK    1  A    between atoms: N1_1  and  C1_5 
REMARK    2  A    between atoms: C1_5  and  C2_6 
REMARK    3  A    between atoms: C2_6  and  C3_7 
REMARK    4  A    between atoms: C3_7  and  C4_8 
REMARK    5  A    between atoms: C4_8  and  C5_9 
REMARK    6  A    between atoms: C5_9  and  N2_10 
REMARK    7  A    between atoms: C5_9  and  C17_27 
REMARK       I    between atoms: N2_10  and  C6_11 
REMARK    8  A    between atoms: C6_11  and  C7_13 
REMARK    9  A    between atoms: C7_13  and  C8_14 
REMARK   10  A    between atoms: C8_14  and  C9_15 
REMARK   11  A    between atoms: C9_15  and  C10_16 
REMARK   12  A    between atoms: C10_16  and  C11_17 
REMARK   13  A    between atoms: C11_17  and  N3_18 
REMARK       I    between atoms: C12_20  and  N5_22 
REMARK   14  A    between atoms: C17_27  and  O2_28 
REMARK   15  A    between atoms: C17_27  and  N6_30 
REMARK   16  A    between atoms: C21_34  and  S1_35 
REMARK   17  A    between atoms: S1_35  and  C22_37 
REMARK   18  A    between atoms: C22_37  and  C23_38 
REMARK   19  A    between atoms: C23_38  and  C24_39 
REMARK   20  A    between atoms: C24_39  and  C25_40 
REMARK       I    between atoms: C25_40  and  N7_42 
REMARK   21  A    between atoms: C27_47  and  C28_48 
ROOT
HETATM    1  C5  UNL     1      28.108  39.218  -1.977  1.00  0.00     0.240 C 
ENDROOT
BRANCH   1   2
HETATM    2  C4  UNL     1      28.559  37.835  -1.868  1.00  0.00     0.048 C 
BRANCH   2   3
HETATM    3  C3  UNL     1      29.797  37.421  -1.181  1.00  0.00     0.005 C 
BRANCH   3   4
HETATM    4  C2  UNL     1      30.673  36.831  -2.269  1.00  0.00     0.027 C 
BRANCH   4   5
HETATM    5  C1  UNL     1      29.932  36.570  -3.575  1.00  0.00     0.229 C 
BRANCH   5   6
HETATM    6  N1  UNL     1      30.234  37.610  -4.585  1.00  0.00    -0.079 N 
ATOM      7  H13 UNL     1      30.984  37.315  -5.212  1.00  0.00     0.274 HD
ATOM      8  H12 UNL     1      29.482  37.697  -5.268  1.00  0.00     0.274 HD
ATOM      9  H11 UNL     1      30.445  38.505  -4.145  1.00  0.00     0.274 HD
ENDBRANCH   5   6
ENDBRANCH   4   5
ENDBRANCH   3   4
ENDBRANCH   2   3
ENDBRANCH   1   2
BRANCH   1  10
HETATM   10  N2  UNL     1      29.297  39.966  -2.414  1.00  0.00    -0.401 NA
HETATM   11  C6  UNL     1      30.358  40.634  -2.807  1.00  0.00     0.287 C 
HETATM   12  O1  UNL     1      31.008  40.614  -3.844  1.00  0.00    -0.258 OA
BRANCH  11  13
HETATM   13  C7  UNL     1      30.917  41.640  -1.758  1.00  0.00     0.119 C 
BRANCH  13  14
HETATM   14  C8  UNL     1      30.940  43.036  -2.225  1.00  0.00     0.010 C 
BRANCH  14  15
HETATM   15  C9  UNL     1      32.287  43.678  -2.438  1.00  0.00     0.002 C 
BRANCH  15  16
HETATM   16  C10 UNL     1      33.097  43.349  -1.179  1.00  0.00     0.020 C 
BRANCH  16  17
HETATM   17  C11 UNL     1      34.208  44.348  -1.013  1.00  0.00     0.122 C 
BRANCH  17  18
HETATM   18  N3  UNL     1      33.976  45.176   0.105  1.00  0.00    -0.365 N 
HETATM   19  C12 UNL     1      33.303  46.208   0.253  1.00  0.00     0.186 C 
HETATM   20  N4  UNL     1      32.524  46.880  -0.746  1.00  0.00    -0.064 NA
HETATM   21  N5  UNL     1      33.307  46.772   1.566  1.00  0.00    -0.356 N 
HETATM   22  C13 UNL     1      34.416  46.883   2.517  1.00  0.00     0.125 C 
HETATM   23  C16 UNL     1      32.199  47.392   2.252  1.00  0.00     0.125 C 
HETATM   24  C14 UNL     1      34.343  48.406   2.793  1.00  0.00     0.021 C 
HETATM   25  C15 UNL     1      32.837  48.622   2.912  1.00  0.00     0.021 C 
ATOM     26  H3  UNL     1      34.452  44.868   0.953  1.00  0.00     0.162 HD
ENDBRANCH  17  18
ENDBRANCH  16  17
ENDBRANCH  15  16
ENDBRANCH  14  15
ENDBRANCH  13  14
ENDBRANCH  11  13
ENDBRANCH   1  10
BRANCH   1  27
HETATM   27  C17 UNL     1      26.948  39.765  -2.627  1.00  0.00     0.151 C 
BRANCH  27  28
HETATM   28  O2  UNL     1      26.476  38.987  -3.590  1.00  0.00    -0.347 OA
ATOM     29  H2  UNL     1      25.548  39.113  -3.750  1.00  0.00     0.219 HD
ENDBRANCH  27  28
BRANCH  27  30
HETATM   30  N6  UNL     1      26.208  40.938  -2.439  1.00  0.00    -0.351 N 
HETATM   31  C18 UNL     1      26.335  42.303  -2.837  1.00  0.00     0.102 C 
HETATM   32  C19 UNL     1      25.883  42.519  -1.315  1.00  0.00     0.052 C 
HETATM   33  C27 UNL     1      25.143  42.902  -3.452  1.00  0.00     0.116 C 
HETATM   34  C20 UNL     1      25.001  41.335  -1.778  1.00  0.00     0.105 C 
HETATM   35  C21 UNL     1      24.111  42.024  -2.813  1.00  0.00     0.117 C 
BRANCH  35  36
HETATM   36  S1  UNL     1      23.131  41.038  -3.786  1.00  0.00     0.022 S 
HETATM   37  O3  UNL     1      23.812  39.948  -4.733  1.00  0.00    -0.258 OA
BRANCH  36  38
HETATM   38  C22 UNL     1      21.662  40.524  -2.903  1.00  0.00     0.109 C 
BRANCH  38  39
HETATM   39  C23 UNL     1      21.620  39.031  -2.840  1.00  0.00     0.022 C 
BRANCH  39  40
HETATM   40  C24 UNL     1      22.622  38.423  -1.958  1.00  0.00     0.104 C 
BRANCH  40  41
HETATM   41  C25 UNL     1      22.356  37.035  -1.550  1.00  0.00     0.223 C 
HETATM   42  O4  UNL     1      21.808  36.809  -0.410  1.00  0.00    -0.273 OA
HETATM   43  N7  UNL     1      22.664  35.955  -2.320  1.00  0.00    -0.304 N 
HETATM   44  C26 UNL     1      23.459  35.666  -3.202  1.00  0.00     0.203 C 
ATOM     45  H7  UNL     1      22.061  35.163  -2.098  1.00  0.00     0.171 HD
HETATM   46  N8  UNL     1      24.445  36.500  -3.755  1.00  0.00    -0.066 NA
HETATM   47  N9  UNL     1      23.357  34.310  -3.736  1.00  0.00    -0.066 NA
ENDBRANCH  40  41
ENDBRANCH  39  40
ENDBRANCH  38  39
ENDBRANCH  36  38
ENDBRANCH  35  36
BRANCH  33  48
HETATM   48  C28 UNL     1      25.109  43.204  -4.838  1.00  0.00     0.238 C 
HETATM   49  N10 UNL     1      25.930  42.545  -5.770  1.00  0.00    -0.062 NA
HETATM   50  O5  UNL     1      24.319  44.083  -5.282  1.00  0.00    -0.276 OA
ENDBRANCH  33  48
ENDBRANCH  27  30
ENDBRANCH   1  27
TORSDOF 21
ENDMDL
MODEL 4
REMARK VINA RESULT: -6.898844021      1.598      2.283
REMARK  21 active torsions:
REMARK  status: ('A' for Active; 'I' for Inactive)
REMARK    1  A    between atoms: N1_1  and  C1_5 
REMARK    2  A    between atoms: C1_5  and  C2_6 
REMARK    3  A    between atoms: C2_6  and  C3_7 
REMARK    4  A    between atoms: C3_7  and  C4_8 
REMARK    5  A    between atoms: C4_8  and  C5_9 
REMARK    6  A    between atoms: C5_9  and  N2_10 
REMARK    7  A    between atoms: C5_9  and  C17_27 
REMARK       I    between atoms: N2_10  and  C6_11 
REMARK    8  A    between atoms: C6_11  and  C7_13 
REMARK    9  A    between atoms: C7_13  and  C8_14 
REMARK   10  A    between atoms: C8_14  and  C9_15 
REMARK   11  A    between atoms: C9_15  and  C10_16 
REMARK   12  A    between atoms: C10_16  and  C11_17 
REMARK   13  A    between atoms: C11_17  and  N3_18 
REMARK       I    between atoms: C12_20  and  N5_22 
REMARK   14  A    between atoms: C17_27  and  O2_28 
REMARK   15  A    between atoms: C17_27  and  N6_30 
REMARK   16  A    between atoms: C21_34  and  S1_35 
REMARK   17  A    between atoms: S1_35  and  C22_37 
REMARK   18  A    between atoms: C22_37  and  C23_38 
REMARK   19  A    between atoms: C23_38  and  C24_39 
REMARK   20  A    between atoms: C24_39  and  C25_40 
REMARK       I    between atoms: C25_40  and  N7_42 
REMARK   21  A    between atoms: C27_47  and  C28_48 
ROOT
HETATM    1  C5  UNL     1      29.302  39.133  -2.126  1.00  0.00     0.240 C 
ENDROOT
BRANCH   1   2
HETATM    2  C4  UNL     1      29.520  37.850  -1.466  1.00  0.00     0.048 C 
BRANCH   2   3
HETATM    3  C3  UNL     1      30.584  36.898  -1.840  1.00  0.00     0.005 C 
BRANCH   3   4
HETATM    4  C2  UNL     1      29.910  35.896  -2.758  1.00  0.00     0.027 C 
BRANCH   4   5
HETATM    5  C1  UNL     1      30.567  35.785  -4.128  1.00  0.00     0.229 C 
BRANCH   5   6
HETATM    6  N1  UNL     1      30.274  36.972  -4.965  1.00  0.00    -0.079 N 
ATOM      7  H13 UNL     1      30.641  37.826  -4.544  1.00  0.00     0.274 HD
ATOM      8  H12 UNL     1      30.824  36.969  -5.823  1.00  0.00     0.274 HD
ATOM      9  H11 UNL     1      29.277  37.050  -5.161  1.00  0.00     0.274 HD
ENDBRANCH   5   6
ENDBRANCH   4   5
ENDBRANCH   3   4
ENDBRANCH   2   3
ENDBRANCH   1   2
BRANCH   1  10
HETATM   10  N2  UNL     1      27.887  39.112  -2.526  1.00  0.00    -0.401 NA
HETATM   11  C6  UNL     1      26.624  39.096  -2.888  1.00  0.00     0.287 C 
HETATM   12  O1  UNL     1      26.022  39.628  -3.811  1.00  0.00    -0.258 OA
BRANCH  11  13
HETATM   13  C7  UNL     1      25.696  38.248  -1.967  1.00  0.00     0.119 C 
BRANCH  13  14
HETATM   14  C8  UNL     1      25.275  36.969  -2.561  1.00  0.00     0.010 C 
BRANCH  14  15
HETATM   15  C9  UNL     1      24.227  36.172  -1.828  1.00  0.00     0.002 C 
BRANCH  15  16
HETATM   16  C10 UNL     1      22.909  36.475  -2.548  1.00  0.00     0.020 C 
BRANCH  16  17
HETATM   17  C11 UNL     1      21.994  37.244  -1.635  1.00  0.00     0.122 C 
BRANCH  17  18
HETATM   18  N3  UNL     1      22.188  38.634  -1.785  1.00  0.00    -0.365 N 
HETATM   19  C12 UNL     1      21.724  39.458  -2.588  1.00  0.00     0.186 C 
HETATM   20  N4  UNL     1      20.800  39.199  -3.653  1.00  0.00    -0.064 NA
HETATM   21  N5  UNL     1      22.161  40.808  -2.416  1.00  0.00    -0.356 N 
HETATM   22  C13 UNL     1      23.491  41.308  -2.059  1.00  0.00     0.125 C 
HETATM   23  C16 UNL     1      21.375  42.007  -2.584  1.00  0.00     0.125 C 
HETATM   24  C14 UNL     1      23.700  42.294  -3.236  1.00  0.00     0.021 C 
HETATM   25  C15 UNL     1      22.326  42.951  -3.329  1.00  0.00     0.021 C 
ATOM     26  H3  UNL     1      22.830  39.037  -1.103  1.00  0.00     0.162 HD
ENDBRANCH  17  18
ENDBRANCH  16  17
ENDBRANCH  15  16
ENDBRANCH  14  15
ENDBRANCH  13  14
ENDBRANCH  11  13
ENDBRANCH   1  10
BRANCH   1  27
HETATM   27  C17 UNL     1      29.648  40.462  -1.702  1.00  0.00     0.151 C 
BRANCH  27  28
HETATM   28  O2  UNL     1      30.390  40.481  -0.605  1.00  0.00    -0.347 OA
ATOM     29  H2  UNL     1      31.323  40.479  -0.786  1.00  0.00     0.219 HD
ENDBRANCH  27  28
BRANCH  27  30
HETATM   30  N6  UNL     1      29.376  41.734  -2.220  1.00  0.00    -0.351 N 
HETATM   31  C18 UNL     1      28.547  42.835  -1.847  1.00  0.00     0.102 C 
HETATM   32  C19 UNL     1      28.264  42.821  -3.425  1.00  0.00     0.052 C 
HETATM   33  C27 UNL     1      29.208  44.147  -1.808  1.00  0.00     0.116 C 
HETATM   34  C20 UNL     1      29.781  42.532  -3.338  1.00  0.00     0.105 C 
HETATM   35  C21 UNL     1      30.300  43.864  -2.794  1.00  0.00     0.117 C 
BRANCH  35  36
HETATM   36  S1  UNL     1      31.919  43.930  -2.292  1.00  0.00     0.022 S 
HETATM   37  O3  UNL     1      32.767  42.581  -2.202  1.00  0.00    -0.258 OA
BRANCH  36  38
HETATM   38  C22 UNL     1      32.749  45.351  -2.996  1.00  0.00     0.109 C 
BRANCH  38  39
HETATM   39  C23 UNL     1      34.223  45.218  -2.782  1.00  0.00     0.022 C 
BRANCH  39  40
HETATM   40  C24 UNL     1      34.996  46.436  -3.047  1.00  0.00     0.104 C 
BRANCH  40  41
HETATM   41  C25 UNL     1      36.449  46.327  -2.849  1.00  0.00     0.223 C 
HETATM   42  O4  UNL     1      37.128  45.533  -3.597  1.00  0.00    -0.273 OA
HETATM   43  N7  UNL     1      37.131  47.028  -1.902  1.00  0.00    -0.304 N 
HETATM   44  C26 UNL     1      36.907  47.549  -0.819  1.00  0.00     0.203 C 
ATOM     45  H7  UNL     1      38.106  47.155  -2.172  1.00  0.00     0.171 HD
HETATM   46  N8  UNL     1      35.682  47.565  -0.130  1.00  0.00    -0.066 NA
HETATM   47  N9  UNL     1      38.035  48.229  -0.189  1.00  0.00    -0.066 NA
ENDBRANCH  40  41
ENDBRANCH  39  40
ENDBRANCH  38  39
ENDBRANCH  36  38
ENDBRANCH  35  36
BRANCH  33  48
HETATM   48  C28 UNL     1      29.468  44.797  -0.574  1.00  0.00     0.238 C 
HETATM   49  N10 UNL     1      29.577  46.196  -0.471  1.00  0.00    -0.062 NA
HETATM   50  O5  UNL     1      29.604  44.127   0.486  1.00  0.00    -0.276 OA
ENDBRANCH  33  48
ENDBRANCH  27  30
ENDBRANCH   1  27
TORSDOF 21
ENDMDL
MODEL 5
REMARK VINA RESULT: -6.886486539      3.340      5.285
REMARK  21 active torsions:
REMARK  status: ('A' for Active; 'I' for Inactive)
REMARK    1  A    between atoms: N1_1  and  C1_5 
REMARK    2  A    between atoms: C1_5  and  C2_6 
REMARK    3  A    between atoms: C2_6  and  C3_7 
REMARK    4  A    between atoms: C3_7  and  C4_8 
REMARK    5  A    between atoms: C4_8  and  C5_9 
REMARK    6  A    between atoms: C5_9  and  N2_10 
REMARK    7  A    between atoms: C5_9  and  C17_27 
REMARK       I    between atoms: N2_10  and  C6_11 
REMARK    8  A    between atoms: C6_11  and  C7_13 
REMARK    9  A    between atoms: C7_13  and  C8_14 
REMARK   10  A    between atoms: C8_14  and  C9_15 
REMARK   11  A    between atoms: C9_15  and  C10_16 
REMARK   12  A    between atoms: C10_16  and  C11_17 
REMARK   13  A    between atoms: C11_17  and  N3_18 
REMARK       I    between atoms: C12_20  and  N5_22 
REMARK   14  A    between atoms: C17_27  and  O2_28 
REMARK   15  A    between atoms: C17_27  and  N6_30 
REMARK   16  A    between atoms: C21_34  and  S1_35 
REMARK   17  A    between atoms: S1_35  and  C22_37 
REMARK   18  A    between atoms: C22_37  and  C23_38 
REMARK   19  A    between atoms: C23_38  and  C24_39 
REMARK   20  A    between atoms: C24_39  and  C25_40 
REMARK       I    between atoms: C25_40  and  N7_42 
REMARK   21  A    between atoms: C27_47  and  C28_48 
ROOT
HETATM    1  C5  UNL     1      29.288  39.027  -2.051  1.00  0.00     0.240 C 
ENDROOT
BRANCH   1   2
HETATM    2  C4  UNL     1      29.478  37.732  -1.405  1.00  0.00     0.048 C 
BRANCH   2   3
HETATM    3  C3  UNL     1      29.281  36.435  -2.080  1.00  0.00     0.005 C 
BRANCH   3   4
HETATM    4  C2  UNL     1      30.604  36.140  -2.760  1.00  0.00     0.027 C 
BRANCH   4   5
HETATM    5  C1  UNL     1      30.494  35.997  -4.273  1.00  0.00     0.229 C 
BRANCH   5   6
HETATM    6  N1  UNL     1      30.328  37.314  -4.929  1.00  0.00    -0.079 N 
ATOM      7  H13 UNL     1      31.230  37.737  -5.152  1.00  0.00     0.274 HD
ATOM      8  H12 UNL     1      29.961  37.217  -5.875  1.00  0.00     0.274 HD
ATOM      9  H11 UNL     1      29.751  37.939  -4.367  1.00  0.00     0.274 HD
ENDBRANCH   5   6
ENDBRANCH   4   5
ENDBRANCH   3   4
ENDBRANCH   2   3
ENDBRANCH   1   2
BRANCH   1  10
HETATM   10  N2  UNL     1      27.873  39.044  -2.450  1.00  0.00    -0.401 NA
HETATM   11  C6  UNL     1      26.609  39.061  -2.809  1.00  0.00     0.287 C 
HETATM   12  O1  UNL     1      26.001  39.694  -3.661  1.00  0.00    -0.258 OA
BRANCH  11  13
HETATM   13  C7  UNL     1      25.690  38.103  -1.994  1.00  0.00     0.119 C 
BRANCH  13  14
HETATM   14  C8  UNL     1      25.082  37.032  -2.800  1.00  0.00     0.010 C 
BRANCH  14  15
HETATM   15  C9  UNL     1      24.261  35.995  -2.076  1.00  0.00     0.002 C 
BRANCH  15  16
HETATM   16  C10 UNL     1      23.047  35.738  -2.975  1.00  0.00     0.020 C 
BRANCH  16  17
HETATM   17  C11 UNL     1      23.489  35.624  -4.407  1.00  0.00     0.122 C 
BRANCH  17  18
HETATM   18  N3  UNL     1      23.236  34.330  -4.909  1.00  0.00    -0.365 N 
HETATM   19  C12 UNL     1      22.399  33.897  -5.716  1.00  0.00     0.186 C 
HETATM   20  N4  UNL     1      21.395  34.654  -6.405  1.00  0.00    -0.064 NA
HETATM   21  N5  UNL     1      22.458  32.495  -5.984  1.00  0.00    -0.356 N 
HETATM   22  C13 UNL     1      22.722  31.390  -5.058  1.00  0.00     0.125 C 
HETATM   23  C16 UNL     1      22.242  31.839  -7.251  1.00  0.00     0.125 C 
HETATM   24  C14 UNL     1      21.472  30.525  -5.356  1.00  0.00     0.021 C 
HETATM   25  C15 UNL     1      21.393  30.618  -6.877  1.00  0.00     0.021 C 
ATOM     26  H3  UNL     1      23.860  33.614  -4.537  1.00  0.00     0.162 HD
ENDBRANCH  17  18
ENDBRANCH  16  17
ENDBRANCH  15  16
ENDBRANCH  14  15
ENDBRANCH  13  14
ENDBRANCH  11  13
ENDBRANCH   1  10
BRANCH   1  27
HETATM   27  C17 UNL     1      29.666  40.343  -1.614  1.00  0.00     0.151 C 
BRANCH  27  28
HETATM   28  O2  UNL     1      30.288  40.345  -0.445  1.00  0.00    -0.347 OA
ATOM     29  H2  UNL     1      30.842  39.583  -0.317  1.00  0.00     0.219 HD
ENDBRANCH  27  28
BRANCH  27  30
HETATM   30  N6  UNL     1      29.526  41.617  -2.179  1.00  0.00    -0.351 N 
HETATM   31  C18 UNL     1      28.774  42.792  -1.878  1.00  0.00     0.102 C 
HETATM   32  C19 UNL     1      28.569  42.753  -3.468  1.00  0.00     0.052 C 
HETATM   33  C27 UNL     1      29.538  44.047  -1.840  1.00  0.00     0.116 C 
HETATM   34  C20 UNL     1      30.051  42.345  -3.295  1.00  0.00     0.105 C 
HETATM   35  C21 UNL     1      30.650  43.646  -2.760  1.00  0.00     0.117 C 
BRANCH  35  36
HETATM   36  S1  UNL     1      32.243  43.596  -2.176  1.00  0.00     0.022 S 
HETATM   37  O3  UNL     1      32.949  42.183  -1.946  1.00  0.00    -0.258 OA
BRANCH  36  38
HETATM   38  C22 UNL     1      33.241  44.875  -2.931  1.00  0.00     0.109 C 
BRANCH  38  39
HETATM   39  C23 UNL     1      34.510  45.033  -2.157  1.00  0.00     0.022 C 
BRANCH  39  40
HETATM   40  C24 UNL     1      35.041  46.399  -2.117  1.00  0.00     0.104 C 
BRANCH  40  41
HETATM   41  C25 UNL     1      36.499  46.524  -2.275  1.00  0.00     0.223 C 
HETATM   42  O4  UNL     1      37.224  46.768  -1.243  1.00  0.00    -0.273 OA
HETATM   43  N7  UNL     1      37.136  46.397  -3.471  1.00  0.00    -0.304 N 
HETATM   44  C26 UNL     1      36.880  46.539  -4.657  1.00  0.00     0.203 C 
ATOM     45  H7  UNL     1      38.103  46.098  -3.340  1.00  0.00     0.171 HD
HETATM   46  N8  UNL     1      35.655  46.950  -5.211  1.00  0.00    -0.066 NA
HETATM   47  N9  UNL     1      37.965  46.239  -5.588  1.00  0.00    -0.066 NA
ENDBRANCH  40  41
ENDBRANCH  39  40
ENDBRANCH  38  39
ENDBRANCH  36  38
ENDBRANCH  35  36
BRANCH  33  48
HETATM   48  C28 UNL     1      29.790  44.711  -0.611  1.00  0.00     0.238 C 
HETATM   49  N10 UNL     1      30.131  46.074  -0.551  1.00  0.00    -0.062 NA
HETATM   50  O5  UNL     1      29.705  44.087   0.482  1.00  0.00    -0.276 OA
ENDBRANCH  33  48
ENDBRANCH  27  30
ENDBRANCH   1  27
TORSDOF 21
ENDMDL
