MODEL 1
REMARK VINA RESULT: -7.889515578      0.000      0.000
REMARK  19 active torsions:
REMARK  status: ('A' for Active; 'I' for Inactive)
REMARK    1  A    between atoms: C2_2  and  C3_3 
REMARK    2  A    between atoms: C3_3  and  C4_4 
REMARK    3  A    between atoms: C4_4  and  C5_5 
REMARK    4  A    between atoms: C5_5  and  C6_6 
REMARK    5  A    between atoms: C6_6  and  C7_7 
REMARK    6  A    between atoms: C7_7  and  C8_8 
REMARK    7  A    between atoms: C8_8  and  C9_9 
REMARK    8  A    between atoms: C9_9  and  N1_10 
REMARK    9  A    between atoms: C9_9  and  C30_47 
REMARK       I    between atoms: N1_10  and  C10_12 
REMARK   10  A    between atoms: C10_12  and  C11_14 
REMARK   11  A    between atoms: N2_18  and  C15_19 
REMARK   12  A    between atoms: C15_19  and  O2_20 
REMARK   13  A    between atoms: C16_22  and  N3_23 
REMARK   14  A    between atoms: C18_26  and  C19_27 
REMARK   15  A    between atoms: C19_27  and  C20_28 
REMARK   16  A    between atoms: C20_28  and  C21_29 
REMARK   17  A    between atoms: C21_29  and  N4_30 
REMARK       I    between atoms: N7_35  and  C23_36 
REMARK   18  A    between atoms: N9_38  and  C24_40 
REMARK   19  A    between atoms: C24_40  and  C25_41 
ROOT
HETATM    1  C15 UNL     1      25.409  41.516  -1.982  1.00  0.00     0.155 C 
HETATM    2  C16 UNL     1      26.383  41.820  -0.962  1.00  0.00     0.160 C 
ENDROOT
BRANCH   2   3
HETATM    3  N3  UNL     1      27.778  41.635  -1.201  1.00  0.00    -0.238 N 
HETATM    4  C17 UNL     1      28.595  40.557  -0.762  1.00  0.00     0.255 C 
HETATM    5  O3  UNL     1      28.343  39.818   0.208  1.00  0.00    -0.270 OA
HETATM    6  C18 UNL     1      29.764  40.516  -1.685  1.00  0.00     0.190 C 
HETATM    7  N7  UNL     1      29.932  41.927  -1.943  1.00  0.00    -0.259 N 
HETATM    8  C23 UNL     1      31.176  42.642  -2.150  1.00  0.00     0.195 C 
HETATM    9  C29 UNL     1      28.644  42.502  -1.955  1.00  0.00     0.338 C 
HETATM   10  N8  UNL     1      32.370  41.905  -2.092  1.00  0.00    -0.063 NA
HETATM   11  N9  UNL     1      31.171  43.888  -2.374  1.00  0.00    -0.361 N 
ATOM     12  H9  UNL     1      30.272  44.369  -2.403  1.00  0.00     0.162 HD
HETATM   13  O4  UNL     1      28.322  43.571  -2.523  1.00  0.00    -0.246 OA
BRANCH   6  14
HETATM   14  C19 UNL     1      29.420  39.829  -2.979  1.00  0.00     0.037 C 
BRANCH  14  15
HETATM   15  C20 UNL     1      30.204  38.540  -3.143  1.00  0.00     0.022 C 
BRANCH  15  16
HETATM   16  C21 UNL     1      29.324  37.385  -3.517  1.00  0.00     0.122 C 
BRANCH  16  17
HETATM   17  N4  UNL     1      29.840  36.123  -3.051  1.00  0.00    -0.367 N 
HETATM   18  C22 UNL     1      30.549  35.325  -3.776  1.00  0.00     0.196 C 
HETATM   19  N5  UNL     1      30.893  35.620  -5.121  1.00  0.00    -0.067 NA
HETATM   20  N6  UNL     1      30.965  34.121  -3.169  1.00  0.00    -0.067 NA
ATOM     21  H4  UNL     1      29.633  35.845  -2.091  1.00  0.00     0.161 HD
ENDBRANCH  16  17
ENDBRANCH  15  16
ENDBRANCH  14  15
ENDBRANCH   6  14
BRANCH  11  22
HETATM   22  C24 UNL     1      32.347  44.655  -2.587  1.00  0.00     0.149 C 
BRANCH  22  23
HETATM   23  C25 UNL     1      32.609  45.639  -1.508  1.00  0.00    -0.005 C 
HETATM   24  C26 UNL     1      33.687  45.535  -0.779  1.00  0.00    -0.090 C 
HETATM   25  C27 UNL     1      33.972  46.520   0.317  1.00  0.00     0.042 C 
HETATM   26  C28 UNL     1      34.653  44.419  -1.016  1.00  0.00     0.042 C 
ENDBRANCH  22  23
ENDBRANCH  11  22
ENDBRANCH   2   3
BRANCH   1  27
HETATM   27  N2  UNL     1      25.464  41.062  -3.279  1.00  0.00    -0.347 N 
HETATM   28  C11 UNL     1      25.353  39.672  -3.799  1.00  0.00     0.178 C 
HETATM   29  C12 UNL     1      24.153  39.879  -4.697  1.00  0.00     0.037 C 
HETATM   30  C13 UNL     1      24.414  41.254  -5.314  1.00  0.00     0.022 C 
HETATM   31  C14 UNL     1      25.670  41.733  -4.573  1.00  0.00     0.126 C 
BRANCH  28  32
HETATM   32  C10 UNL     1      25.216  38.635  -2.815  1.00  0.00     0.241 C 
HETATM   33  N1  UNL     1      23.971  38.100  -2.514  1.00  0.00    -0.346 N 
ATOM     34  H1  UNL     1      23.172  38.502  -3.003  1.00  0.00     0.163 HD
HETATM   35  O1  UNL     1      26.267  38.201  -2.212  1.00  0.00    -0.271 OA
BRANCH  33  36
HETATM   36  C9  UNL     1      23.679  37.011  -1.559  1.00  0.00     0.173 C 
BRANCH  36  37
HETATM   37  C8  UNL     1      24.096  35.757  -2.154  1.00  0.00     0.034 C 
BRANCH  37  38
HETATM   38  C7  UNL     1      23.161  34.873  -2.861  1.00  0.00     0.002 C 
BRANCH  38  39
HETATM   39  C6  UNL     1      23.302  34.880  -4.377  1.00  0.00     0.000 C 
BRANCH  39  40
HETATM   40  C5  UNL     1      22.611  33.664  -4.964  1.00  0.00     0.000 C 
BRANCH  40  41
HETATM   41  C4  UNL     1      22.562  32.491  -4.014  1.00  0.00     0.000 C 
BRANCH  41  42
HETATM   42  C3  UNL     1      22.290  31.208  -4.803  1.00  0.00    -0.000 C 
BRANCH  42  43
HETATM   43  C2  UNL     1      22.974  31.314  -6.139  1.00  0.00    -0.005 C 
HETATM   44  C1  UNL     1      23.928  30.175  -6.301  1.00  0.00     0.005 C 
ENDBRANCH  42  43
ENDBRANCH  41  42
ENDBRANCH  40  41
ENDBRANCH  39  40
ENDBRANCH  38  39
ENDBRANCH  37  38
ENDBRANCH  36  37
BRANCH  36  45
HETATM   45  C30 UNL     1      22.198  37.093  -1.243  1.00  0.00     0.254 C 
HETATM   46  N10 UNL     1      21.236  37.614  -2.120  1.00  0.00    -0.060 NA
HETATM   47  O5  UNL     1      21.863  36.656  -0.112  1.00  0.00    -0.275 OA
ENDBRANCH  36  45
ENDBRANCH  33  36
ENDBRANCH  28  32
ENDBRANCH   1  27
BRANCH   1  48
HETATM   48  O2  UNL     1      24.176  41.738  -1.543  1.00  0.00    -0.345 OA
ATOM     49  H2  UNL     1      23.849  42.606  -1.744  1.00  0.00     0.219 HD
ENDBRANCH   1  48
TORSDOF 19
ENDMDL
MODEL 2
REMARK VINA RESULT: -7.609733224      4.890     10.293
REMARK  19 active torsions:
REMARK  status: ('A' for Active; 'I' for Inactive)
REMARK    1  A    between atoms: C2_2  and  C3_3 
REMARK    2  A    between atoms: C3_3  and  C4_4 
REMARK    3  A    between atoms: C4_4  and  C5_5 
REMARK    4  A    between atoms: C5_5  and  C6_6 
REMARK    5  A    between atoms: C6_6  and  C7_7 
REMARK    6  A    between atoms: C7_7  and  C8_8 
REMARK    7  A    between atoms: C8_8  and  C9_9 
REMARK    8  A    between atoms: C9_9  and  N1_10 
REMARK    9  A    between atoms: C9_9  and  C30_47 
REMARK       I    between atoms: N1_10  and  C10_12 
REMARK   10  A    between atoms: C10_12  and  C11_14 
REMARK   11  A    between atoms: N2_18  and  C15_19 
REMARK   12  A    between atoms: C15_19  and  O2_20 
REMARK   13  A    between atoms: C16_22  and  N3_23 
REMARK   14  A    between atoms: C18_26  and  C19_27 
REMARK   15  A    between atoms: C19_27  and  C20_28 
REMARK   16  A    between atoms: C20_28  and  C21_29 
REMARK   17  A    between atoms: C21_29  and  N4_30 
REMARK       I    between atoms: N7_35  and  C23_36 
REMARK   18  A    between atoms: N9_38  and  C24_40 
REMARK   19  A    between atoms: C24_40  and  C25_41 
ROOT
HETATM    1  C15 UNL     1      33.213  43.721  -1.016  1.00  0.00     0.155 C 
HETATM    2  C16 UNL     1      32.507  42.516  -0.654  1.00  0.00     0.160 C 
ENDROOT
BRANCH   2   3
HETATM    3  N3  UNL     1      31.171  42.287  -1.099  1.00  0.00    -0.238 N 
HETATM    4  C17 UNL     1      30.727  41.321  -2.043  1.00  0.00     0.255 C 
HETATM    5  O3  UNL     1      31.442  40.794  -2.916  1.00  0.00    -0.270 OA
HETATM    6  C18 UNL     1      29.282  41.094  -1.762  1.00  0.00     0.190 C 
HETATM    7  N7  UNL     1      28.892  42.424  -1.354  1.00  0.00    -0.259 N 
HETATM    8  C23 UNL     1      27.623  43.083  -1.596  1.00  0.00     0.195 C 
HETATM    9  C29 UNL     1      29.989  42.984  -0.666  1.00  0.00     0.338 C 
HETATM   10  N8  UNL     1      26.646  42.374  -2.312  1.00  0.00    -0.063 NA
HETATM   11  N9  UNL     1      27.419  44.258  -1.171  1.00  0.00    -0.361 N 
ATOM     12  H9  UNL     1      28.168  44.722  -0.658  1.00  0.00     0.162 HD
HETATM   13  O4  UNL     1      29.933  43.916   0.170  1.00  0.00    -0.246 OA
BRANCH   6  14
HETATM   14  C19 UNL     1      29.087  40.159  -0.599  1.00  0.00     0.037 C 
BRANCH  14  15
HETATM   15  C20 UNL     1      28.712  38.766  -1.069  1.00  0.00     0.022 C 
BRANCH  15  16
HETATM   16  C21 UNL     1      29.916  37.905  -1.309  1.00  0.00     0.122 C 
BRANCH  16  17
HETATM   17  N4  UNL     1      30.195  37.724  -2.711  1.00  0.00    -0.367 N 
HETATM   18  C22 UNL     1      30.247  36.571  -3.290  1.00  0.00     0.196 C 
HETATM   19  N5  UNL     1      30.028  35.356  -2.589  1.00  0.00    -0.067 NA
HETATM   20  N6  UNL     1      30.546  36.569  -4.668  1.00  0.00    -0.067 NA
ATOM     21  H4  UNL     1      30.363  38.554  -3.279  1.00  0.00     0.161 HD
ENDBRANCH  16  17
ENDBRANCH  15  16
ENDBRANCH  14  15
ENDBRANCH   6  14
BRANCH  11  22
HETATM   22  C24 UNL     1      26.205  44.966  -1.368  1.00  0.00     0.149 C 
BRANCH  22  23
HETATM   23  C25 UNL     1      25.282  44.885  -0.210  1.00  0.00    -0.005 C 
HETATM   24  C26 UNL     1      24.045  44.507  -0.387  1.00  0.00    -0.090 C 
HETATM   25  C27 UNL     1      23.095  44.418   0.772  1.00  0.00     0.042 C 
HETATM   26  C28 UNL     1      23.548  44.170  -1.756  1.00  0.00     0.042 C 
ENDBRANCH  22  23
ENDBRANCH  11  22
ENDBRANCH   2   3
BRANCH   1  27
HETATM   27  N2  UNL     1      32.925  44.829  -1.778  1.00  0.00    -0.347 N 
HETATM   28  C11 UNL     1      32.542  46.200  -1.343  1.00  0.00     0.178 C 
HETATM   29  C12 UNL     1      33.680  46.953  -1.998  1.00  0.00     0.037 C 
HETATM   30  C13 UNL     1      33.838  46.242  -3.343  1.00  0.00     0.022 C 
HETATM   31  C14 UNL     1      32.860  45.064  -3.229  1.00  0.00     0.126 C 
BRANCH  28  32
HETATM   32  C10 UNL     1      32.402  46.402   0.072  1.00  0.00     0.241 C 
HETATM   33  N1  UNL     1      31.180  46.765   0.621  1.00  0.00    -0.346 N 
ATOM     34  H1  UNL     1      30.410  46.905  -0.033  1.00  0.00     0.163 HD
HETATM   35  O1  UNL     1      33.428  46.239   0.832  1.00  0.00    -0.271 OA
BRANCH  33  36
HETATM   36  C9  UNL     1      30.875  46.969   2.052  1.00  0.00     0.173 C 
BRANCH  36  37
HETATM   37  C8  UNL     1      29.469  46.688   2.265  1.00  0.00     0.034 C 
BRANCH  37  38
HETATM   38  C7  UNL     1      28.467  46.846   1.203  1.00  0.00     0.002 C 
BRANCH  38  39
HETATM   39  C6  UNL     1      27.191  47.556   1.633  1.00  0.00     0.000 C 
BRANCH  39  40
HETATM   40  C5  UNL     1      27.290  47.950   3.095  1.00  0.00     0.000 C 
BRANCH  40  41
HETATM   41  C4  UNL     1      26.073  47.562   3.901  1.00  0.00     0.000 C 
BRANCH  41  42
HETATM   42  C3  UNL     1      25.221  46.579   3.095  1.00  0.00    -0.000 C 
BRANCH  42  43
HETATM   43  C2  UNL     1      24.381  45.777   4.052  1.00  0.00    -0.005 C 
HETATM   44  C1  UNL     1      23.617  46.705   4.941  1.00  0.00     0.005 C 
ENDBRANCH  42  43
ENDBRANCH  41  42
ENDBRANCH  40  41
ENDBRANCH  39  40
ENDBRANCH  38  39
ENDBRANCH  37  38
ENDBRANCH  36  37
BRANCH  36  45
HETATM   45  C30 UNL     1      31.289  48.388   2.388  1.00  0.00     0.254 C 
HETATM   46  N10 UNL     1      30.590  49.530   1.970  1.00  0.00    -0.060 NA
HETATM   47  O5  UNL     1      32.330  48.496   3.086  1.00  0.00    -0.275 OA
ENDBRANCH  36  45
ENDBRANCH  33  36
ENDBRANCH  28  32
ENDBRANCH   1  27
BRANCH   1  48
HETATM   48  O2  UNL     1      34.427  43.740  -0.479  1.00  0.00    -0.345 OA
ATOM     49  H2  UNL     1      34.428  43.854   0.464  1.00  0.00     0.219 HD
ENDBRANCH   1  48
TORSDOF 19
ENDMDL
MODEL 3
REMARK VINA RESULT: -7.576637832      3.582      7.473
REMARK  19 active torsions:
REMARK  status: ('A' for Active; 'I' for Inactive)
REMARK    1  A    between atoms: C2_2  and  C3_3 
REMARK    2  A    between atoms: C3_3  and  C4_4 
REMARK    3  A    between atoms: C4_4  and  C5_5 
REMARK    4  A    between atoms: C5_5  and  C6_6 
REMARK    5  A    between atoms: C6_6  and  C7_7 
REMARK    6  A    between atoms: C7_7  and  C8_8 
REMARK    7  A    between atoms: C8_8  and  C9_9 
REMARK    8  A    between atoms: C9_9  and  N1_10 
REMARK    9  A    between atoms: C9_9  and  C30_47 
REMARK       I    between atoms: N1_10  and  C10_12 
REMARK   10  A    between atoms: C10_12  and  C11_14 
REMARK   11  A    between atoms: N2_18  and  C15_19 
REMARK   12  A    between atoms: C15_19  and  O2_20 
REMARK   13  A    between atoms: C16_22  and  N3_23 
REMARK   14  A    between atoms: C18_26  and  C19_27 
REMARK   15  A    between atoms: C19_27  and  C20_28 
REMARK   16  A    between atoms: C20_28  and  C21_29 
REMARK   17  A    between atoms: C21_29  and  N4_30 
REMARK       I    between atoms: N7_35  and  C23_36 
REMARK   18  A    between atoms: N9_38  and  C24_40 
REMARK   19  A    between atoms: C24_40  and  C25_41 
ROOT
HETATM    1  C15 UNL     1      29.718  43.365  -1.114  1.00  0.00     0.155 C 
HETATM    2  C16 UNL     1      30.505  43.997  -0.083  1.00  0.00     0.160 C 
ENDROOT
BRANCH   2   3
HETATM    3  N3  UNL     1      31.511  44.954  -0.411  1.00  0.00    -0.238 N 
HETATM    4  C17 UNL     1      31.610  46.296   0.048  1.00  0.00     0.255 C 
HETATM    5  O3  UNL     1      30.659  46.976   0.479  1.00  0.00    -0.270 OA
HETATM    6  C18 UNL     1      33.041  46.684  -0.097  1.00  0.00     0.190 C 
HETATM    7  N7  UNL     1      33.380  45.953  -1.296  1.00  0.00    -0.259 N 
HETATM    8  C23 UNL     1      34.293  46.361  -2.347  1.00  0.00     0.195 C 
HETATM    9  C29 UNL     1      32.648  44.748  -1.268  1.00  0.00     0.338 C 
HETATM   10  N8  UNL     1      34.928  47.606  -2.214  1.00  0.00    -0.063 NA
HETATM   11  N9  UNL     1      34.499  45.610  -3.346  1.00  0.00    -0.361 N 
ATOM     12  H9  UNL     1      34.007  44.717  -3.387  1.00  0.00     0.162 HD
HETATM   13  O4  UNL     1      32.945  43.695  -1.878  1.00  0.00    -0.246 OA
BRANCH   6  14
HETATM   14  C19 UNL     1      33.873  46.153   1.039  1.00  0.00     0.037 C 
BRANCH  14  15
HETATM   15  C20 UNL     1      33.989  47.172   2.158  1.00  0.00     0.022 C 
BRANCH  15  16
HETATM   16  C21 UNL     1      35.052  48.194   1.886  1.00  0.00     0.122 C 
BRANCH  16  17
HETATM   17  N4  UNL     1      36.024  47.740   0.924  1.00  0.00    -0.367 N 
HETATM   18  C22 UNL     1      37.140  48.344   0.690  1.00  0.00     0.196 C 
HETATM   19  N5  UNL     1      37.521  49.530   1.370  1.00  0.00    -0.067 NA
HETATM   20  N6  UNL     1      37.974  47.772  -0.294  1.00  0.00    -0.067 NA
ATOM     21  H4  UNL     1      35.817  46.891   0.397  1.00  0.00     0.161 HD
ENDBRANCH  16  17
ENDBRANCH  15  16
ENDBRANCH  14  15
ENDBRANCH   6  14
BRANCH  11  22
HETATM   22  C24 UNL     1      35.377  45.940  -4.411  1.00  0.00     0.149 C 
BRANCH  22  23
HETATM   23  C25 UNL     1      34.724  45.902  -5.742  1.00  0.00    -0.005 C 
HETATM   24  C26 UNL     1      35.316  46.442  -6.774  1.00  0.00    -0.090 C 
HETATM   25  C27 UNL     1      34.673  46.416  -8.129  1.00  0.00     0.042 C 
HETATM   26  C28 UNL     1      36.643  47.112  -6.616  1.00  0.00     0.042 C 
ENDBRANCH  22  23
ENDBRANCH  11  22
ENDBRANCH   2   3
BRANCH   1  27
HETATM   27  N2  UNL     1      29.649  43.460  -2.485  1.00  0.00    -0.347 N 
HETATM   28  C11 UNL     1      29.765  42.389  -3.512  1.00  0.00     0.178 C 
HETATM   29  C12 UNL     1      28.413  42.577  -4.165  1.00  0.00     0.037 C 
HETATM   30  C13 UNL     1      28.249  44.097  -4.192  1.00  0.00     0.022 C 
HETATM   31  C14 UNL     1      29.474  44.592  -3.409  1.00  0.00     0.126 C 
BRANCH  28  32
HETATM   32  C10 UNL     1      30.035  41.066  -3.023  1.00  0.00     0.241 C 
HETATM   33  N1  UNL     1      29.001  40.224  -2.638  1.00  0.00    -0.346 N 
ATOM     34  H1  UNL     1      28.057  40.607  -2.695  1.00  0.00     0.163 HD
HETATM   35  O1  UNL     1      31.256  40.664  -2.946  1.00  0.00    -0.271 OA
BRANCH  33  36
HETATM   36  C9  UNL     1      29.119  38.833  -2.154  1.00  0.00     0.173 C 
BRANCH  36  37
HETATM   37  C8  UNL     1      28.074  38.043  -2.773  1.00  0.00     0.034 C 
BRANCH  37  38
HETATM   38  C7  UNL     1      26.741  38.589  -3.060  1.00  0.00     0.002 C 
BRANCH  38  39
HETATM   39  C6  UNL     1      25.658  38.173  -2.075  1.00  0.00     0.000 C 
BRANCH  39  40
HETATM   40  C5  UNL     1      25.118  36.806  -2.452  1.00  0.00     0.000 C 
BRANCH  40  41
HETATM   41  C4  UNL     1      23.880  36.421  -1.678  1.00  0.00     0.000 C 
BRANCH  41  42
HETATM   42  C3  UNL     1      22.800  35.942  -2.650  1.00  0.00    -0.000 C 
BRANCH  42  43
HETATM   43  C2  UNL     1      23.453  35.109  -3.719  1.00  0.00    -0.005 C 
HETATM   44  C1  UNL     1      23.044  33.681  -3.557  1.00  0.00     0.005 C 
ENDBRANCH  42  43
ENDBRANCH  41  42
ENDBRANCH  40  41
ENDBRANCH  39  40
ENDBRANCH  38  39
ENDBRANCH  37  38
ENDBRANCH  36  37
BRANCH  36  45
HETATM   45  C30 UNL     1      29.050  38.891  -0.641  1.00  0.00     0.254 C 
HETATM   46  N10 UNL     1      29.839  38.104   0.212  1.00  0.00    -0.060 NA
HETATM   47  O5  UNL     1      28.218  39.708  -0.169  1.00  0.00    -0.275 OA
ENDBRANCH  36  45
ENDBRANCH  33  36
ENDBRANCH  28  32
ENDBRANCH   1  27
BRANCH   1  48
HETATM   48  O2  UNL     1      28.862  42.495  -0.593  1.00  0.00    -0.345 OA
ATOM     49  H2  UNL     1      29.018  41.597  -0.859  1.00  0.00     0.219 HD
ENDBRANCH   1  48
TORSDOF 19
ENDMDL
MODEL 4
REMARK VINA RESULT: -7.553364489      3.462      6.763
REMARK  19 active torsions:
REMARK  status: ('A' for Active; 'I' for Inactive)
REMARK    1  A    between atoms: C2_2  and  C3_3 
REMARK    2  A    between atoms: C3_3  and  C4_4 
REMARK    3  A    between atoms: C4_4  and  C5_5 
REMARK    4  A    between atoms: C5_5  and  C6_6 
REMARK    5  A    between atoms: C6_6  and  C7_7 
REMARK    6  A    between atoms: C7_7  and  C8_8 
REMARK    7  A    between atoms: C8_8  and  C9_9 
REMARK    8  A    between atoms: C9_9  and  N1_10 
REMARK    9  A    between atoms: C9_9  and  C30_47 
REMARK       I    between atoms: N1_10  and  C10_12 
REMARK   10  A    between atoms: C10_12  and  C11_14 
REMARK   11  A    between atoms: N2_18  and  C15_19 
REMARK   12  A    between atoms: C15_19  and  O2_20 
REMARK   13  A    between atoms: C16_22  and  N3_23 
REMARK   14  A    between atoms: C18_26  and  C19_27 
REMARK   15  A    between atoms: C19_27  and  C20_28 
REMARK   16  A    between atoms: C20_28  and  C21_29 
REMARK   17  A    between atoms: C21_29  and  N4_30 
REMARK       I    between atoms: N7_35  and  C23_36 
REMARK   18  A    between atoms: N9_38  and  C24_40 
REMARK   19  A    between atoms: C24_40  and  C25_41 
ROOT
HETATM    1  C15 UNL     1      29.685  43.440  -1.288  1.00  0.00     0.155 C 
HETATM    2  C16 UNL     1      30.782  43.790  -0.420  1.00  0.00     0.160 C 
ENDROOT
BRANCH   2   3
HETATM    3  N3  UNL     1      31.965  44.395  -0.940  1.00  0.00    -0.238 N 
HETATM    4  C17 UNL     1      32.739  43.968  -2.053  1.00  0.00     0.255 C 
HETATM    5  O3  UNL     1      32.753  42.809  -2.510  1.00  0.00    -0.270 OA
HETATM    6  C18 UNL     1      33.489  45.164  -2.526  1.00  0.00     0.190 C 
HETATM    7  N7  UNL     1      33.735  45.823  -1.264  1.00  0.00    -0.259 N 
HETATM    8  C23 UNL     1      34.907  46.589  -0.885  1.00  0.00     0.195 C 
HETATM    9  C29 UNL     1      32.612  45.582  -0.445  1.00  0.00     0.338 C 
HETATM   10  N8  UNL     1      35.938  46.716  -1.829  1.00  0.00    -0.063 NA
HETATM   11  N9  UNL     1      34.984  47.119   0.263  1.00  0.00    -0.361 N 
ATOM     12  H9  UNL     1      34.202  46.990   0.906  1.00  0.00     0.162 HD
HETATM   13  O4  UNL     1      32.251  46.281   0.530  1.00  0.00    -0.246 OA
BRANCH   6  14
HETATM   14  C19 UNL     1      32.623  46.058  -3.372  1.00  0.00     0.037 C 
BRANCH  14  15
HETATM   15  C20 UNL     1      33.443  46.782  -4.424  1.00  0.00     0.022 C 
BRANCH  15  16
HETATM   16  C21 UNL     1      34.521  45.914  -5.001  1.00  0.00     0.122 C 
BRANCH  16  17
HETATM   17  N4  UNL     1      35.375  46.626  -5.917  1.00  0.00    -0.367 N 
HETATM   18  C22 UNL     1      36.664  46.608  -5.858  1.00  0.00     0.196 C 
HETATM   19  N5  UNL     1      37.372  45.874  -4.871  1.00  0.00    -0.067 NA
HETATM   20  N6  UNL     1      37.351  47.372  -6.825  1.00  0.00    -0.067 NA
ATOM     21  H4  UNL     1      34.935  47.176  -6.654  1.00  0.00     0.161 HD
ENDBRANCH  16  17
ENDBRANCH  15  16
ENDBRANCH  14  15
ENDBRANCH   6  14
BRANCH  11  22
HETATM   22  C24 UNL     1      36.096  47.881   0.705  1.00  0.00     0.149 C 
BRANCH  22  23
HETATM   23  C25 UNL     1      35.716  49.036   1.554  1.00  0.00    -0.005 C 
HETATM   24  C26 UNL     1      36.613  49.926   1.885  1.00  0.00    -0.090 C 
HETATM   25  C27 UNL     1      36.249  51.102   2.743  1.00  0.00     0.042 C 
HETATM   26  C28 UNL     1      38.027  49.778   1.423  1.00  0.00     0.042 C 
ENDBRANCH  22  23
ENDBRANCH  11  22
ENDBRANCH   2   3
BRANCH   1  27
HETATM   27  N2  UNL     1      29.428  43.564  -2.634  1.00  0.00    -0.347 N 
HETATM   28  C11 UNL     1      29.353  42.508  -3.681  1.00  0.00     0.178 C 
HETATM   29  C12 UNL     1      27.932  42.764  -4.134  1.00  0.00     0.037 C 
HETATM   30  C13 UNL     1      27.831  44.289  -4.118  1.00  0.00     0.022 C 
HETATM   31  C14 UNL     1      29.174  44.719  -3.509  1.00  0.00     0.126 C 
BRANCH  28  32
HETATM   32  C10 UNL     1      29.632  41.166  -3.252  1.00  0.00     0.241 C 
HETATM   33  N1  UNL     1      28.661  40.407  -2.614  1.00  0.00    -0.346 N 
ATOM     34  H1  UNL     1      27.764  40.863  -2.445  1.00  0.00     0.163 HD
HETATM   35  O1  UNL     1      30.800  40.670  -3.470  1.00  0.00    -0.271 OA
BRANCH  33  36
HETATM   36  C9  UNL     1      28.787  39.009  -2.152  1.00  0.00     0.173 C 
BRANCH  36  37
HETATM   37  C8  UNL     1      27.657  38.256  -2.657  1.00  0.00     0.034 C 
BRANCH  37  38
HETATM   38  C7  UNL     1      26.392  38.899  -3.035  1.00  0.00     0.002 C 
BRANCH  38  39
HETATM   39  C6  UNL     1      25.241  37.935  -3.292  1.00  0.00     0.000 C 
BRANCH  39  40
HETATM   40  C5  UNL     1      25.134  36.946  -2.146  1.00  0.00     0.000 C 
BRANCH  40  41
HETATM   41  C4  UNL     1      24.048  35.917  -2.347  1.00  0.00     0.000 C 
BRANCH  41  42
HETATM   42  C3  UNL     1      23.411  36.110  -3.725  1.00  0.00    -0.000 C 
BRANCH  42  43
HETATM   43  C2  UNL     1      23.343  34.773  -4.413  1.00  0.00    -0.005 C 
HETATM   44  C1  UNL     1      22.960  33.723  -3.421  1.00  0.00     0.005 C 
ENDBRANCH  42  43
ENDBRANCH  41  42
ENDBRANCH  40  41
ENDBRANCH  39  40
ENDBRANCH  38  39
ENDBRANCH  37  38
ENDBRANCH  36  37
BRANCH  36  45
HETATM   45  C30 UNL     1      28.885  39.056  -0.640  1.00  0.00     0.254 C 
HETATM   46  N10 UNL     1      29.691  38.198   0.123  1.00  0.00    -0.060 NA
HETATM   47  O5  UNL     1      28.181  39.936  -0.081  1.00  0.00    -0.275 OA
ENDBRANCH  36  45
ENDBRANCH  33  36
ENDBRANCH  28  32
ENDBRANCH   1  27
BRANCH   1  48
HETATM   48  O2  UNL     1      28.700  42.871  -0.604  1.00  0.00    -0.345 OA
ATOM     49  H2  UNL     1      27.951  43.439  -0.467  1.00  0.00     0.219 HD
ENDBRANCH   1  48
TORSDOF 19
ENDMDL
MODEL 5
REMARK VINA RESULT: -7.538334147      4.136      8.114
REMARK  19 active torsions:
REMARK  status: ('A' for Active; 'I' for Inactive)
REMARK    1  A    between atoms: C2_2  and  C3_3 
REMARK    2  A    between atoms: C3_3  and  C4_4 
REMARK    3  A    between atoms: C4_4  and  C5_5 
REMARK    4  A    between atoms: C5_5  and  C6_6 
REMARK    5  A    between atoms: C6_6  and  C7_7 
REMARK    6  A    between atoms: C7_7  and  C8_8 
REMARK    7  A    between atoms: C8_8  and  C9_9 
REMARK    8  A    between atoms: C9_9  and  N1_10 
REMARK    9  A    between atoms: C9_9  and  C30_47 
REMARK       I    between atoms: N1_10  and  C10_12 
REMARK   10  A    between atoms: C10_12  and  C11_14 
REMARK   11  A    between atoms: N2_18  and  C15_19 
REMARK   12  A    between atoms: C15_19  and  O2_20 
REMARK   13  A    between atoms: C16_22  and  N3_23 
REMARK   14  A    between atoms: C18_26  and  C19_27 
REMARK   15  A    between atoms: C19_27  and  C20_28 
REMARK   16  A    between atoms: C20_28  and  C21_29 
REMARK   17  A    between atoms: C21_29  and  N4_30 
REMARK       I    between atoms: N7_35  and  C23_36 
REMARK   18  A    between atoms: N9_38  and  C24_40 
REMARK   19  A    between atoms: C24_40  and  C25_41 
ROOT
HETATM    1  C15 UNL     1      30.210  43.438  -1.038  1.00  0.00     0.155 C 
HETATM    2  C16 UNL     1      30.969  44.255  -0.122  1.00  0.00     0.160 C 
ENDROOT
BRANCH   2   3
HETATM    3  N3  UNL     1      31.805  45.308  -0.599  1.00  0.00    -0.238 N 
HETATM    4  C17 UNL     1      31.496  46.693  -0.672  1.00  0.00     0.255 C 
HETATM    5  O3  UNL     1      30.344  47.167  -0.711  1.00  0.00    -0.270 OA
HETATM    6  C18 UNL     1      32.799  47.414  -0.691  1.00  0.00     0.190 C 
HETATM    7  N7  UNL     1      33.597  46.472  -1.441  1.00  0.00    -0.259 N 
HETATM    8  C23 UNL     1      34.659  46.772  -2.383  1.00  0.00     0.195 C 
HETATM    9  C29 UNL     1      33.151  45.180  -1.092  1.00  0.00     0.338 C 
HETATM   10  N8  UNL     1      34.962  48.123  -2.617  1.00  0.00    -0.063 NA
HETATM   11  N9  UNL     1      35.281  45.837  -2.967  1.00  0.00    -0.361 N 
ATOM     12  H9  UNL     1      35.014  44.875  -2.757  1.00  0.00     0.162 HD
HETATM   13  O4  UNL     1      33.814  44.122  -1.194  1.00  0.00    -0.246 OA
BRANCH   6  14
HETATM   14  C19 UNL     1      33.379  47.538   0.693  1.00  0.00     0.037 C 
BRANCH  14  15
HETATM   15  C20 UNL     1      32.976  48.849   1.342  1.00  0.00     0.022 C 
BRANCH  15  16
HETATM   16  C21 UNL     1      32.399  48.650   2.712  1.00  0.00     0.122 C 
BRANCH  16  17
HETATM   17  N4  UNL     1      31.505  47.523   2.778  1.00  0.00    -0.367 N 
HETATM   18  C22 UNL     1      30.220  47.619   2.691  1.00  0.00     0.196 C 
HETATM   19  N5  UNL     1      29.559  48.863   2.520  1.00  0.00    -0.067 NA
HETATM   20  N6  UNL     1      29.489  46.417   2.787  1.00  0.00    -0.067 NA
ATOM     21  H4  UNL     1      31.910  46.595   2.899  1.00  0.00     0.161 HD
ENDBRANCH  16  17
ENDBRANCH  15  16
ENDBRANCH  14  15
ENDBRANCH   6  14
BRANCH  11  22
HETATM   22  C24 UNL     1      36.330  46.051  -3.900  1.00  0.00     0.149 C 
BRANCH  22  23
HETATM   23  C25 UNL     1      35.867  46.078  -5.309  1.00  0.00    -0.005 C 
HETATM   24  C26 UNL     1      36.234  47.052  -6.097  1.00  0.00    -0.090 C 
HETATM   25  C27 UNL     1      35.776  47.098  -7.526  1.00  0.00     0.042 C 
HETATM   26  C28 UNL     1      37.108  48.150  -5.582  1.00  0.00     0.042 C 
ENDBRANCH  22  23
ENDBRANCH  11  22
ENDBRANCH   2   3
BRANCH   1  27
HETATM   27  N2  UNL     1      30.035  43.406  -2.402  1.00  0.00    -0.347 N 
HETATM   28  C11 UNL     1      30.114  42.250  -3.336  1.00  0.00     0.178 C 
HETATM   29  C12 UNL     1      28.711  42.337  -3.896  1.00  0.00     0.037 C 
HETATM   30  C13 UNL     1      28.489  43.842  -4.044  1.00  0.00     0.022 C 
HETATM   31  C14 UNL     1      29.749  44.443  -3.406  1.00  0.00     0.126 C 
BRANCH  28  32
HETATM   32  C10 UNL     1      30.469  40.986  -2.754  1.00  0.00     0.241 C 
HETATM   33  N1  UNL     1      29.493  40.061  -2.412  1.00  0.00    -0.346 N 
ATOM     34  H1  UNL     1      28.525  40.341  -2.568  1.00  0.00     0.163 HD
HETATM   35  O1  UNL     1      31.712  40.716  -2.556  1.00  0.00    -0.271 OA
BRANCH  33  36
HETATM   36  C9  UNL     1      29.705  38.713  -1.845  1.00  0.00     0.173 C 
BRANCH  36  37
HETATM   37  C8  UNL     1      28.877  37.774  -2.574  1.00  0.00     0.034 C 
BRANCH  37  38
HETATM   38  C7  UNL     1      27.596  38.161  -3.179  1.00  0.00     0.002 C 
BRANCH  38  39
HETATM   39  C6  UNL     1      26.367  37.780  -2.365  1.00  0.00     0.000 C 
BRANCH  39  40
HETATM   40  C5  UNL     1      25.502  39.005  -2.135  1.00  0.00     0.000 C 
BRANCH  40  41
HETATM   41  C4  UNL     1      25.804  40.136  -3.088  1.00  0.00     0.000 C 
BRANCH  41  42
HETATM   42  C3  UNL     1      25.271  41.447  -2.508  1.00  0.00    -0.000 C 
BRANCH  42  43
HETATM   43  C2  UNL     1      26.098  41.809  -1.305  1.00  0.00    -0.005 C 
HETATM   44  C1  UNL     1      26.140  43.296  -1.159  1.00  0.00     0.005 C 
ENDBRANCH  42  43
ENDBRANCH  41  42
ENDBRANCH  40  41
ENDBRANCH  39  40
ENDBRANCH  38  39
ENDBRANCH  37  38
ENDBRANCH  36  37
BRANCH  36  45
HETATM   45  C30 UNL     1      29.392  38.809  -0.364  1.00  0.00     0.254 C 
HETATM   46  N10 UNL     1      28.411  39.652   0.179  1.00  0.00    -0.060 NA
HETATM   47  O5  UNL     1      30.081  38.067   0.382  1.00  0.00    -0.275 OA
ENDBRANCH  36  45
ENDBRANCH  33  36
ENDBRANCH  28  32
ENDBRANCH   1  27
BRANCH   1  48
HETATM   48  O2  UNL     1      29.521  42.508  -0.387  1.00  0.00    -0.345 OA
ATOM     49  H2  UNL     1      29.589  41.642  -0.770  1.00  0.00     0.219 HD
ENDBRANCH   1  48
TORSDOF 19
ENDMDL
