MODEL 1
REMARK VINA RESULT: -4.368034656      0.000      0.000
REMARK  2 active torsions:
REMARK  status: ('A' for Active; 'I' for Inactive)
REMARK    1  A    between atoms: C2_2  and  C3_3 
REMARK    2  A    between atoms: N1_5  and  C5_6 
ROOT
HETATM    1  C3  UNL     1      27.375  56.202  45.112  1.00  0.00     0.227 C 
HETATM    2  C4  UNL     1      27.049  55.766  43.721  1.00  0.00     0.164 C 
HETATM    3  N1  UNL     1      28.308  55.258  43.223  1.00  0.00    -0.333 N 
HETATM    4  C6  UNL     1      29.277  55.311  44.323  1.00  0.00     0.359 C 
HETATM    5  N2  UNL     1      28.511  55.395  45.528  1.00  0.00    -0.050 N 
ATOM      6  H21 UNL     1      28.270  54.498  45.951  1.00  0.00     0.280 HD
ATOM      7  H22 UNL     1      29.018  55.751  46.338  1.00  0.00     0.280 HD
ENDROOT
BRANCH   1   8
HETATM    8  C2  UNL     1      26.233  56.076  46.038  1.00  0.00    -0.003 C 
HETATM    9  C1  UNL     1      26.112  56.945  47.021  1.00  0.00     0.009 C 
ENDBRANCH   1   8
BRANCH   3  10
HETATM   10  C5  UNL     1      28.586  54.787  41.912  1.00  0.00     0.352 C 
HETATM   11  O1  UNL     1      28.208  55.481  40.926  1.00  0.00    -0.283 OA
ENDBRANCH   3  10
TORSDOF 2
ENDMDL
MODEL 2
REMARK VINA RESULT: -3.897558666      1.565      1.979
REMARK  2 active torsions:
REMARK  status: ('A' for Active; 'I' for Inactive)
REMARK    1  A    between atoms: C2_2  and  C3_3 
REMARK    2  A    between atoms: N1_5  and  C5_6 
ROOT
HETATM    1  C3  UNL     1      28.983  55.831  45.098  1.00  0.00     0.227 C 
HETATM    2  C4  UNL     1      29.391  56.207  43.710  1.00  0.00     0.164 C 
HETATM    3  N1  UNL     1      28.287  55.747  42.897  1.00  0.00    -0.333 N 
HETATM    4  C6  UNL     1      27.254  55.228  43.801  1.00  0.00     0.359 C 
HETATM    5  N2  UNL     1      27.530  55.787  45.089  1.00  0.00    -0.050 N 
ATOM      6  H21 UNL     1      27.071  56.678  45.280  1.00  0.00     0.280 HD
ATOM      7  H22 UNL     1      27.109  55.290  45.873  1.00  0.00     0.280 HD
ENDROOT
BRANCH   1   8
HETATM    8  C2  UNL     1      29.506  56.755  46.122  1.00  0.00    -0.003 C 
HETATM    9  C1  UNL     1      28.730  57.728  46.556  1.00  0.00     0.009 C 
ENDBRANCH   1   8
BRANCH   3  10
HETATM   10  C5  UNL     1      28.190  55.779  41.481  1.00  0.00     0.352 C 
HETATM   11  O1  UNL     1      28.340  54.702  40.839  1.00  0.00    -0.283 OA
ENDBRANCH   3  10
TORSDOF 2
ENDMDL
MODEL 3
REMARK VINA RESULT: -3.860549699      2.363      4.027
REMARK  2 active torsions:
REMARK  status: ('A' for Active; 'I' for Inactive)
REMARK    1  A    between atoms: C2_2  and  C3_3 
REMARK    2  A    between atoms: N1_5  and  C5_6 
ROOT
HETATM    1  C3  UNL     1      28.212  55.942  43.061  1.00  0.00     0.227 C 
HETATM    2  C4  UNL     1      29.439  55.426  43.740  1.00  0.00     0.164 C 
HETATM    3  N1  UNL     1      29.042  55.324  45.126  1.00  0.00    -0.333 N 
HETATM    4  C6  UNL     1      27.618  55.670  45.208  1.00  0.00     0.359 C 
HETATM    5  N2  UNL     1      27.092  55.519  43.886  1.00  0.00    -0.050 N 
ATOM      6  H21 UNL     1      26.725  54.592  43.671  1.00  0.00     0.280 HD
ATOM      7  H22 UNL     1      26.218  56.013  43.711  1.00  0.00     0.280 HD
ENDROOT
BRANCH   1   8
HETATM    8  C2  UNL     1      28.085  55.475  41.668  1.00  0.00    -0.003 C 
HETATM    9  C1  UNL     1      28.467  54.250  41.370  1.00  0.00     0.009 C 
ENDBRANCH   1   8
BRANCH   3  10
HETATM   10  C5  UNL     1      29.857  54.959  46.230  1.00  0.00     0.352 C 
HETATM   11  O1  UNL     1      30.781  54.117  46.047  1.00  0.00    -0.283 OA
ENDBRANCH   3  10
TORSDOF 2
ENDMDL
MODEL 4
REMARK VINA RESULT: -3.859604407      1.283      1.373
REMARK  2 active torsions:
REMARK  status: ('A' for Active; 'I' for Inactive)
REMARK    1  A    between atoms: C2_2  and  C3_3 
REMARK    2  A    between atoms: N1_5  and  C5_6 
ROOT
HETATM    1  C3  UNL     1      28.705  56.756  45.014  1.00  0.00     0.227 C 
HETATM    2  C4  UNL     1      27.882  55.842  44.165  1.00  0.00     0.164 C 
HETATM    3  N1  UNL     1      28.750  55.548  43.046  1.00  0.00    -0.333 N 
HETATM    4  C6  UNL     1      30.045  56.186  43.307  1.00  0.00     0.359 C 
HETATM    5  N2  UNL     1      30.092  56.439  44.714  1.00  0.00    -0.050 N 
ATOM      6  H21 UNL     1      30.493  55.686  45.275  1.00  0.00     0.280 HD
ATOM      7  H22 UNL     1      30.767  57.146  45.003  1.00  0.00     0.280 HD
ENDROOT
BRANCH   1   8
HETATM    8  C2  UNL     1      28.404  56.632  46.453  1.00  0.00    -0.003 C 
HETATM    9  C1  UNL     1      27.395  57.317  46.953  1.00  0.00     0.009 C 
ENDBRANCH   1   8
BRANCH   3  10
HETATM   10  C5  UNL     1      28.435  54.783  41.892  1.00  0.00     0.352 C 
HETATM   11  O1  UNL     1      28.121  55.391  40.830  1.00  0.00    -0.283 OA
ENDBRANCH   3  10
TORSDOF 2
ENDMDL
MODEL 5
REMARK VINA RESULT: -3.841503670      2.616      4.116
REMARK  2 active torsions:
REMARK  status: ('A' for Active; 'I' for Inactive)
REMARK    1  A    between atoms: C2_2  and  C3_3 
REMARK    2  A    between atoms: N1_5  and  C5_6 
ROOT
HETATM    1  C3  UNL     1      28.812  55.437  44.071  1.00  0.00     0.227 C 
HETATM    2  C4  UNL     1      27.377  55.674  44.414  1.00  0.00     0.164 C 
HETATM    3  N1  UNL     1      27.442  56.360  45.685  1.00  0.00    -0.333 N 
HETATM    4  C6  UNL     1      28.858  56.592  45.995  1.00  0.00     0.359 C 
HETATM    5  N2  UNL     1      29.563  56.477  44.755  1.00  0.00    -0.050 N 
ATOM      6  H21 UNL     1      29.664  57.349  44.234  1.00  0.00     0.280 HD
ATOM      7  H22 UNL     1      30.563  56.299  44.843  1.00  0.00     0.280 HD
ENDROOT
BRANCH   1   8
HETATM    8  C2  UNL     1      29.063  55.433  42.618  1.00  0.00    -0.003 C 
HETATM    9  C1  UNL     1      28.073  55.727  41.800  1.00  0.00     0.009 C 
ENDBRANCH   1   8
BRANCH   3  10
HETATM   10  C5  UNL     1      26.352  56.751  46.508  1.00  0.00     0.352 C 
HETATM   11  O1  UNL     1      26.580  57.500  47.499  1.00  0.00    -0.283 OA
ENDBRANCH   3  10
TORSDOF 2
ENDMDL
