MODEL 1
REMARK VINA RESULT: -5.151538823      0.000      0.000
REMARK  1 active torsions:
REMARK  status: ('A' for Active; 'I' for Inactive)
REMARK    1  A    between atoms: N2_4  and  N3_6 
ROOT
HETATM    1  N3  UNL     1      26.951  56.508  45.918  1.00  0.00    -0.268 N 
ATOM      2  H3  UNL     1      25.994  56.352  45.601  1.00  0.00     0.190 HD
HETATM    3  C1  UNL     1      27.935  56.048  45.221  1.00  0.00     0.159 C 
HETATM    4  C2  UNL     1      27.565  55.307  43.973  1.00  0.00     0.317 C 
HETATM    5  N4  UNL     1      28.534  55.449  42.933  1.00  0.00    -0.066 N 
ATOM      6  H41 UNL     1      28.100  55.609  42.024  1.00  0.00     0.277 HD
ATOM      7  H42 UNL     1      29.000  54.567  42.720  1.00  0.00     0.277 HD
HETATM    8  C3  UNL     1      29.475  56.495  43.281  1.00  0.00     0.259 C 
HETATM    9  C4  UNL     1      30.207  56.008  44.535  1.00  0.00     0.204 C 
HETATM   10  O1  UNL     1      29.264  56.226  45.594  1.00  0.00    -0.335 OA
ENDROOT
BRANCH   1  11
HETATM   11  N2  UNL     1      27.174  57.204  47.084  1.00  0.00    -0.248 N 
HETATM   12  N1  UNL     1      26.216  57.397  47.884  1.00  0.00    -0.331 N 
ATOM     13  H12 UNL     1      25.292  57.033  47.654  1.00  0.00     0.178 HD
ATOM     14  H11 UNL     1      26.382  57.914  48.748  1.00  0.00     0.178 HD
ATOM     15  H2  UNL     1      28.105  57.561  47.300  1.00  0.00     0.207 HD
ENDBRANCH   1  11
TORSDOF 1
ENDMDL
MODEL 2
REMARK VINA RESULT: -5.040100080      0.881      1.085
REMARK  1 active torsions:
REMARK  status: ('A' for Active; 'I' for Inactive)
REMARK    1  A    between atoms: N2_4  and  N3_6 
ROOT
HETATM    1  N3  UNL     1      26.411  55.737  44.899  1.00  0.00    -0.268 N 
ATOM      2  H3  UNL     1      25.665  55.772  44.205  1.00  0.00     0.190 HD
HETATM    3  C1  UNL     1      27.625  55.516  44.518  1.00  0.00     0.159 C 
HETATM    4  C2  UNL     1      27.826  55.324  43.047  1.00  0.00     0.317 C 
HETATM    5  N4  UNL     1      29.098  55.789  42.594  1.00  0.00    -0.066 N 
ATOM      6  H41 UNL     1      29.027  56.306  41.718  1.00  0.00     0.277 HD
ATOM      7  H42 UNL     1      29.691  55.026  42.267  1.00  0.00     0.277 HD
HETATM    8  C3  UNL     1      29.735  56.567  43.637  1.00  0.00     0.259 C 
HETATM    9  C4  UNL     1      29.979  55.600  44.799  1.00  0.00     0.204 C 
HETATM   10  O1  UNL     1      28.689  55.460  45.412  1.00  0.00    -0.335 OA
ENDROOT
BRANCH   1  11
HETATM   11  N2  UNL     1      26.110  55.928  46.228  1.00  0.00    -0.248 N 
HETATM   12  N1  UNL     1      26.436  57.012  46.789  1.00  0.00    -0.331 N 
ATOM     13  H12 UNL     1      26.917  57.730  46.246  1.00  0.00     0.178 HD
ATOM     14  H11 UNL     1      26.213  57.153  47.774  1.00  0.00     0.178 HD
ATOM     15  H2  UNL     1      25.627  55.201  46.756  1.00  0.00     0.207 HD
ENDBRANCH   1  11
TORSDOF 1
ENDMDL
MODEL 3
REMARK VINA RESULT: -4.597798046      1.681      2.184
REMARK  1 active torsions:
REMARK  status: ('A' for Active; 'I' for Inactive)
REMARK    1  A    between atoms: N2_4  and  N3_6 
ROOT
HETATM    1  N3  UNL     1      27.861  55.673  45.590  1.00  0.00    -0.268 N 
ATOM      2  H3  UNL     1      28.561  55.669  46.332  1.00  0.00     0.190 HD
HETATM    3  C1  UNL     1      28.216  55.957  44.382  1.00  0.00     0.159 C 
HETATM    4  C2  UNL     1      29.667  56.264  44.179  1.00  0.00     0.317 C 
HETATM    5  N4  UNL     1      30.145  55.872  42.892  1.00  0.00    -0.066 N 
ATOM      6  H41 UNL     1      31.058  55.420  42.943  1.00  0.00     0.277 HD
ATOM      7  H42 UNL     1      30.410  56.674  42.320  1.00  0.00     0.277 HD
HETATM    8  C3  UNL     1      29.159  55.036  42.238  1.00  0.00     0.259 C 
HETATM    9  C4  UNL     1      27.926  55.920  42.027  1.00  0.00     0.204 C 
HETATM   10  O1  UNL     1      27.313  55.977  43.323  1.00  0.00    -0.335 OA
ENDROOT
BRANCH   1  11
HETATM   11  N2  UNL     1      26.552  55.375  45.892  1.00  0.00    -0.248 N 
HETATM   12  N1  UNL     1      25.859  56.209  46.540  1.00  0.00    -0.331 N 
ATOM     13  H12 UNL     1      26.282  57.091  46.830  1.00  0.00     0.178 HD
ATOM     14  H11 UNL     1      24.889  55.987  46.763  1.00  0.00     0.178 HD
ATOM     15  H2  UNL     1      26.144  54.488  45.594  1.00  0.00     0.207 HD
ENDBRANCH   1  11
TORSDOF 1
ENDMDL
MODEL 4
REMARK VINA RESULT: -4.202148483      1.804      4.264
REMARK  1 active torsions:
REMARK  status: ('A' for Active; 'I' for Inactive)
REMARK    1  A    between atoms: N2_4  and  N3_6 
ROOT
HETATM    1  N3  UNL     1      27.934  54.287  42.437  1.00  0.00    -0.268 N 
ATOM      2  H3  UNL     1      26.979  53.933  42.496  1.00  0.00     0.190 HD
HETATM    3  C1  UNL     1      28.329  55.193  43.267  1.00  0.00     0.159 C 
HETATM    4  C2  UNL     1      27.313  55.654  44.267  1.00  0.00     0.317 C 
HETATM    5  N4  UNL     1      27.895  56.040  45.513  1.00  0.00    -0.066 N 
ATOM      6  H41 UNL     1      27.362  55.690  46.310  1.00  0.00     0.277 HD
ATOM      7  H42 UNL     1      27.789  57.038  45.693  1.00  0.00     0.277 HD
HETATM    8  C3  UNL     1      29.281  55.621  45.557  1.00  0.00     0.259 C 
HETATM    9  C4  UNL     1      29.996  56.399  44.449  1.00  0.00     0.204 C 
HETATM   10  O1  UNL     1      29.617  55.717  43.245  1.00  0.00    -0.335 OA
ENDROOT
BRANCH   1  11
HETATM   11  N2  UNL     1      28.783  53.790  41.475  1.00  0.00    -0.248 N 
HETATM   12  N1  UNL     1      28.604  52.620  41.034  1.00  0.00    -0.331 N 
ATOM     13  H12 UNL     1      27.832  52.062  41.397  1.00  0.00     0.178 HD
ATOM     14  H11 UNL     1      29.234  52.253  40.321  1.00  0.00     0.178 HD
ATOM     15  H2  UNL     1      29.551  54.362  41.121  1.00  0.00     0.207 HD
ENDBRANCH   1  11
TORSDOF 1
ENDMDL
MODEL 5
REMARK VINA RESULT: -3.859991396      2.020      4.041
REMARK  1 active torsions:
REMARK  status: ('A' for Active; 'I' for Inactive)
REMARK    1  A    between atoms: N2_4  and  N3_6 
ROOT
HETATM    1  N3  UNL     1      29.267  55.856  42.888  1.00  0.00    -0.268 N 
ATOM      2  H3  UNL     1      30.276  55.739  42.795  1.00  0.00     0.190 HD
HETATM    3  C1  UNL     1      28.715  55.724  44.048  1.00  0.00     0.159 C 
HETATM    4  C2  UNL     1      29.639  55.400  45.181  1.00  0.00     0.317 C 
HETATM    5  N4  UNL     1      29.203  55.944  46.427  1.00  0.00    -0.066 N 
ATOM      6  H41 UNL     1      29.972  56.356  46.955  1.00  0.00     0.277 HD
ATOM      7  H42 UNL     1      28.940  55.217  47.093  1.00  0.00     0.277 HD
HETATM    8  C3  UNL     1      28.130  56.891  46.199  1.00  0.00     0.259 C 
HETATM    9  C4  UNL     1      26.968  56.083  45.613  1.00  0.00     0.204 C 
HETATM   10  O1  UNL     1      27.346  55.874  44.245  1.00  0.00    -0.335 OA
ENDROOT
BRANCH   1  11
HETATM   11  N2  UNL     1      28.514  56.153  41.775  1.00  0.00    -0.248 N 
HETATM   12  N1  UNL     1      27.887  55.229  41.185  1.00  0.00    -0.331 N 
ATOM     13  H12 UNL     1      27.949  54.276  41.544  1.00  0.00     0.178 HD
ATOM     14  H11 UNL     1      27.329  55.450  40.361  1.00  0.00     0.178 HD
ATOM     15  H2  UNL     1      28.462  57.112  41.430  1.00  0.00     0.207 HD
ENDBRANCH   1  11
TORSDOF 1
ENDMDL
