MODEL 1
REMARK VINA RESULT: -5.469371355      0.000      0.000
REMARK  2 active torsions:
REMARK  status: ('A' for Active; 'I' for Inactive)
REMARK    1  A    between atoms: N2_4  and  N3_6 
REMARK    2  A    between atoms: C4_13  and  O1_14 
ROOT
HETATM    1  N3  UNL     1      26.749  55.350  44.644  1.00  0.00    -0.273 N 
ATOM      2  H3  UNL     1      26.126  55.113  43.872  1.00  0.00     0.190 HD
HETATM    3  C1  UNL     1      27.991  55.544  44.398  1.00  0.00     0.122 C 
HETATM    4  N4  UNL     1      28.978  55.883  45.367  1.00  0.00    -0.376 N 
ATOM      5  H4  UNL     1      28.819  56.057  46.359  1.00  0.00     0.160 HD
HETATM    6  C2  UNL     1      30.271  55.934  44.664  1.00  0.00     0.124 C 
HETATM    7  C3  UNL     1      29.803  56.442  43.316  1.00  0.00     0.059 C 
HETATM    8  C4  UNL     1      28.654  55.461  43.072  1.00  0.00     0.188 C 
ENDROOT
BRANCH   1   9
HETATM    9  N2  UNL     1      26.214  55.451  45.932  1.00  0.00    -0.248 N 
HETATM   10  N1  UNL     1      26.143  56.542  46.566  1.00  0.00    -0.331 N 
ATOM     11  H12 UNL     1      26.497  57.379  46.102  1.00  0.00     0.178 HD
ATOM     12  H11 UNL     1      25.754  56.615  47.506  1.00  0.00     0.178 HD
ATOM     13  H2  UNL     1      25.865  54.604  46.381  1.00  0.00     0.207 HD
ENDBRANCH   1   9
BRANCH   8  14
HETATM   14  O1  UNL     1      27.850  55.851  42.029  1.00  0.00    -0.388 OA
ATOM     15  H1  UNL     1      27.109  55.276  41.883  1.00  0.00     0.210 HD
ENDBRANCH   8  14
TORSDOF 2
ENDMDL
MODEL 2
REMARK VINA RESULT: -5.198773391      1.081      1.367
REMARK  2 active torsions:
REMARK  status: ('A' for Active; 'I' for Inactive)
REMARK    1  A    between atoms: N2_4  and  N3_6 
REMARK    2  A    between atoms: C4_13  and  O1_14 
ROOT
HETATM    1  N3  UNL     1      26.963  56.504  45.981  1.00  0.00    -0.273 N 
ATOM      2  H3  UNL     1      26.086  56.146  45.604  1.00  0.00     0.190 HD
HETATM    3  C1  UNL     1      28.051  56.269  45.346  1.00  0.00     0.122 C 
HETATM    4  N4  UNL     1      29.346  56.704  45.744  1.00  0.00    -0.376 N 
ATOM      5  H4  UNL     1      29.569  57.289  46.549  1.00  0.00     0.160 HD
HETATM    6  C2  UNL     1      30.304  56.148  44.772  1.00  0.00     0.124 C 
HETATM    7  C3  UNL     1      29.444  56.183  43.526  1.00  0.00     0.059 C 
HETATM    8  C4  UNL     1      28.187  55.506  44.078  1.00  0.00     0.188 C 
ENDROOT
BRANCH   1   9
HETATM    9  N2  UNL     1      26.934  57.235  47.172  1.00  0.00    -0.248 N 
HETATM   10  N1  UNL     1      25.936  57.251  47.947  1.00  0.00    -0.331 N 
ATOM     11  H12 UNL     1      25.122  56.699  47.677  1.00  0.00     0.178 HD
ATOM     12  H11 UNL     1      25.915  57.784  48.817  1.00  0.00     0.178 HD
ATOM     13  H2  UNL     1      27.757  57.781  47.428  1.00  0.00     0.207 HD
ENDBRANCH   1   9
BRANCH   8  14
HETATM   14  O1  UNL     1      27.112  55.640  43.236  1.00  0.00    -0.388 OA
ATOM     15  H1  UNL     1      26.278  55.695  43.688  1.00  0.00     0.210 HD
ENDBRANCH   8  14
TORSDOF 2
ENDMDL
MODEL 3
REMARK VINA RESULT: -5.181125227      1.569      2.127
REMARK  2 active torsions:
REMARK  status: ('A' for Active; 'I' for Inactive)
REMARK    1  A    between atoms: N2_4  and  N3_6 
REMARK    2  A    between atoms: C4_13  and  O1_14 
ROOT
HETATM    1  N3  UNL     1      27.801  56.157  45.812  1.00  0.00    -0.273 N 
ATOM      2  H3  UNL     1      28.520  56.378  46.501  1.00  0.00     0.190 HD
HETATM    3  C1  UNL     1      28.145  56.010  44.587  1.00  0.00     0.122 C 
HETATM    4  N4  UNL     1      27.261  55.698  43.516  1.00  0.00    -0.376 N 
ATOM      5  H4  UNL     1      26.261  55.510  43.591  1.00  0.00     0.160 HD
HETATM    6  C2  UNL     1      28.063  55.700  42.281  1.00  0.00     0.124 C 
HETATM    7  C3  UNL     1      29.376  55.188  42.835  1.00  0.00     0.059 C 
HETATM    8  C4  UNL     1      29.519  56.129  44.034  1.00  0.00     0.188 C 
ENDROOT
BRANCH   1   9
HETATM    9  N2  UNL     1      26.477  56.025  46.240  1.00  0.00    -0.248 N 
HETATM   10  N1  UNL     1      25.967  56.751  47.140  1.00  0.00    -0.331 N 
ATOM     11  H12 UNL     1      26.563  57.462  47.564  1.00  0.00     0.178 HD
ATOM     12  H11 UNL     1      25.001  56.655  47.452  1.00  0.00     0.178 HD
ATOM     13  H2  UNL     1      25.895  55.308  45.806  1.00  0.00     0.207 HD
ENDBRANCH   1   9
BRANCH   8  14
HETATM   14  O1  UNL     1      30.500  55.720  44.902  1.00  0.00    -0.388 OA
ATOM     15  H1  UNL     1      30.432  54.805  45.150  1.00  0.00     0.210 HD
ENDBRANCH   8  14
TORSDOF 2
ENDMDL
MODEL 4
REMARK VINA RESULT: -4.832567385      1.738      2.502
REMARK  2 active torsions:
REMARK  status: ('A' for Active; 'I' for Inactive)
REMARK    1  A    between atoms: N2_4  and  N3_6 
REMARK    2  A    between atoms: C4_13  and  O1_14 
ROOT
HETATM    1  N3  UNL     1      29.626  56.648  45.252  1.00  0.00    -0.273 N 
ATOM      2  H3  UNL     1      30.525  57.119  45.151  1.00  0.00     0.190 HD
HETATM    3  C1  UNL     1      29.065  56.159  44.210  1.00  0.00     0.122 C 
HETATM    4  N4  UNL     1      27.817  55.474  44.193  1.00  0.00    -0.376 N 
ATOM      5  H4  UNL     1      27.238  55.248  45.002  1.00  0.00     0.160 HD
HETATM    6  C2  UNL     1      27.520  55.155  42.786  1.00  0.00     0.124 C 
HETATM    7  C3  UNL     1      28.929  54.929  42.279  1.00  0.00     0.059 C 
HETATM    8  C4  UNL     1      29.589  56.199  42.821  1.00  0.00     0.188 C 
ENDROOT
BRANCH   1   9
HETATM    9  N2  UNL     1      29.053  56.561  46.524  1.00  0.00    -0.248 N 
HETATM   10  N1  UNL     1      28.067  57.265  46.886  1.00  0.00    -0.331 N 
ATOM     11  H12 UNL     1      27.684  57.921  46.206  1.00  0.00     0.178 HD
ATOM     12  H11 UNL     1      27.649  57.201  47.814  1.00  0.00     0.178 HD
ATOM     13  H2  UNL     1      29.449  55.899  47.192  1.00  0.00     0.207 HD
ENDBRANCH   1   9
BRANCH   8  14
HETATM   14  O1  UNL     1      30.959  56.144  42.748  1.00  0.00    -0.388 OA
ATOM     15  H1  UNL     1      31.379  55.983  43.584  1.00  0.00     0.210 HD
ENDBRANCH   8  14
TORSDOF 2
ENDMDL
MODEL 5
REMARK VINA RESULT: -4.509711572      1.888      2.988
REMARK  2 active torsions:
REMARK  status: ('A' for Active; 'I' for Inactive)
REMARK    1  A    between atoms: N2_4  and  N3_6 
REMARK    2  A    between atoms: C4_13  and  O1_14 
ROOT
HETATM    1  N3  UNL     1      30.075  55.573  45.248  1.00  0.00    -0.273 N 
ATOM      2  H3  UNL     1      31.007  55.973  45.141  1.00  0.00     0.190 HD
HETATM    3  C1  UNL     1      29.248  55.666  44.274  1.00  0.00     0.122 C 
HETATM    4  N4  UNL     1      27.919  55.157  44.272  1.00  0.00    -0.376 N 
ATOM      5  H4  UNL     1      27.474  54.621  45.016  1.00  0.00     0.160 HD
HETATM    6  C2  UNL     1      27.309  55.553  42.991  1.00  0.00     0.124 C 
HETATM    7  C3  UNL     1      28.533  55.492  42.102  1.00  0.00     0.059 C 
HETATM    8  C4  UNL     1      29.499  56.313  42.960  1.00  0.00     0.188 C 
ENDROOT
BRANCH   1   9
HETATM    9  N2  UNL     1      29.747  54.943  46.452  1.00  0.00    -0.248 N 
HETATM   10  N1  UNL     1      30.566  54.239  47.108  1.00  0.00    -0.331 N 
ATOM     11  H12 UNL     1      31.507  54.135  46.727  1.00  0.00     0.178 HD
ATOM     12  H11 UNL     1      30.327  53.780  47.986  1.00  0.00     0.178 HD
ATOM     13  H2  UNL     1      28.802  55.057  46.818  1.00  0.00     0.207 HD
ENDBRANCH   1   9
BRANCH   8  14
HETATM   14  O1  UNL     1      30.798  56.203  42.530  1.00  0.00    -0.388 OA
ATOM     15  H1  UNL     1      30.956  55.439  41.988  1.00  0.00     0.210 HD
ENDBRANCH   8  14
TORSDOF 2
ENDMDL
