MODEL 1
REMARK VINA RESULT: -4.714360134      0.000      0.000
REMARK  1 active torsions:
REMARK  status: ('A' for Active; 'I' for Inactive)
REMARK    1  A    between atoms: C1_2  and  C2_3 
ROOT
HETATM    1  C2  UNL     1      28.291  55.936  42.589  1.00  0.00     0.249 C 
HETATM    2  C3  UNL     1      27.593  55.614  43.891  1.00  0.00     0.075 C 
HETATM    3  C4  UNL     1      28.760  55.304  44.808  1.00  0.00     0.220 C 
HETATM    4  N1  UNL     1      28.793  56.097  46.025  1.00  0.00    -0.067 N 
ATOM      5  H11 UNL     1      29.185  55.713  46.885  1.00  0.00     0.277 HD
ATOM      6  H12 UNL     1      27.932  56.310  46.528  1.00  0.00     0.277 HD
HETATM    7  C5  UNL     1      29.486  57.119  45.301  1.00  0.00     0.268 C 
HETATM    8  C6  UNL     1      29.886  56.106  44.271  1.00  0.00     0.242 C 
HETATM    9  N2  UNL     1      29.535  56.555  42.943  1.00  0.00    -0.057 N 
ATOM     10  H21 UNL     1      29.509  57.571  42.863  1.00  0.00     0.278 HD
ATOM     11  H22 UNL     1      30.271  56.385  42.259  1.00  0.00     0.278 HD
ENDROOT
BRANCH   1  12
HETATM   12  C1  UNL     1      28.566  54.675  41.859  1.00  0.00     0.264 C 
HETATM   13  O1  UNL     1      28.290  54.585  40.677  1.00  0.00    -0.305 OA
ENDBRANCH   1  12
TORSDOF 1
ENDMDL
MODEL 2
REMARK VINA RESULT: -4.128913136      1.210      1.707
REMARK  1 active torsions:
REMARK  status: ('A' for Active; 'I' for Inactive)
REMARK    1  A    between atoms: C1_2  and  C2_3 
ROOT
HETATM    1  C2  UNL     1      29.063  55.284  42.748  1.00  0.00     0.249 C 
HETATM    2  C3  UNL     1      29.930  56.324  43.422  1.00  0.00     0.075 C 
HETATM    3  C4  UNL     1      29.015  56.836  44.517  1.00  0.00     0.220 C 
HETATM    4  N1  UNL     1      29.579  56.755  45.855  1.00  0.00    -0.067 N 
ATOM      5  H11 UNL     1      29.323  57.438  46.568  1.00  0.00     0.277 HD
ATOM      6  H12 UNL     1      30.562  56.973  46.017  1.00  0.00     0.277 HD
HETATM    7  C5  UNL     1      29.108  55.406  45.935  1.00  0.00     0.268 C 
HETATM    8  C6  UNL     1      28.129  55.690  44.836  1.00  0.00     0.242 C 
HETATM    9  N2  UNL     1      28.246  54.714  43.778  1.00  0.00    -0.057 N 
ATOM     10  H21 UNL     1      28.593  53.813  44.107  1.00  0.00     0.278 HD
ATOM     11  H22 UNL     1      27.341  54.392  43.433  1.00  0.00     0.278 HD
ENDROOT
BRANCH   1  12
HETATM   12  C1  UNL     1      28.193  55.949  41.748  1.00  0.00     0.264 C 
HETATM   13  O1  UNL     1      28.037  55.450  40.650  1.00  0.00    -0.305 OA
ENDBRANCH   1  12
TORSDOF 1
ENDMDL
MODEL 3
REMARK VINA RESULT: -3.742446644      2.022      2.715
REMARK  1 active torsions:
REMARK  status: ('A' for Active; 'I' for Inactive)
REMARK    1  A    between atoms: C1_2  and  C2_3 
ROOT
HETATM    1  C2  UNL     1      29.090  55.332  44.252  1.00  0.00     0.249 C 
HETATM    2  C3  UNL     1      28.832  55.830  45.657  1.00  0.00     0.075 C 
HETATM    3  C4  UNL     1      27.548  56.617  45.482  1.00  0.00     0.220 C 
HETATM    4  N1  UNL     1      26.467  56.203  46.361  1.00  0.00    -0.067 N 
ATOM      5  H11 UNL     1      25.774  56.877  46.685  1.00  0.00     0.277 HD
ATOM      6  H12 UNL     1      26.655  55.950  47.331  1.00  0.00     0.277 HD
HETATM    7  C5  UNL     1      26.117  55.200  45.401  1.00  0.00     0.268 C 
HETATM    8  C6  UNL     1      26.856  55.965  44.344  1.00  0.00     0.242 C 
HETATM    9  N2  UNL     1      27.803  55.114  43.661  1.00  0.00    -0.057 N 
ATOM     10  H21 UNL     1      27.526  54.132  43.663  1.00  0.00     0.278 HD
ATOM     11  H22 UNL     1      27.802  55.251  42.651  1.00  0.00     0.278 HD
ENDROOT
BRANCH   1  12
HETATM   12  C1  UNL     1      29.805  56.382  43.487  1.00  0.00     0.264 C 
HETATM   13  O1  UNL     1      30.650  56.069  42.669  1.00  0.00    -0.305 OA
ENDBRANCH   1  12
TORSDOF 1
ENDMDL
MODEL 4
REMARK VINA RESULT: -3.374185937      2.224      3.534
REMARK  1 active torsions:
REMARK  status: ('A' for Active; 'I' for Inactive)
REMARK    1  A    between atoms: C1_2  and  C2_3 
ROOT
HETATM    1  C2  UNL     1      28.956  55.926  45.149  1.00  0.00     0.249 C 
HETATM    2  C3  UNL     1      29.789  56.180  43.913  1.00  0.00     0.075 C 
HETATM    3  C4  UNL     1      29.164  55.229  42.910  1.00  0.00     0.220 C 
HETATM    4  N1  UNL     1      28.716  55.863  41.682  1.00  0.00    -0.067 N 
ATOM      5  H11 UNL     1      28.726  55.351  40.800  1.00  0.00     0.277 HD
ATOM      6  H12 UNL     1      29.271  56.599  41.246  1.00  0.00     0.277 HD
HETATM    7  C5  UNL     1      27.479  56.171  42.333  1.00  0.00     0.268 C 
HETATM    8  C6  UNL     1      27.752  55.097  43.343  1.00  0.00     0.242 C 
HETATM    9  N2  UNL     1      27.636  55.615  44.687  1.00  0.00    -0.057 N 
ATOM     10  H21 UNL     1      26.996  56.405  44.753  1.00  0.00     0.278 HD
ATOM     11  H22 UNL     1      27.135  54.984  45.313  1.00  0.00     0.278 HD
ENDROOT
BRANCH   1  12
HETATM   12  C1  UNL     1      29.506  54.756  45.875  1.00  0.00     0.264 C 
HETATM   13  O1  UNL     1      30.705  54.550  45.876  1.00  0.00    -0.305 OA
ENDBRANCH   1  12
TORSDOF 1
ENDMDL
MODEL 5
REMARK VINA RESULT: -3.344922099      2.357      3.532
REMARK  1 active torsions:
REMARK  status: ('A' for Active; 'I' for Inactive)
REMARK    1  A    between atoms: C1_2  and  C2_3 
ROOT
HETATM    1  C2  UNL     1      28.038  55.449  45.050  1.00  0.00     0.249 C 
HETATM    2  C3  UNL     1      27.077  55.688  43.907  1.00  0.00     0.075 C 
HETATM    3  C4  UNL     1      28.001  56.203  42.820  1.00  0.00     0.220 C 
HETATM    4  N1  UNL     1      27.936  55.455  41.575  1.00  0.00    -0.067 N 
ATOM      5  H11 UNL     1      28.105  55.918  40.682  1.00  0.00     0.277 HD
ATOM      6  H12 UNL     1      27.042  55.120  41.218  1.00  0.00     0.277 HD
HETATM    7  C5  UNL     1      28.895  54.539  42.115  1.00  0.00     0.268 C 
HETATM    8  C6  UNL     1      29.314  55.577  43.112  1.00  0.00     0.242 C 
HETATM    9  N2  UNL     1      29.278  55.045  44.455  1.00  0.00    -0.057 N 
ATOM     10  H21 UNL     1      29.422  54.036  44.485  1.00  0.00     0.278 HD
ATOM     11  H22 UNL     1      30.090  55.314  45.010  1.00  0.00     0.278 HD
ENDROOT
BRANCH   1  12
HETATM   12  C1  UNL     1      28.243  56.719  45.787  1.00  0.00     0.264 C 
HETATM   13  O1  UNL     1      29.371  57.127  45.993  1.00  0.00    -0.305 OA
ENDBRANCH   1  12
TORSDOF 1
ENDMDL
