MODEL 1
REMARK VINA RESULT: -11.380165033      0.000      0.000
REMARK  9 active torsions:
REMARK  status: ('A' for Active; 'I' for Inactive)
REMARK       I    between atoms: C1_2  and  N1_3 
REMARK    1  A    between atoms: C1_2  and  C25_33 
REMARK    2  A    between atoms: N1_3  and  C2_5 
REMARK    3  A    between atoms: C5_8  and  C6_9 
REMARK    4  A    between atoms: C6_9  and  O2_10 
REMARK    5  A    between atoms: C6_9  and  N2_12 
REMARK    6  A    between atoms: N2_12  and  C7_14 
REMARK    7  A    between atoms: C10_17  and  C11_18 
REMARK    8  A    between atoms: C11_18  and  C12_19 
REMARK    9  A    between atoms: C12_19  and  N3_20 
ROOT
HETATM    1  C6  UNL     1      23.013  53.123  -5.412  1.00  0.00     0.221 C 
ENDROOT
BRANCH   1   2
HETATM    2  C5  UNL     1      21.514  53.092  -5.315  1.00  0.00     0.034 C 
HETATM    3  C4  UNL     1      20.852  52.306  -6.434  1.00  0.00     0.011 C 
HETATM    4  C3  UNL     1      21.054  53.007  -7.768  1.00  0.00     0.026 C 
HETATM    5  C2  UNL     1      20.539  54.410  -7.741  1.00  0.00     0.084 C 
HETATM    6  C24 UNL     1      21.266  55.164  -6.627  1.00  0.00     0.026 C 
HETATM    7  C23 UNL     1      20.946  54.486  -5.328  1.00  0.00     0.011 C 
BRANCH   5   8
HETATM    8  N1  UNL     1      20.631  55.081  -8.998  1.00  0.00    -0.356 N 
HETATM    9  C1  UNL     1      19.502  55.584  -9.676  1.00  0.00     0.222 C 
HETATM   10  O1  UNL     1      18.367  55.444  -9.166  1.00  0.00    -0.273 OA
ATOM     11  H1  UNL     1      21.550  55.201  -9.422  1.00  0.00     0.162 HD
BRANCH   9  12
HETATM   12  C25 UNL     1      19.645  56.263 -10.963  1.00  0.00     0.082 C 
HETATM   13  C26 UNL     1      18.318  56.634 -11.599  1.00  0.00     0.019 C 
HETATM   14  C27 UNL     1      18.319  56.024 -12.973  1.00  0.00    -0.013 C 
HETATM   15  C28 UNL     1      18.125  54.540 -12.799  1.00  0.00     0.005 C 
HETATM   16  C31 UNL     1      19.825  56.056 -13.285  1.00  0.00     0.010 C 
HETATM   17  C29 UNL     1      19.397  54.118 -12.056  1.00  0.00     0.006 C 
HETATM   18  C30 UNL     1      20.262  55.359 -12.008  1.00  0.00    -0.001 C 
ENDBRANCH   9  12
ENDBRANCH   5   8
ENDBRANCH   1   2
BRANCH   1  19
HETATM   19  O2  UNL     1      23.406  54.097  -4.456  1.00  0.00    -0.377 OA
ATOM     20  H2  UNL     1      23.665  53.588  -3.696  1.00  0.00     0.212 HD
ENDBRANCH   1  19
BRANCH   1  21
HETATM   21  N2  UNL     1      23.655  51.904  -5.201  1.00  0.00    -0.370 N 
ATOM     22  H2  UNL     1      23.839  51.331  -6.025  1.00  0.00     0.161 HD
BRANCH  21  23
HETATM   23  C7  UNL     1      24.068  51.397  -3.987  1.00  0.00    -0.016 C 
HETATM   24  C8  UNL     1      25.569  51.713  -3.689  1.00  0.00     0.052 C 
HETATM   25  C9  UNL     1      25.886  50.757  -2.545  1.00  0.00     0.010 C 
HETATM   26  C10 UNL     1      25.364  51.451  -1.307  1.00  0.00    -0.012 C 
HETATM   27  C21 UNL     1      24.027  52.120  -1.583  1.00  0.00     0.010 C 
HETATM   28  C22 UNL     1      23.303  51.468  -2.742  1.00  0.00     0.052 C 
BRANCH  26  29
HETATM   29  C11 UNL     1      25.248  50.586  -0.111  1.00  0.00     0.035 C 
BRANCH  29  30
HETATM   30  C12 UNL     1      26.243  50.751   0.962  1.00  0.00     0.273 C 
BRANCH  30  31
HETATM   31  N3  UNL     1      27.027  49.634   1.310  1.00  0.00     0.093 N 
HETATM   32  C13 UNL     1      27.322  48.659   0.326  1.00  0.00     0.273 C 
HETATM   33  C14 UNL     1      28.241  47.713   1.121  1.00  0.00     0.037 C 
HETATM   34  C15 UNL     1      28.919  48.646   2.090  1.00  0.00     0.021 C 
HETATM   35  C16 UNL     1      30.390  48.514   2.155  1.00  0.00     0.007 C 
HETATM   36  C20 UNL     1      28.379  50.005   1.764  1.00  0.00     0.227 C 
HETATM   37  C17 UNL     1      31.170  49.731   1.753  1.00  0.00     0.001 C 
HETATM   38  C18 UNL     1      30.541  50.286   0.512  1.00  0.00     0.002 C 
HETATM   39  C19 UNL     1      29.131  50.763   0.747  1.00  0.00     0.036 C 
ENDBRANCH  30  31
ENDBRANCH  29  30
ENDBRANCH  26  29
ENDBRANCH  21  23
ENDBRANCH   1  21
TORSDOF 9
ENDMDL
MODEL 2
REMARK VINA RESULT: -11.058612706      0.890      1.518
REMARK  9 active torsions:
REMARK  status: ('A' for Active; 'I' for Inactive)
REMARK       I    between atoms: C1_2  and  N1_3 
REMARK    1  A    between atoms: C1_2  and  C25_33 
REMARK    2  A    between atoms: N1_3  and  C2_5 
REMARK    3  A    between atoms: C5_8  and  C6_9 
REMARK    4  A    between atoms: C6_9  and  O2_10 
REMARK    5  A    between atoms: C6_9  and  N2_12 
REMARK    6  A    between atoms: N2_12  and  C7_14 
REMARK    7  A    between atoms: C10_17  and  C11_18 
REMARK    8  A    between atoms: C11_18  and  C12_19 
REMARK    9  A    between atoms: C12_19  and  N3_20 
ROOT
HETATM    1  C6  UNL     1      22.913  53.289  -5.594  1.00  0.00     0.221 C 
ENDROOT
BRANCH   1   2
HETATM    2  C5  UNL     1      21.422  53.393  -5.440  1.00  0.00     0.034 C 
HETATM    3  C4  UNL     1      20.656  52.392  -6.289  1.00  0.00     0.011 C 
HETATM    4  C3  UNL     1      20.830  52.704  -7.767  1.00  0.00     0.026 C 
HETATM    5  C2  UNL     1      20.402  54.098  -8.093  1.00  0.00     0.084 C 
HETATM    6  C24 UNL     1      21.231  55.063  -7.244  1.00  0.00     0.026 C 
HETATM    7  C23 UNL     1      20.939  54.772  -5.801  1.00  0.00     0.011 C 
BRANCH   5   8
HETATM    8  N1  UNL     1      20.469  54.410  -9.485  1.00  0.00    -0.356 N 
HETATM    9  C1  UNL     1      19.392  54.986 -10.188  1.00  0.00     0.222 C 
HETATM   10  O1  UNL     1      18.327  55.240  -9.579  1.00  0.00    -0.273 OA
ATOM     11  H1  UNL     1      21.331  54.207  -9.991  1.00  0.00     0.162 HD
BRANCH   9  12
HETATM   12  C25 UNL     1      19.505  55.285 -11.614  1.00  0.00     0.082 C 
HETATM   13  C26 UNL     1      20.934  55.253 -12.125  1.00  0.00     0.019 C 
HETATM   14  C27 UNL     1      21.184  56.586 -12.775  1.00  0.00    -0.013 C 
HETATM   15  C28 UNL     1      21.319  57.600 -11.668  1.00  0.00     0.005 C 
HETATM   16  C31 UNL     1      19.765  56.921 -13.264  1.00  0.00     0.010 C 
HETATM   17  C29 UNL     1      19.923  57.597 -11.036  1.00  0.00     0.006 C 
HETATM   18  C30 UNL     1      19.083  56.705 -11.924  1.00  0.00    -0.001 C 
ENDBRANCH   9  12
ENDBRANCH   5   8
ENDBRANCH   1   2
BRANCH   1  19
HETATM   19  O2  UNL     1      23.427  54.239  -4.673  1.00  0.00    -0.377 OA
ATOM     20  H2  UNL     1      24.363  54.245  -4.839  1.00  0.00     0.212 HD
ENDBRANCH   1  19
BRANCH   1  21
HETATM   21  N2  UNL     1      23.453  52.022  -5.383  1.00  0.00    -0.370 N 
ATOM     22  H2  UNL     1      23.527  51.411  -6.197  1.00  0.00     0.161 HD
BRANCH  21  23
HETATM   23  C7  UNL     1      23.898  51.513  -4.182  1.00  0.00    -0.016 C 
HETATM   24  C8  UNL     1      25.376  51.919  -3.874  1.00  0.00     0.052 C 
HETATM   25  C9  UNL     1      25.755  50.957  -2.754  1.00  0.00     0.010 C 
HETATM   26  C10 UNL     1      25.189  51.584  -1.499  1.00  0.00    -0.012 C 
HETATM   27  C21 UNL     1      23.811  52.171  -1.761  1.00  0.00     0.010 C 
HETATM   28  C22 UNL     1      23.131  51.502  -2.936  1.00  0.00     0.052 C 
BRANCH  26  29
HETATM   29  C11 UNL     1      25.130  50.683  -0.326  1.00  0.00     0.035 C 
BRANCH  29  30
HETATM   30  C12 UNL     1      26.364  50.476   0.450  1.00  0.00     0.273 C 
BRANCH  30  31
HETATM   31  N3  UNL     1      27.095  49.293   0.221  1.00  0.00     0.093 N 
HETATM   32  C13 UNL     1      28.022  49.248  -0.848  1.00  0.00     0.273 C 
HETATM   33  C14 UNL     1      28.617  47.840  -0.656  1.00  0.00     0.037 C 
HETATM   34  C15 UNL     1      28.533  47.646   0.835  1.00  0.00     0.021 C 
HETATM   35  C16 UNL     1      29.782  47.174   1.472  1.00  0.00     0.007 C 
HETATM   36  C20 UNL     1      27.950  48.921   1.361  1.00  0.00     0.227 C 
HETATM   37  C17 UNL     1      30.388  48.104   2.482  1.00  0.00     0.001 C 
HETATM   38  C18 UNL     1      30.336  49.489   1.915  1.00  0.00     0.002 C 
HETATM   39  C19 UNL     1      28.923  49.973   1.709  1.00  0.00     0.036 C 
ENDBRANCH  30  31
ENDBRANCH  29  30
ENDBRANCH  26  29
ENDBRANCH  21  23
ENDBRANCH   1  21
TORSDOF 9
ENDMDL
MODEL 3
REMARK VINA RESULT: -10.444822283      1.883     13.321
REMARK  9 active torsions:
REMARK  status: ('A' for Active; 'I' for Inactive)
REMARK       I    between atoms: C1_2  and  N1_3 
REMARK    1  A    between atoms: C1_2  and  C25_33 
REMARK    2  A    between atoms: N1_3  and  C2_5 
REMARK    3  A    between atoms: C5_8  and  C6_9 
REMARK    4  A    between atoms: C6_9  and  O2_10 
REMARK    5  A    between atoms: C6_9  and  N2_12 
REMARK    6  A    between atoms: N2_12  and  C7_14 
REMARK    7  A    between atoms: C10_17  and  C11_18 
REMARK    8  A    between atoms: C11_18  and  C12_19 
REMARK    9  A    between atoms: C12_19  and  N3_20 
ROOT
HETATM    1  C6  UNL     1      23.740  53.202  -3.251  1.00  0.00     0.221 C 
ENDROOT
BRANCH   1   2
HETATM    2  C5  UNL     1      23.572  51.716  -3.111  1.00  0.00     0.034 C 
HETATM    3  C4  UNL     1      23.481  51.252  -1.667  1.00  0.00     0.011 C 
HETATM    4  C3  UNL     1      24.803  51.476  -0.951  1.00  0.00     0.026 C 
HETATM    5  C2  UNL     1      25.934  50.791  -1.648  1.00  0.00     0.084 C 
HETATM    6  C24 UNL     1      26.006  51.324  -3.079  1.00  0.00     0.026 C 
HETATM    7  C23 UNL     1      24.714  50.983  -3.762  1.00  0.00     0.011 C 
BRANCH   5   8
HETATM    8  N1  UNL     1      27.183  50.903  -0.965  1.00  0.00    -0.356 N 
HETATM    9  C1  UNL     1      28.068  49.817  -0.813  1.00  0.00     0.222 C 
HETATM   10  O1  UNL     1      27.757  48.702  -1.291  1.00  0.00    -0.273 OA
ATOM     11  H1  UNL     1      27.446  51.807  -0.572  1.00  0.00     0.162 HD
BRANCH   9  12
HETATM   12  C25 UNL     1      29.335  49.979  -0.104  1.00  0.00     0.082 C 
HETATM   13  C26 UNL     1      30.085  48.675   0.096  1.00  0.00     0.019 C 
HETATM   14  C27 UNL     1      30.344  48.554   1.572  1.00  0.00    -0.013 C 
HETATM   15  C28 UNL     1      29.030  48.210   2.225  1.00  0.00     0.005 C 
HETATM   16  C31 UNL     1      30.442  50.041   1.954  1.00  0.00     0.010 C 
HETATM   17  C29 UNL     1      28.182  49.458   1.958  1.00  0.00     0.006 C 
HETATM   18  C30 UNL     1      29.126  50.453   1.318  1.00  0.00    -0.001 C 
ENDBRANCH   9  12
ENDBRANCH   5   8
ENDBRANCH   1   2
BRANCH   1  19
HETATM   19  O2  UNL     1      24.657  53.352  -4.325  1.00  0.00    -0.377 OA
ATOM     20  H2  UNL     1      24.125  53.670  -5.046  1.00  0.00     0.212 HD
ENDBRANCH   1  19
BRANCH   1  21
HETATM   21  N2  UNL     1      22.566  53.923  -3.471  1.00  0.00    -0.370 N 
ATOM     22  H2  UNL     1      22.263  54.547  -2.724  1.00  0.00     0.161 HD
BRANCH  21  23
HETATM   23  C7  UNL     1      21.777  53.873  -4.600  1.00  0.00    -0.016 C 
HETATM   24  C8  UNL     1      21.862  55.186  -5.444  1.00  0.00     0.052 C 
HETATM   25  C9  UNL     1      20.660  55.059  -6.373  1.00  0.00     0.010 C 
HETATM   26  C10 UNL     1      21.132  54.160  -7.493  1.00  0.00    -0.012 C 
HETATM   27  C21 UNL     1      21.983  53.021  -6.952  1.00  0.00     0.010 C 
HETATM   28  C22 UNL     1      21.667  52.726  -5.501  1.00  0.00     0.052 C 
BRANCH  26  29
HETATM   29  C11 UNL     1      20.054  53.612  -8.347  1.00  0.00     0.035 C 
BRANCH  29  30
HETATM   30  C12 UNL     1      19.299  54.548  -9.195  1.00  0.00     0.273 C 
BRANCH  30  31
HETATM   31  N3  UNL     1      19.865  54.922 -10.430  1.00  0.00     0.093 N 
HETATM   32  C13 UNL     1      19.172  54.625 -11.628  1.00  0.00     0.273 C 
HETATM   33  C14 UNL     1      20.100  55.277 -12.670  1.00  0.00     0.037 C 
HETATM   34  C15 UNL     1      20.688  56.437 -11.909  1.00  0.00     0.021 C 
HETATM   35  C16 UNL     1      20.632  57.736 -12.614  1.00  0.00     0.007 C 
HETATM   36  C20 UNL     1      20.049  56.378 -10.555  1.00  0.00     0.227 C 
HETATM   37  C17 UNL     1      19.821  58.805 -11.943  1.00  0.00     0.001 C 
HETATM   38  C18 UNL     1      18.547  58.178 -11.464  1.00  0.00     0.002 C 
HETATM   39  C19 UNL     1      18.786  57.125 -10.413  1.00  0.00     0.036 C 
ENDBRANCH  30  31
ENDBRANCH  29  30
ENDBRANCH  26  29
ENDBRANCH  21  23
ENDBRANCH   1  21
TORSDOF 9
ENDMDL
MODEL 4
REMARK VINA RESULT: -10.378321664      4.880      9.393
REMARK  9 active torsions:
REMARK  status: ('A' for Active; 'I' for Inactive)
REMARK       I    between atoms: C1_2  and  N1_3 
REMARK    1  A    between atoms: C1_2  and  C25_33 
REMARK    2  A    between atoms: N1_3  and  C2_5 
REMARK    3  A    between atoms: C5_8  and  C6_9 
REMARK    4  A    between atoms: C6_9  and  O2_10 
REMARK    5  A    between atoms: C6_9  and  N2_12 
REMARK    6  A    between atoms: N2_12  and  C7_14 
REMARK    7  A    between atoms: C10_17  and  C11_18 
REMARK    8  A    between atoms: C11_18  and  C12_19 
REMARK    9  A    between atoms: C12_19  and  N3_20 
ROOT
HETATM    1  C6  UNL     1      27.630  48.426   0.553  1.00  0.00     0.221 C 
ENDROOT
BRANCH   1   2
HETATM    2  C5  UNL     1      27.883  49.906   0.500  1.00  0.00     0.034 C 
HETATM    3  C4  UNL     1      26.751  50.733   1.088  1.00  0.00     0.011 C 
HETATM    4  C3  UNL     1      25.501  50.609   0.231  1.00  0.00     0.026 C 
HETATM    5  C2  UNL     1      25.757  51.009  -1.185  1.00  0.00     0.084 C 
HETATM    6  C24 UNL     1      26.872  50.120  -1.738  1.00  0.00     0.026 C 
HETATM    7  C23 UNL     1      28.103  50.363  -0.917  1.00  0.00     0.011 C 
BRANCH   5   8
HETATM    8  N1  UNL     1      24.591  50.989  -2.009  1.00  0.00    -0.356 N 
HETATM    9  C1  UNL     1      24.477  51.755  -3.186  1.00  0.00     0.222 C 
HETATM   10  O1  UNL     1      25.431  52.487  -3.536  1.00  0.00    -0.273 OA
ATOM     11  H1  UNL     1      23.808  50.396  -1.734  1.00  0.00     0.162 HD
BRANCH   9  12
HETATM   12  C25 UNL     1      23.262  51.704  -3.997  1.00  0.00     0.082 C 
HETATM   13  C26 UNL     1      23.410  52.378  -5.348  1.00  0.00     0.019 C 
HETATM   14  C27 UNL     1      22.311  53.401  -5.437  1.00  0.00    -0.013 C 
HETATM   15  C28 UNL     1      22.692  54.540  -4.527  1.00  0.00     0.005 C 
HETATM   16  C31 UNL     1      21.237  52.723  -4.570  1.00  0.00     0.010 C 
HETATM   17  C29 UNL     1      22.668  53.888  -3.141  1.00  0.00     0.006 C 
HETATM   18  C30 UNL     1      22.133  52.490  -3.366  1.00  0.00    -0.001 C 
ENDBRANCH   9  12
ENDBRANCH   5   8
ENDBRANCH   1   2
BRANCH   1  19
HETATM   19  O2  UNL     1      28.107  47.944  -0.695  1.00  0.00    -0.377 OA
ATOM     20  H2  UNL     1      29.051  47.919  -0.591  1.00  0.00     0.212 HD
ENDBRANCH   1  19
BRANCH   1  21
HETATM   21  N2  UNL     1      28.217  47.753   1.624  1.00  0.00    -0.370 N 
ATOM     22  H2  UNL     1      27.848  47.956   2.553  1.00  0.00     0.161 HD
BRANCH  21  23
HETATM   23  C7  UNL     1      29.246  46.840   1.549  1.00  0.00    -0.016 C 
HETATM   24  C8  UNL     1      30.579  47.396   2.145  1.00  0.00     0.052 C 
HETATM   25  C9  UNL     1      31.615  46.411   1.611  1.00  0.00     0.010 C 
HETATM   26  C10 UNL     1      31.542  45.228   2.550  1.00  0.00    -0.012 C 
HETATM   27  C21 UNL     1      30.099  44.916   2.917  1.00  0.00     0.010 C 
HETATM   28  C22 UNL     1      29.132  45.416   1.865  1.00  0.00     0.052 C 
BRANCH  26  29
HETATM   29  C11 UNL     1      32.206  44.001   2.057  1.00  0.00     0.035 C 
BRANCH  29  30
HETATM   30  C12 UNL     1      32.325  42.860   2.979  1.00  0.00     0.273 C 
BRANCH  30  31
HETATM   31  N3  UNL     1      31.679  41.659   2.628  1.00  0.00     0.093 N 
HETATM   32  C13 UNL     1      32.333  40.425   2.861  1.00  0.00     0.273 C 
HETATM   33  C14 UNL     1      31.245  39.430   2.416  1.00  0.00     0.037 C 
HETATM   34  C15 UNL     1      29.971  40.164   2.743  1.00  0.00     0.021 C 
HETATM   35  C16 UNL     1      28.976  39.376   3.502  1.00  0.00     0.007 C 
HETATM   36  C20 UNL     1      30.414  41.457   3.357  1.00  0.00     0.227 C 
HETATM   37  C17 UNL     1      28.629  39.903   4.863  1.00  0.00     0.001 C 
HETATM   38  C18 UNL     1      29.907  40.306   5.534  1.00  0.00     0.002 C 
HETATM   39  C19 UNL     1      30.598  41.440   4.819  1.00  0.00     0.036 C 
ENDBRANCH  30  31
ENDBRANCH  29  30
ENDBRANCH  26  29
ENDBRANCH  21  23
ENDBRANCH   1  21
TORSDOF 9
ENDMDL
MODEL 5
REMARK VINA RESULT: -10.168384883      4.463      9.073
REMARK  9 active torsions:
REMARK  status: ('A' for Active; 'I' for Inactive)
REMARK       I    between atoms: C1_2  and  N1_3 
REMARK    1  A    between atoms: C1_2  and  C25_33 
REMARK    2  A    between atoms: N1_3  and  C2_5 
REMARK    3  A    between atoms: C5_8  and  C6_9 
REMARK    4  A    between atoms: C6_9  and  O2_10 
REMARK    5  A    between atoms: C6_9  and  N2_12 
REMARK    6  A    between atoms: N2_12  and  C7_14 
REMARK    7  A    between atoms: C10_17  and  C11_18 
REMARK    8  A    between atoms: C11_18  and  C12_19 
REMARK    9  A    between atoms: C12_19  and  N3_20 
ROOT
HETATM    1  C6  UNL     1      27.541  48.456   0.511  1.00  0.00     0.221 C 
ENDROOT
BRANCH   1   2
HETATM    2  C5  UNL     1      27.814  49.932   0.444  1.00  0.00     0.034 C 
HETATM    3  C4  UNL     1      26.689  50.780   1.013  1.00  0.00     0.011 C 
HETATM    4  C3  UNL     1      25.444  50.663   0.146  1.00  0.00     0.026 C 
HETATM    5  C2  UNL     1      25.718  51.044  -1.272  1.00  0.00     0.084 C 
HETATM    6  C24 UNL     1      26.826  50.134  -1.806  1.00  0.00     0.026 C 
HETATM    7  C23 UNL     1      28.053  50.370  -0.976  1.00  0.00     0.011 C 
BRANCH   5   8
HETATM    8  N1  UNL     1      24.559  51.030  -2.106  1.00  0.00    -0.356 N 
HETATM    9  C1  UNL     1      24.472  51.771  -3.301  1.00  0.00     0.222 C 
HETATM   10  O1  UNL     1      25.445  52.474  -3.659  1.00  0.00    -0.273 OA
ATOM     11  H1  UNL     1      23.761  50.460  -1.824  1.00  0.00     0.162 HD
BRANCH   9  12
HETATM   12  C25 UNL     1      23.263  51.727  -4.122  1.00  0.00     0.082 C 
HETATM   13  C26 UNL     1      23.395  52.487  -5.429  1.00  0.00     0.019 C 
HETATM   14  C27 UNL     1      22.262  53.475  -5.464  1.00  0.00    -0.013 C 
HETATM   15  C28 UNL     1      22.599  54.569  -4.484  1.00  0.00     0.005 C 
HETATM   16  C31 UNL     1      21.208  52.709  -4.646  1.00  0.00     0.010 C 
HETATM   17  C29 UNL     1      22.591  53.834  -3.140  1.00  0.00     0.006 C 
HETATM   18  C30 UNL     1      22.106  52.435  -3.452  1.00  0.00    -0.001 C 
ENDBRANCH   9  12
ENDBRANCH   5   8
ENDBRANCH   1   2
BRANCH   1  19
HETATM   19  O2  UNL     1      28.014  47.955  -0.732  1.00  0.00    -0.377 OA
ATOM     20  H2  UNL     1      27.925  47.013  -0.654  1.00  0.00     0.212 HD
ENDBRANCH   1  19
BRANCH   1  21
HETATM   21  N2  UNL     1      28.117  47.785   1.589  1.00  0.00    -0.370 N 
ATOM     22  H2  UNL     1      27.663  47.896   2.496  1.00  0.00     0.161 HD
BRANCH  21  23
HETATM   23  C7  UNL     1      29.240  46.987   1.549  1.00  0.00    -0.016 C 
HETATM   24  C8  UNL     1      30.491  47.688   2.170  1.00  0.00     0.052 C 
HETATM   25  C9  UNL     1      31.639  46.815   1.672  1.00  0.00     0.010 C 
HETATM   26  C10 UNL     1      31.669  45.639   2.623  1.00  0.00    -0.012 C 
HETATM   27  C21 UNL     1      30.260  45.177   2.959  1.00  0.00     0.010 C 
HETATM   28  C22 UNL     1      29.271  45.561   1.879  1.00  0.00     0.052 C 
BRANCH  26  29
HETATM   29  C11 UNL     1      32.473  44.486   2.159  1.00  0.00     0.035 C 
BRANCH  29  30
HETATM   30  C12 UNL     1      31.945  43.133   2.401  1.00  0.00     0.273 C 
BRANCH  30  31
HETATM   31  N3  UNL     1      31.539  42.376   1.284  1.00  0.00     0.093 N 
HETATM   32  C13 UNL     1      31.953  41.026   1.174  1.00  0.00     0.273 C 
HETATM   33  C14 UNL     1      31.220  40.602  -0.113  1.00  0.00     0.037 C 
HETATM   34  C15 UNL     1      29.975  41.449  -0.079  1.00  0.00     0.021 C 
HETATM   35  C16 UNL     1      28.714  40.711  -0.305  1.00  0.00     0.007 C 
HETATM   36  C20 UNL     1      30.075  42.237   1.191  1.00  0.00     0.227 C 
HETATM   37  C17 UNL     1      27.735  40.733   0.832  1.00  0.00     0.001 C 
HETATM   38  C18 UNL     1      28.502  40.497   2.097  1.00  0.00     0.002 C 
HETATM   39  C19 UNL     1      29.488  41.601   2.385  1.00  0.00     0.036 C 
ENDBRANCH  30  31
ENDBRANCH  29  30
ENDBRANCH  26  29
ENDBRANCH  21  23
ENDBRANCH   1  21
TORSDOF 9
ENDMDL
