MODEL 1
REMARK VINA RESULT: -11.234755981      0.000      0.000
REMARK  8 active torsions:
REMARK  status: ('A' for Active; 'I' for Inactive)
REMARK    1  A    between atoms: C2_2  and  C3_3 
REMARK    2  A    between atoms: C3_3  and  C4_4 
REMARK    3  A    between atoms: C3_3  and  N1_6 
REMARK    4  A    between atoms: C3_3  and  C14_17 
REMARK       I    between atoms: N1_6  and  C6_8 
REMARK    5  A    between atoms: C6_8  and  C7_10 
REMARK    6  A    between atoms: C7_10  and  C8_11 
REMARK    7  A    between atoms: C14_17  and  C15_19 
REMARK       I    between atoms: C15_19  and  N2_21 
REMARK    8  A    between atoms: N2_21  and  C16_23 
ROOT
HETATM    1  C15 UNL     1      28.553  46.341   0.678  1.00  0.00     0.290 C 
HETATM    2  O3  UNL     1      27.623  45.560   0.990  1.00  0.00    -0.264 OA
HETATM    3  N2  UNL     1      29.838  45.999   1.195  1.00  0.00    -0.349 N 
ATOM      4  H2  UNL     1      30.627  46.604   0.968  1.00  0.00     0.163 HD
ENDROOT
BRANCH   1   5
HETATM    5  C14 UNL     1      28.413  47.529  -0.142  1.00  0.00     0.244 C 
HETATM    6  O2  UNL     1      28.438  47.376  -1.398  1.00  0.00    -0.284 OA
BRANCH   5   7
HETATM    7  C3  UNL     1      28.245  48.885   0.403  1.00  0.00     0.102 C 
BRANCH   7   8
HETATM    8  C2  UNL     1      29.398  49.763   0.034  1.00  0.00     0.035 C 
HETATM    9  C1  UNL     1      30.568  49.568   1.010  1.00  0.00     0.008 C 
ENDBRANCH   7   8
BRANCH   7  10
HETATM   10  C4  UNL     1      28.158  48.781   1.940  1.00  0.00     0.035 C 
HETATM   11  C5  UNL     1      27.140  49.759   2.434  1.00  0.00     0.008 C 
ENDBRANCH   7  10
BRANCH   7  12
HETATM   12  N1  UNL     1      26.977  49.427  -0.061  1.00  0.00    -0.344 N 
HETATM   13  C6  UNL     1      26.813  50.164  -1.263  1.00  0.00     0.218 C 
HETATM   14  O1  UNL     1      27.773  50.401  -2.020  1.00  0.00    -0.274 OA
ATOM     15  H1  UNL     1      26.151  49.266   0.515  1.00  0.00     0.163 HD
BRANCH  13  16
HETATM   16  C7  UNL     1      25.473  50.665  -1.628  1.00  0.00     0.107 C 
BRANCH  16  17
HETATM   17  C8  UNL     1      25.584  51.720  -2.673  1.00  0.00    -0.006 C 
HETATM   18  C9  UNL     1      24.618  52.866  -2.434  1.00  0.00     0.005 C 
HETATM   19  C10 UNL     1      23.192  52.459  -2.726  1.00  0.00     0.000 C 
HETATM   20  C11 UNL     1      23.099  52.073  -4.179  1.00  0.00     0.000 C 
HETATM   21  C12 UNL     1      24.435  51.954  -4.837  1.00  0.00     0.000 C 
HETATM   22  C13 UNL     1      25.391  51.105  -4.031  1.00  0.00     0.005 C 
ENDBRANCH  16  17
ENDBRANCH  13  16
ENDBRANCH   7  12
ENDBRANCH   5   7
ENDBRANCH   1   5
BRANCH   3  23
HETATM   23  C16 UNL     1      30.079  44.844   2.021  1.00  0.00     0.089 C 
HETATM   24  C17 UNL     1      31.187  45.026   2.994  1.00  0.00     0.029 C 
HETATM   25  C18 UNL     1      31.325  43.873   3.934  1.00  0.00     0.036 C 
HETATM   26  C19 UNL     1      30.762  42.619   3.395  1.00  0.00    -0.076 C 
HETATM   27  C20 UNL     1      30.363  42.482   2.145  1.00  0.00    -0.065 C 
HETATM   28  C29 UNL     1      30.666  41.467   4.362  1.00  0.00     0.036 C 
HETATM   29  C21 UNL     1      30.458  43.608   1.183  1.00  0.00     0.060 C 
HETATM   30  C22 UNL     1      29.816  41.141   1.756  1.00  0.00     0.001 C 
HETATM   31  C23 UNL     1      29.010  41.337   0.471  1.00  0.00     0.022 C 
HETATM   32  C24 UNL     1      30.895  40.158   1.491  1.00  0.00     0.025 C 
HETATM   33  C27 UNL     1      28.831  40.731   2.814  1.00  0.00     0.097 C 
HETATM   34  C25 UNL     1      30.636  38.773   1.969  1.00  0.00     0.104 C 
HETATM   35  C26 UNL     1      29.192  38.429   2.049  1.00  0.00     0.217 C 
HETATM   36  O4  UNL     1      28.751  37.271   1.764  1.00  0.00    -0.274 OA
HETATM   37  N3  UNL     1      28.285  39.436   2.460  1.00  0.00    -0.355 N 
ATOM     38  H3  UNL     1      27.282  39.257   2.504  1.00  0.00     0.162 HD
HETATM   39  C28 UNL     1      29.401  40.671   4.186  1.00  0.00     0.030 C 
ENDBRANCH   3  23
TORSDOF 8
ENDMDL
MODEL 2
REMARK VINA RESULT: -10.554556451      2.126      4.229
REMARK  8 active torsions:
REMARK  status: ('A' for Active; 'I' for Inactive)
REMARK    1  A    between atoms: C2_2  and  C3_3 
REMARK    2  A    between atoms: C3_3  and  C4_4 
REMARK    3  A    between atoms: C3_3  and  N1_6 
REMARK    4  A    between atoms: C3_3  and  C14_17 
REMARK       I    between atoms: N1_6  and  C6_8 
REMARK    5  A    between atoms: C6_8  and  C7_10 
REMARK    6  A    between atoms: C7_10  and  C8_11 
REMARK    7  A    between atoms: C14_17  and  C15_19 
REMARK       I    between atoms: C15_19  and  N2_21 
REMARK    8  A    between atoms: N2_21  and  C16_23 
ROOT
HETATM    1  C15 UNL     1      28.748  46.086   0.921  1.00  0.00     0.290 C 
HETATM    2  O3  UNL     1      27.804  45.375   1.340  1.00  0.00    -0.264 OA
HETATM    3  N2  UNL     1      30.043  45.725   1.398  1.00  0.00    -0.349 N 
ATOM      4  H2  UNL     1      30.844  46.275   1.084  1.00  0.00     0.163 HD
ENDROOT
BRANCH   1   5
HETATM    5  C14 UNL     1      28.614  47.213   0.017  1.00  0.00     0.244 C 
HETATM    6  O2  UNL     1      28.555  46.963  -1.221  1.00  0.00    -0.284 OA
BRANCH   5   7
HETATM    7  C3  UNL     1      28.544  48.614   0.461  1.00  0.00     0.102 C 
BRANCH   7   8
HETATM    8  C2  UNL     1      28.517  48.709   1.953  1.00  0.00     0.035 C 
HETATM    9  C1  UNL     1      27.385  49.638   2.421  1.00  0.00     0.008 C 
ENDBRANCH   7   8
BRANCH   7  10
HETATM   10  C4  UNL     1      27.254  49.239  -0.111  1.00  0.00     0.035 C 
HETATM   11  C5  UNL     1      27.624  50.230  -1.168  1.00  0.00     0.008 C 
ENDBRANCH   7  10
BRANCH   7  12
HETATM   12  N1  UNL     1      29.663  49.346  -0.111  1.00  0.00    -0.344 N 
HETATM   13  C6  UNL     1      30.998  49.271   0.367  1.00  0.00     0.218 C 
HETATM   14  O1  UNL     1      31.305  48.550   1.335  1.00  0.00    -0.274 OA
ATOM     15  H1  UNL     1      29.477  49.954  -0.908  1.00  0.00     0.163 HD
BRANCH  13  16
HETATM   16  C7  UNL     1      32.051  50.064  -0.297  1.00  0.00     0.107 C 
BRANCH  16  17
HETATM   17  C8  UNL     1      31.573  51.454  -0.541  1.00  0.00    -0.006 C 
HETATM   18  C9  UNL     1      32.567  52.267  -1.351  1.00  0.00     0.005 C 
HETATM   19  C10 UNL     1      33.785  52.626  -0.534  1.00  0.00     0.000 C 
HETATM   20  C11 UNL     1      33.342  53.469   0.632  1.00  0.00     0.000 C 
HETATM   21  C12 UNL     1      31.857  53.500   0.797  1.00  0.00     0.000 C 
HETATM   22  C13 UNL     1      31.255  52.114   0.772  1.00  0.00     0.005 C 
ENDBRANCH  16  17
ENDBRANCH  13  16
ENDBRANCH   7  12
ENDBRANCH   5   7
ENDBRANCH   1   5
BRANCH   3  23
HETATM   23  C16 UNL     1      30.279  44.627   2.299  1.00  0.00     0.089 C 
HETATM   24  C17 UNL     1      31.398  44.862   3.248  1.00  0.00     0.029 C 
HETATM   25  C18 UNL     1      31.532  43.775   4.263  1.00  0.00     0.036 C 
HETATM   26  C19 UNL     1      30.951  42.493   3.817  1.00  0.00    -0.076 C 
HETATM   27  C20 UNL     1      30.538  42.276   2.582  1.00  0.00    -0.065 C 
HETATM   28  C29 UNL     1      30.851  41.411   4.861  1.00  0.00     0.036 C 
HETATM   29  C21 UNL     1      30.636  43.332   1.545  1.00  0.00     0.060 C 
HETATM   30  C22 UNL     1      29.972  40.918   2.291  1.00  0.00     0.001 C 
HETATM   31  C23 UNL     1      29.157  41.035   1.002  1.00  0.00     0.022 C 
HETATM   32  C24 UNL     1      31.038  39.906   2.085  1.00  0.00     0.025 C 
HETATM   33  C27 UNL     1      28.993  40.593   3.383  1.00  0.00     0.097 C 
HETATM   34  C25 UNL     1      30.768  38.561   2.659  1.00  0.00     0.104 C 
HETATM   35  C26 UNL     1      29.321  38.240   2.775  1.00  0.00     0.217 C 
HETATM   36  O4  UNL     1      28.865  37.070   2.574  1.00  0.00    -0.274 OA
HETATM   37  N3  UNL     1      28.429  39.284   3.123  1.00  0.00    -0.355 N 
ATOM     38  H3  UNL     1      27.425  39.119   3.189  1.00  0.00     0.162 HD
HETATM   39  C28 UNL     1      29.575  40.620   4.751  1.00  0.00     0.030 C 
ENDBRANCH   3  23
TORSDOF 8
ENDMDL
MODEL 3
REMARK VINA RESULT: -10.552642774      0.764      1.136
REMARK  8 active torsions:
REMARK  status: ('A' for Active; 'I' for Inactive)
REMARK    1  A    between atoms: C2_2  and  C3_3 
REMARK    2  A    between atoms: C3_3  and  C4_4 
REMARK    3  A    between atoms: C3_3  and  N1_6 
REMARK    4  A    between atoms: C3_3  and  C14_17 
REMARK       I    between atoms: N1_6  and  C6_8 
REMARK    5  A    between atoms: C6_8  and  C7_10 
REMARK    6  A    between atoms: C7_10  and  C8_11 
REMARK    7  A    between atoms: C14_17  and  C15_19 
REMARK       I    between atoms: C15_19  and  N2_21 
REMARK    8  A    between atoms: N2_21  and  C16_23 
ROOT
HETATM    1  C15 UNL     1      28.528  46.430   0.486  1.00  0.00     0.290 C 
HETATM    2  O3  UNL     1      27.584  45.701   0.872  1.00  0.00    -0.264 OA
HETATM    3  N2  UNL     1      29.824  46.044   0.942  1.00  0.00    -0.349 N 
ATOM      4  H2  UNL     1      30.625  46.607   0.654  1.00  0.00     0.163 HD
ENDROOT
BRANCH   1   5
HETATM    5  C14 UNL     1      28.395  47.600  -0.361  1.00  0.00     0.244 C 
HETATM    6  O2  UNL     1      28.401  47.416  -1.613  1.00  0.00    -0.284 OA
BRANCH   5   7
HETATM    7  C3  UNL     1      28.255  48.971   0.153  1.00  0.00     0.102 C 
BRANCH   7   8
HETATM    8  C2  UNL     1      29.533  49.454   0.762  1.00  0.00     0.035 C 
HETATM    9  C1  UNL     1      30.137  50.596  -0.070  1.00  0.00     0.008 C 
ENDBRANCH   7   8
BRANCH   7  10
HETATM   10  C4  UNL     1      27.148  48.975   1.228  1.00  0.00     0.035 C 
HETATM   11  C5  UNL     1      27.702  49.550   2.492  1.00  0.00     0.008 C 
ENDBRANCH   7  10
BRANCH   7  12
HETATM   12  N1  UNL     1      27.805  49.836  -0.927  1.00  0.00    -0.344 N 
HETATM   13  C6  UNL     1      26.493  50.367  -1.034  1.00  0.00     0.218 C 
HETATM   14  O1  UNL     1      25.617  50.119  -0.184  1.00  0.00    -0.274 OA
ATOM     15  H1  UNL     1      28.477  50.078  -1.655  1.00  0.00     0.163 HD
BRANCH  13  16
HETATM   16  C7  UNL     1      26.153  51.235  -2.179  1.00  0.00     0.107 C 
BRANCH  16  17
HETATM   17  C8  UNL     1      24.716  51.078  -2.536  1.00  0.00    -0.006 C 
HETATM   18  C9  UNL     1      24.504  51.012  -4.038  1.00  0.00     0.005 C 
HETATM   19  C10 UNL     1      24.715  52.361  -4.686  1.00  0.00     0.000 C 
HETATM   20  C11 UNL     1      23.703  53.322  -4.119  1.00  0.00     0.000 C 
HETATM   21  C12 UNL     1      22.974  52.770  -2.937  1.00  0.00     0.000 C 
HETATM   22  C13 UNL     1      23.918  52.188  -1.910  1.00  0.00     0.005 C 
ENDBRANCH  16  17
ENDBRANCH  13  16
ENDBRANCH   7  12
ENDBRANCH   5   7
ENDBRANCH   1   5
BRANCH   3  23
HETATM   23  C16 UNL     1      30.060  44.903   1.788  1.00  0.00     0.089 C 
HETATM   24  C17 UNL     1      31.164  45.100   2.763  1.00  0.00     0.029 C 
HETATM   25  C18 UNL     1      31.296  43.963   3.722  1.00  0.00     0.036 C 
HETATM   26  C19 UNL     1      30.734  42.700   3.203  1.00  0.00    -0.076 C 
HETATM   27  C20 UNL     1      30.340  42.543   1.953  1.00  0.00    -0.065 C 
HETATM   28  C29 UNL     1      30.632  41.565   4.188  1.00  0.00     0.036 C 
HETATM   29  C21 UNL     1      30.440  43.652   0.973  1.00  0.00     0.060 C 
HETATM   30  C22 UNL     1      29.793  41.197   1.585  1.00  0.00     0.001 C 
HETATM   31  C23 UNL     1      28.992  41.372   0.292  1.00  0.00     0.022 C 
HETATM   32  C24 UNL     1      30.871  40.207   1.341  1.00  0.00     0.025 C 
HETATM   33  C27 UNL     1      28.802  40.806   2.644  1.00  0.00     0.097 C 
HETATM   34  C25 UNL     1      30.608  38.832   1.840  1.00  0.00     0.104 C 
HETATM   35  C26 UNL     1      29.163  38.491   1.920  1.00  0.00     0.217 C 
HETATM   36  O4  UNL     1      28.722  37.328   1.653  1.00  0.00    -0.274 OA
HETATM   37  N3  UNL     1      28.256  39.506   2.310  1.00  0.00    -0.355 N 
ATOM     38  H3  UNL     1      27.253  39.328   2.353  1.00  0.00     0.162 HD
HETATM   39  C28 UNL     1      29.366  40.768   4.020  1.00  0.00     0.030 C 
ENDBRANCH   3  23
TORSDOF 8
ENDMDL
MODEL 4
REMARK VINA RESULT: -10.533291545      1.994      3.149
REMARK  8 active torsions:
REMARK  status: ('A' for Active; 'I' for Inactive)
REMARK    1  A    between atoms: C2_2  and  C3_3 
REMARK    2  A    between atoms: C3_3  and  C4_4 
REMARK    3  A    between atoms: C3_3  and  N1_6 
REMARK    4  A    between atoms: C3_3  and  C14_17 
REMARK       I    between atoms: N1_6  and  C6_8 
REMARK    5  A    between atoms: C6_8  and  C7_10 
REMARK    6  A    between atoms: C7_10  and  C8_11 
REMARK    7  A    between atoms: C14_17  and  C15_19 
REMARK       I    between atoms: C15_19  and  N2_21 
REMARK    8  A    between atoms: N2_21  and  C16_23 
ROOT
HETATM    1  C15 UNL     1      31.436  45.930   2.035  1.00  0.00     0.290 C 
HETATM    2  O3  UNL     1      30.261  45.948   2.471  1.00  0.00    -0.264 OA
HETATM    3  N2  UNL     1      32.202  44.781   2.390  1.00  0.00    -0.349 N 
ATOM      4  H2  UNL     1      33.165  44.720   2.058  1.00  0.00     0.163 HD
ENDROOT
BRANCH   1   5
HETATM    5  C14 UNL     1      32.047  46.965   1.223  1.00  0.00     0.244 C 
HETATM    6  O2  UNL     1      33.172  47.409   1.595  1.00  0.00    -0.284 OA
BRANCH   5   7
HETATM    7  C3  UNL     1      31.434  47.520   0.006  1.00  0.00     0.102 C 
BRANCH   7   8
HETATM    8  C2  UNL     1      31.281  46.472  -1.049  1.00  0.00     0.035 C 
HETATM    9  C1  UNL     1      32.578  46.320  -1.860  1.00  0.00     0.008 C 
ENDBRANCH   7   8
BRANCH   7  10
HETATM   10  C4  UNL     1      32.345  48.647  -0.525  1.00  0.00     0.035 C 
HETATM   11  C5  UNL     1      31.752  49.967  -0.148  1.00  0.00     0.008 C 
ENDBRANCH   7  10
BRANCH   7  12
HETATM   12  N1  UNL     1      30.160  48.130   0.356  1.00  0.00    -0.344 N 
HETATM   13  C6  UNL     1      28.921  47.804  -0.255  1.00  0.00     0.218 C 
HETATM   14  O1  UNL     1      28.843  46.947  -1.156  1.00  0.00    -0.274 OA
ATOM     15  H1  UNL     1      30.157  48.840   1.089  1.00  0.00     0.163 HD
BRANCH  13  16
HETATM   16  C7  UNL     1      27.692  48.494   0.185  1.00  0.00     0.107 C 
BRANCH  16  17
HETATM   17  C8  UNL     1      27.696  49.906  -0.290  1.00  0.00    -0.006 C 
HETATM   18  C9  UNL     1      26.875  50.814   0.608  1.00  0.00     0.005 C 
HETATM   19  C10 UNL     1      25.394  50.562   0.445  1.00  0.00     0.000 C 
HETATM   20  C11 UNL     1      25.017  50.862  -0.981  1.00  0.00     0.000 C 
HETATM   21  C12 UNL     1      26.203  51.066  -1.867  1.00  0.00     0.000 C 
HETATM   22  C13 UNL     1      27.220  49.958  -1.715  1.00  0.00     0.005 C 
ENDBRANCH  16  17
ENDBRANCH  13  16
ENDBRANCH   7  12
ENDBRANCH   5   7
ENDBRANCH   1   5
BRANCH   3  23
HETATM   23  C16 UNL     1      31.688  43.702   3.194  1.00  0.00     0.089 C 
HETATM   24  C17 UNL     1      32.294  43.623   4.548  1.00  0.00     0.029 C 
HETATM   25  C18 UNL     1      31.646  42.591   5.411  1.00  0.00     0.036 C 
HETATM   26  C19 UNL     1      30.971  41.531   4.637  1.00  0.00    -0.076 C 
HETATM   27  C20 UNL     1      31.095  41.399   3.329  1.00  0.00    -0.065 C 
HETATM   28  C29 UNL     1      30.113  40.577   5.427  1.00  0.00     0.036 C 
HETATM   29  C21 UNL     1      31.941  42.329   2.542  1.00  0.00     0.060 C 
HETATM   30  C22 UNL     1      30.342  40.268   2.693  1.00  0.00     0.001 C 
HETATM   31  C23 UNL     1      30.245  40.574   1.198  1.00  0.00     0.022 C 
HETATM   32  C24 UNL     1      31.042  38.971   2.865  1.00  0.00     0.025 C 
HETATM   33  C27 UNL     1      28.937  40.305   3.224  1.00  0.00     0.097 C 
HETATM   34  C25 UNL     1      30.167  37.798   3.133  1.00  0.00     0.104 C 
HETATM   35  C26 UNL     1      28.791  37.941   2.588  1.00  0.00     0.217 C 
HETATM   36  O4  UNL     1      28.148  36.960   2.098  1.00  0.00    -0.274 OA
HETATM   37  N3  UNL     1      28.187  39.221   2.622  1.00  0.00    -0.355 N 
ATOM     38  H3  UNL     1      27.256  39.375   2.235  1.00  0.00     0.162 HD
HETATM   39  C28 UNL     1      28.843  40.210   4.705  1.00  0.00     0.030 C 
ENDBRANCH   3  23
TORSDOF 8
ENDMDL
MODEL 5
REMARK VINA RESULT: -10.269225128      2.001      3.052
REMARK  8 active torsions:
REMARK  status: ('A' for Active; 'I' for Inactive)
REMARK    1  A    between atoms: C2_2  and  C3_3 
REMARK    2  A    between atoms: C3_3  and  C4_4 
REMARK    3  A    between atoms: C3_3  and  N1_6 
REMARK    4  A    between atoms: C3_3  and  C14_17 
REMARK       I    between atoms: N1_6  and  C6_8 
REMARK    5  A    between atoms: C6_8  and  C7_10 
REMARK    6  A    between atoms: C7_10  and  C8_11 
REMARK    7  A    between atoms: C14_17  and  C15_19 
REMARK       I    between atoms: C15_19  and  N2_21 
REMARK    8  A    between atoms: N2_21  and  C16_23 
ROOT
HETATM    1  C15 UNL     1      31.058  45.272   1.118  1.00  0.00     0.290 C 
HETATM    2  O3  UNL     1      30.065  45.527   1.839  1.00  0.00    -0.264 OA
HETATM    3  N2  UNL     1      31.746  44.062   1.430  1.00  0.00    -0.349 N 
ATOM      4  H2  UNL     1      32.561  43.811   0.869  1.00  0.00     0.163 HD
ENDROOT
BRANCH   1   5
HETATM    5  C14 UNL     1      31.538  46.098   0.026  1.00  0.00     0.244 C 
HETATM    6  O2  UNL     1      31.887  45.512  -1.039  1.00  0.00    -0.284 OA
BRANCH   5   7
HETATM    7  C3  UNL     1      31.639  47.565   0.093  1.00  0.00     0.102 C 
BRANCH   7   8
HETATM    8  C2  UNL     1      32.207  48.127  -1.171  1.00  0.00     0.035 C 
HETATM    9  C1  UNL     1      33.702  48.441  -1.006  1.00  0.00     0.008 C 
ENDBRANCH   7   8
BRANCH   7  10
HETATM   10  C4  UNL     1      32.564  47.933   1.273  1.00  0.00     0.035 C 
HETATM   11  C5  UNL     1      31.936  49.044   2.052  1.00  0.00     0.008 C 
ENDBRANCH   7  10
BRANCH   7  12
HETATM   12  N1  UNL     1      30.326  48.115   0.392  1.00  0.00    -0.344 N 
HETATM   13  C6  UNL     1      29.144  47.804  -0.328  1.00  0.00     0.218 C 
HETATM   14  O1  UNL     1      29.155  47.014  -1.292  1.00  0.00    -0.274 OA
ATOM     15  H1  UNL     1      30.250  48.769   1.172  1.00  0.00     0.163 HD
BRANCH  13  16
HETATM   16  C7  UNL     1      27.867  48.428   0.070  1.00  0.00     0.107 C 
BRANCH  16  17
HETATM   17  C8  UNL     1      27.828  49.850  -0.372  1.00  0.00    -0.006 C 
HETATM   18  C9  UNL     1      27.033  50.724   0.581  1.00  0.00     0.005 C 
HETATM   19  C10 UNL     1      25.551  50.453   0.475  1.00  0.00     0.000 C 
HETATM   20  C11 UNL     1      25.109  50.779  -0.927  1.00  0.00     0.000 C 
HETATM   21  C12 UNL     1      26.253  51.021  -1.857  1.00  0.00     0.000 C 
HETATM   22  C13 UNL     1      27.292  49.926  -1.775  1.00  0.00     0.005 C 
ENDBRANCH  16  17
ENDBRANCH  13  16
ENDBRANCH   7  12
ENDBRANCH   5   7
ENDBRANCH   1   5
BRANCH   3  23
HETATM   23  C16 UNL     1      31.351  43.177   2.495  1.00  0.00     0.089 C 
HETATM   24  C17 UNL     1      32.099  43.393   3.761  1.00  0.00     0.029 C 
HETATM   25  C18 UNL     1      31.576  42.566   4.888  1.00  0.00     0.036 C 
HETATM   26  C19 UNL     1      30.854  41.360   4.434  1.00  0.00    -0.076 C 
HETATM   27  C20 UNL     1      30.844  40.952   3.179  1.00  0.00    -0.065 C 
HETATM   28  C29 UNL     1      30.112  40.592   5.497  1.00  0.00     0.036 C 
HETATM   29  C21 UNL     1      31.575  41.698   2.125  1.00  0.00     0.060 C 
HETATM   30  C22 UNL     1      30.063  39.707   2.883  1.00  0.00     0.001 C 
HETATM   31  C23 UNL     1      29.800  39.686   1.376  1.00  0.00     0.022 C 
HETATM   32  C24 UNL     1      30.814  38.481   3.248  1.00  0.00     0.025 C 
HETATM   33  C27 UNL     1      28.720  39.848   3.543  1.00  0.00     0.097 C 
HETATM   34  C25 UNL     1      30.007  37.388   3.853  1.00  0.00     0.104 C 
HETATM   35  C26 UNL     1      28.579  37.402   3.443  1.00  0.00     0.217 C 
HETATM   36  O4  UNL     1      27.916  36.334   3.245  1.00  0.00    -0.274 OA
HETATM   37  N3  UNL     1      27.943  38.655   3.270  1.00  0.00    -0.355 N 
ATOM     38  H3  UNL     1      26.973  38.717   2.963  1.00  0.00     0.162 HD
HETATM   39  C28 UNL     1      28.786  40.071   5.012  1.00  0.00     0.030 C 
ENDBRANCH   3  23
TORSDOF 8
ENDMDL
