MODEL 1
REMARK VINA RESULT: -8.053597805      0.000      0.000
REMARK  12 active torsions:
REMARK  status: ('A' for Active; 'I' for Inactive)
REMARK    1  A    between atoms: C2_2  and  C3_3 
REMARK       I    between atoms: C3_3  and  N1_5 
REMARK    2  A    between atoms: N1_5  and  C4_6 
REMARK    3  A    between atoms: N1_5  and  C8_10 
REMARK    4  A    between atoms: C4_6  and  C5_7 
REMARK    5  A    between atoms: C5_7  and  C6_8 
REMARK    6  A    between atoms: C8_10  and  O2_11 
REMARK    7  A    between atoms: C8_10  and  C9_13 
REMARK    8  A    between atoms: C9_13  and  O3_14 
REMARK    9  A    between atoms: C17_23  and  O4_24 
REMARK   10  A    between atoms: C25_33  and  C26_34 
REMARK   11  A    between atoms: C26_34  and  C27_35 
REMARK   12  A    between atoms: C27_35  and  C28_36 
ROOT
HETATM    1  C9  UNL     1      28.989  44.492   0.918  1.00  0.00     0.123 C 
HETATM    2  C10 UNL     1      28.649  43.444   2.000  1.00  0.00     0.052 C 
HETATM    3  C11 UNL     1      29.938  43.031   2.592  1.00  0.00     0.002 C 
HETATM    4  C12 UNL     1      30.010  41.568   2.954  1.00  0.00    -0.005 C 
HETATM    5  C13 UNL     1      28.981  41.185   3.995  1.00  0.00     0.006 C 
HETATM    6  C14 UNL     1      29.316  39.779   4.462  1.00  0.00     0.006 C 
HETATM    7  C15 UNL     1      30.153  39.020   3.486  1.00  0.00    -0.004 C 
HETATM    8  C16 UNL     1      30.125  37.556   3.866  1.00  0.00     0.037 C 
HETATM    9  C17 UNL     1      30.761  36.676   2.825  1.00  0.00     0.118 C 
HETATM   10  C18 UNL     1      30.248  36.950   1.440  1.00  0.00     0.032 C 
HETATM   11  C19 UNL     1      30.489  38.406   1.101  1.00  0.00     0.012 C 
HETATM   12  C20 UNL     1      29.706  39.259   2.066  1.00  0.00    -0.036 C 
HETATM   13  C21 UNL     1      28.239  38.935   1.880  1.00  0.00     0.016 C 
HETATM   14  C22 UNL     1      29.928  40.696   1.731  1.00  0.00    -0.002 C 
HETATM   15  C23 UNL     1      31.238  40.941   0.971  1.00  0.00     0.006 C 
HETATM   16  C24 UNL     1      31.214  42.361   0.524  1.00  0.00     0.010 C 
HETATM   17  C25 UNL     1      31.034  43.368   1.648  1.00  0.00    -0.033 C 
HETATM   18  C29 UNL     1      30.531  44.629   0.999  1.00  0.00     0.056 C 
ENDROOT
BRANCH   1  19
HETATM   19  C8  UNL     1      28.464  45.794   1.276  1.00  0.00     0.156 C 
BRANCH  19  20
HETATM   20  N1  UNL     1      28.726  47.103   0.897  1.00  0.00    -0.296 N 
HETATM   21  C3  UNL     1      28.659  47.648  -0.369  1.00  0.00     0.248 C 
HETATM   22  O1  UNL     1      28.334  47.004  -1.386  1.00  0.00    -0.268 OA
BRANCH  21  23
HETATM   23  C2  UNL     1      28.982  49.077  -0.604  1.00  0.00     0.064 C 
HETATM   24  C1  UNL     1      28.046  49.893  -1.104  1.00  0.00     0.017 C 
ENDBRANCH  21  23
BRANCH  20  25
HETATM   25  C4  UNL     1      29.096  48.061   1.982  1.00  0.00     0.134 C 
BRANCH  25  26
HETATM   26  C5  UNL     1      30.431  47.772   2.558  1.00  0.00     0.020 C 
BRANCH  26  27
HETATM   27  C6  UNL     1      31.496  48.549   1.818  1.00  0.00    -0.003 C 
HETATM   28  C7  UNL     1      32.640  47.688   1.355  1.00  0.00     0.005 C 
ENDBRANCH  26  27
ENDBRANCH  25  26
ENDBRANCH  20  25
ENDBRANCH  19  20
BRANCH  19  29
HETATM   29  O2  UNL     1      27.489  45.715   2.194  1.00  0.00    -0.347 OA
ATOM     30  H2  UNL     1      27.496  44.886   2.658  1.00  0.00     0.219 HD
ENDBRANCH  19  29
ENDBRANCH   1  19
BRANCH   1  31
HETATM   31  O3  UNL     1      28.625  44.029  -0.312  1.00  0.00    -0.381 OA
ATOM     32  H3  UNL     1      29.341  43.851  -0.911  1.00  0.00     0.211 HD
ENDBRANCH   1  31
BRANCH  17  33
HETATM   33  C26 UNL     1      32.354  43.535   2.342  1.00  0.00     0.020 C 
BRANCH  33  34
HETATM   34  C27 UNL     1      32.334  44.348   3.598  1.00  0.00     0.114 C 
BRANCH  34  35
HETATM   35  C28 UNL     1      32.785  43.461   4.722  1.00  0.00     0.172 C 
HETATM   36  O5  UNL     1      33.947  43.003   4.669  1.00  0.00    -0.648 OA
HETATM   37  O6  UNL     1      31.915  43.190   5.755  1.00  0.00    -0.648 OA
ENDBRANCH  34  35
ENDBRANCH  33  34
ENDBRANCH  17  33
BRANCH   9  38
HETATM   38  O4  UNL     1      30.470  35.350   3.140  1.00  0.00    -0.396 OA
ATOM     39  H4  UNL     1      31.167  34.804   2.796  1.00  0.00     0.210 HD
ENDBRANCH   9  38
TORSDOF 12
ENDMDL
MODEL 2
REMARK VINA RESULT: -8.041431541      1.739      2.393
REMARK  12 active torsions:
REMARK  status: ('A' for Active; 'I' for Inactive)
REMARK    1  A    between atoms: C2_2  and  C3_3 
REMARK       I    between atoms: C3_3  and  N1_5 
REMARK    2  A    between atoms: N1_5  and  C4_6 
REMARK    3  A    between atoms: N1_5  and  C8_10 
REMARK    4  A    between atoms: C4_6  and  C5_7 
REMARK    5  A    between atoms: C5_7  and  C6_8 
REMARK    6  A    between atoms: C8_10  and  O2_11 
REMARK    7  A    between atoms: C8_10  and  C9_13 
REMARK    8  A    between atoms: C9_13  and  O3_14 
REMARK    9  A    between atoms: C17_23  and  O4_24 
REMARK   10  A    between atoms: C25_33  and  C26_34 
REMARK   11  A    between atoms: C26_34  and  C27_35 
REMARK   12  A    between atoms: C27_35  and  C28_36 
ROOT
HETATM    1  C9  UNL     1      30.226  46.423   1.214  1.00  0.00     0.123 C 
HETATM    2  C10 UNL     1      29.190  45.284   1.329  1.00  0.00     0.052 C 
HETATM    3  C11 UNL     1      29.631  44.440   2.459  1.00  0.00     0.002 C 
HETATM    4  C12 UNL     1      29.398  42.963   2.254  1.00  0.00    -0.005 C 
HETATM    5  C13 UNL     1      27.931  42.633   2.090  1.00  0.00     0.006 C 
HETATM    6  C14 UNL     1      27.801  41.121   2.152  1.00  0.00     0.006 C 
HETATM    7  C15 UNL     1      29.078  40.409   1.845  1.00  0.00    -0.004 C 
HETATM    8  C16 UNL     1      28.764  38.952   1.582  1.00  0.00     0.037 C 
HETATM    9  C17 UNL     1      29.949  38.192   1.054  1.00  0.00     0.118 C 
HETATM   10  C18 UNL     1      30.616  38.883  -0.100  1.00  0.00     0.032 C 
HETATM   11  C19 UNL     1      31.045  40.269   0.333  1.00  0.00     0.012 C 
HETATM   12  C20 UNL     1      29.815  41.058   0.702  1.00  0.00    -0.036 C 
HETATM   13  C21 UNL     1      28.948  41.163  -0.535  1.00  0.00     0.016 C 
HETATM   14  C22 UNL     1      30.228  42.431   1.117  1.00  0.00    -0.002 C 
HETATM   15  C23 UNL     1      31.679  42.499   1.610  1.00  0.00     0.006 C 
HETATM   16  C24 UNL     1      32.006  43.942   1.778  1.00  0.00     0.010 C 
HETATM   17  C25 UNL     1      31.072  44.689   2.717  1.00  0.00    -0.033 C 
HETATM   18  C29 UNL     1      31.219  46.147   2.373  1.00  0.00     0.056 C 
ENDROOT
BRANCH   1  19
HETATM   19  C8  UNL     1      29.622  47.705   1.519  1.00  0.00     0.156 C 
BRANCH  19  20
HETATM   20  N1  UNL     1      29.139  48.772   0.775  1.00  0.00    -0.296 N 
HETATM   21  C3  UNL     1      28.440  48.728  -0.414  1.00  0.00     0.248 C 
HETATM   22  O1  UNL     1      28.132  47.671  -1.000  1.00  0.00    -0.268 OA
BRANCH  21  23
HETATM   23  C2  UNL     1      28.000  49.974  -1.088  1.00  0.00     0.064 C 
HETATM   24  C1  UNL     1      26.697  50.279  -1.130  1.00  0.00     0.017 C 
ENDBRANCH  21  23
BRANCH  20  25
HETATM   25  C4  UNL     1      29.366  50.141   1.328  1.00  0.00     0.134 C 
BRANCH  25  26
HETATM   26  C5  UNL     1      30.801  50.511   1.346  1.00  0.00     0.020 C 
BRANCH  26  27
HETATM   27  C6  UNL     1      31.069  51.603   0.335  1.00  0.00    -0.003 C 
HETATM   28  C7  UNL     1      31.750  51.099  -0.910  1.00  0.00     0.005 C 
ENDBRANCH  26  27
ENDBRANCH  25  26
ENDBRANCH  20  25
ENDBRANCH  19  20
BRANCH  19  29
HETATM   29  O2  UNL     1      29.500  47.907   2.840  1.00  0.00    -0.347 OA
ATOM     30  H2  UNL     1      30.013  47.292   3.349  1.00  0.00     0.219 HD
ENDBRANCH  19  29
ENDBRANCH   1  19
BRANCH   1  31
HETATM   31  O3  UNL     1      30.873  46.349   0.016  1.00  0.00    -0.381 OA
ATOM     32  H3  UNL     1      30.442  45.826  -0.650  1.00  0.00     0.211 HD
ENDBRANCH   1  31
BRANCH  17  33
HETATM   33  C26 UNL     1      31.466  44.363   4.127  1.00  0.00     0.020 C 
BRANCH  33  34
HETATM   34  C27 UNL     1      32.919  44.090   4.354  1.00  0.00     0.114 C 
BRANCH  34  35
HETATM   35  C28 UNL     1      33.136  43.974   5.835  1.00  0.00     0.172 C 
HETATM   36  O5  UNL     1      32.125  43.974   6.570  1.00  0.00    -0.648 OA
HETATM   37  O6  UNL     1      34.421  43.873   6.320  1.00  0.00    -0.648 OA
ENDBRANCH  34  35
ENDBRANCH  33  34
ENDBRANCH  17  33
BRANCH   9  38
HETATM   38  O4  UNL     1      29.505  36.945   0.615  1.00  0.00    -0.396 OA
ATOM     39  H4  UNL     1      30.207  36.319   0.744  1.00  0.00     0.210 HD
ENDBRANCH   9  38
TORSDOF 12
ENDMDL
MODEL 3
REMARK VINA RESULT: -7.972733489      1.763      2.896
REMARK  12 active torsions:
REMARK  status: ('A' for Active; 'I' for Inactive)
REMARK    1  A    between atoms: C2_2  and  C3_3 
REMARK       I    between atoms: C3_3  and  N1_5 
REMARK    2  A    between atoms: N1_5  and  C4_6 
REMARK    3  A    between atoms: N1_5  and  C8_10 
REMARK    4  A    between atoms: C4_6  and  C5_7 
REMARK    5  A    between atoms: C5_7  and  C6_8 
REMARK    6  A    between atoms: C8_10  and  O2_11 
REMARK    7  A    between atoms: C8_10  and  C9_13 
REMARK    8  A    between atoms: C9_13  and  O3_14 
REMARK    9  A    between atoms: C17_23  and  O4_24 
REMARK   10  A    between atoms: C25_33  and  C26_34 
REMARK   11  A    between atoms: C26_34  and  C27_35 
REMARK   12  A    between atoms: C27_35  and  C28_36 
ROOT
HETATM    1  C9  UNL     1      29.443  46.147   0.675  1.00  0.00     0.123 C 
HETATM    2  C10 UNL     1      28.717  44.913   1.254  1.00  0.00     0.052 C 
HETATM    3  C11 UNL     1      29.682  44.256   2.160  1.00  0.00     0.002 C 
HETATM    4  C12 UNL     1      29.615  42.749   2.145  1.00  0.00    -0.005 C 
HETATM    5  C13 UNL     1      28.267  42.232   2.595  1.00  0.00     0.006 C 
HETATM    6  C14 UNL     1      28.403  40.731   2.786  1.00  0.00     0.006 C 
HETATM    7  C15 UNL     1      29.554  40.146   2.037  1.00  0.00    -0.004 C 
HETATM    8  C16 UNL     1      29.388  38.642   2.000  1.00  0.00     0.037 C 
HETATM    9  C17 UNL     1      30.379  37.973   1.087  1.00  0.00     0.118 C 
HETATM   10  C18 UNL     1      30.436  38.607  -0.273  1.00  0.00     0.032 C 
HETATM   11  C19 UNL     1      30.783  40.074  -0.122  1.00  0.00     0.012 C 
HETATM   12  C20 UNL     1      29.686  40.748   0.661  1.00  0.00    -0.036 C 
HETATM   13  C21 UNL     1      28.404  40.613  -0.133  1.00  0.00     0.016 C 
HETATM   14  C22 UNL     1      30.013  42.197   0.803  1.00  0.00    -0.002 C 
HETATM   15  C23 UNL     1      31.513  42.490   0.674  1.00  0.00     0.006 C 
HETATM   16  C24 UNL     1      31.657  43.971   0.620  1.00  0.00     0.010 C 
HETATM   17  C25 UNL     1      31.055  44.701   1.810  1.00  0.00    -0.033 C 
HETATM   18  C29 UNL     1      30.835  46.120   1.357  1.00  0.00     0.056 C 
ENDROOT
BRANCH   1  19
HETATM   19  C8  UNL     1      28.816  47.374   1.125  1.00  0.00     0.156 C 
BRANCH  19  20
HETATM   20  N1  UNL     1      28.954  48.722   0.825  1.00  0.00    -0.296 N 
HETATM   21  C3  UNL     1      29.766  49.648   1.446  1.00  0.00     0.248 C 
HETATM   22  O1  UNL     1      30.523  49.380   2.399  1.00  0.00    -0.268 OA
BRANCH  21  23
HETATM   23  C2  UNL     1      29.789  51.064   1.002  1.00  0.00     0.064 C 
HETATM   24  C1  UNL     1      30.959  51.706   0.894  1.00  0.00     0.017 C 
ENDBRANCH  21  23
BRANCH  20  25
HETATM   25  C4  UNL     1      28.158  49.245  -0.326  1.00  0.00     0.134 C 
BRANCH  25  26
HETATM   26  C5  UNL     1      26.771  49.596   0.061  1.00  0.00     0.020 C 
BRANCH  26  27
HETATM   27  C6  UNL     1      26.170  50.540  -0.955  1.00  0.00    -0.003 C 
HETATM   28  C7  UNL     1      24.802  51.033  -0.565  1.00  0.00     0.005 C 
ENDBRANCH  26  27
ENDBRANCH  25  26
ENDBRANCH  20  25
ENDBRANCH  19  20
BRANCH  19  29
HETATM   29  O2  UNL     1      27.873  47.152   2.054  1.00  0.00    -0.347 OA
ATOM     30  H2  UNL     1      27.010  47.041   1.674  1.00  0.00     0.219 HD
ENDBRANCH  19  29
ENDBRANCH   1  19
BRANCH   1  31
HETATM   31  O3  UNL     1      29.581  46.019  -0.676  1.00  0.00    -0.381 OA
ATOM     32  H3  UNL     1      30.470  45.887  -0.985  1.00  0.00     0.211 HD
ENDBRANCH   1  31
BRANCH  17  33
HETATM   33  C26 UNL     1      32.007  44.580   2.964  1.00  0.00     0.020 C 
BRANCH  33  34
HETATM   34  C27 UNL     1      31.381  44.446   4.316  1.00  0.00     0.114 C 
BRANCH  34  35
HETATM   35  C28 UNL     1      32.044  43.295   5.015  1.00  0.00     0.172 C 
HETATM   36  O5  UNL     1      31.321  42.340   5.373  1.00  0.00    -0.648 OA
HETATM   37  O6  UNL     1      33.403  43.334   5.231  1.00  0.00    -0.648 OA
ENDBRANCH  34  35
ENDBRANCH  33  34
ENDBRANCH  17  33
BRANCH   9  38
HETATM   38  O4  UNL     1      29.995  36.643   0.928  1.00  0.00    -0.396 OA
ATOM     39  H4  UNL     1      29.651  36.536   0.049  1.00  0.00     0.210 HD
ENDBRANCH   9  38
TORSDOF 12
ENDMDL
MODEL 4
REMARK VINA RESULT: -7.760026153      1.220      1.574
REMARK  12 active torsions:
REMARK  status: ('A' for Active; 'I' for Inactive)
REMARK    1  A    between atoms: C2_2  and  C3_3 
REMARK       I    between atoms: C3_3  and  N1_5 
REMARK    2  A    between atoms: N1_5  and  C4_6 
REMARK    3  A    between atoms: N1_5  and  C8_10 
REMARK    4  A    between atoms: C4_6  and  C5_7 
REMARK    5  A    between atoms: C5_7  and  C6_8 
REMARK    6  A    between atoms: C8_10  and  O2_11 
REMARK    7  A    between atoms: C8_10  and  C9_13 
REMARK    8  A    between atoms: C9_13  and  O3_14 
REMARK    9  A    between atoms: C17_23  and  O4_24 
REMARK   10  A    between atoms: C25_33  and  C26_34 
REMARK   11  A    between atoms: C26_34  and  C27_35 
REMARK   12  A    between atoms: C27_35  and  C28_36 
ROOT
HETATM    1  C9  UNL     1      29.639  45.308   1.075  1.00  0.00     0.123 C 
HETATM    2  C10 UNL     1      28.990  43.935   1.357  1.00  0.00     0.052 C 
HETATM    3  C11 UNL     1      29.657  43.406   2.565  1.00  0.00     0.002 C 
HETATM    4  C12 UNL     1      29.877  41.913   2.544  1.00  0.00    -0.005 C 
HETATM    5  C13 UNL     1      28.576  41.145   2.467  1.00  0.00     0.006 C 
HETATM    6  C14 UNL     1      28.904  39.682   2.713  1.00  0.00     0.006 C 
HETATM    7  C15 UNL     1      30.336  39.350   2.452  1.00  0.00    -0.004 C 
HETATM    8  C16 UNL     1      30.473  37.844   2.374  1.00  0.00     0.037 C 
HETATM    9  C17 UNL     1      31.834  37.412   1.904  1.00  0.00     0.118 C 
HETATM   10  C18 UNL     1      32.271  38.122   0.655  1.00  0.00     0.032 C 
HETATM   11  C19 UNL     1      32.264  39.615   0.906  1.00  0.00     0.012 C 
HETATM   12  C20 UNL     1      30.852  40.043   1.217  1.00  0.00    -0.036 C 
HETATM   13  C21 UNL     1      30.001  39.732   0.005  1.00  0.00     0.016 C 
HETATM   14  C22 UNL     1      30.834  41.516   1.453  1.00  0.00    -0.002 C 
HETATM   15  C23 UNL     1      32.196  42.072   1.889  1.00  0.00     0.006 C 
HETATM   16  C24 UNL     1      32.076  43.557   1.874  1.00  0.00     0.010 C 
HETATM   17  C25 UNL     1      30.956  44.102   2.746  1.00  0.00    -0.033 C 
HETATM   18  C29 UNL     1      30.663  45.484   2.226  1.00  0.00     0.056 C 
ENDROOT
BRANCH   1  19
HETATM   19  C8  UNL     1      28.678  46.379   1.244  1.00  0.00     0.156 C 
BRANCH  19  20
HETATM   20  N1  UNL     1      28.538  47.669   0.751  1.00  0.00    -0.296 N 
HETATM   21  C3  UNL     1      28.444  48.066  -0.566  1.00  0.00     0.248 C 
HETATM   22  O1  UNL     1      28.467  47.278  -1.533  1.00  0.00    -0.268 OA
BRANCH  21  23
HETATM   23  C2  UNL     1      28.305  49.499  -0.925  1.00  0.00     0.064 C 
HETATM   24  C1  UNL     1      27.333  49.881  -1.762  1.00  0.00     0.017 C 
ENDBRANCH  21  23
BRANCH  20  25
HETATM   25  C4  UNL     1      28.446  48.771   1.755  1.00  0.00     0.134 C 
BRANCH  25  26
HETATM   26  C5  UNL     1      29.681  48.902   2.564  1.00  0.00     0.020 C 
BRANCH  26  27
HETATM   27  C6  UNL     1      30.660  49.824   1.874  1.00  0.00    -0.003 C 
HETATM   28  C7  UNL     1      31.967  49.155   1.544  1.00  0.00     0.005 C 
ENDBRANCH  26  27
ENDBRANCH  25  26
ENDBRANCH  20  25
ENDBRANCH  19  20
BRANCH  19  29
HETATM   29  O2  UNL     1      27.683  46.042   2.079  1.00  0.00    -0.347 OA
ATOM     30  H2  UNL     1      27.968  46.000   2.983  1.00  0.00     0.219 HD
ENDBRANCH  19  29
ENDBRANCH   1  19
BRANCH   1  31
HETATM   31  O3  UNL     1      30.286  45.283  -0.126  1.00  0.00    -0.381 OA
ATOM     32  H3  UNL     1      30.716  44.464  -0.341  1.00  0.00     0.211 HD
ENDBRANCH   1  31
BRANCH  17  33
HETATM   33  C26 UNL     1      31.422  44.083   4.172  1.00  0.00     0.020 C 
BRANCH  33  34
HETATM   34  C27 UNL     1      32.891  44.264   4.383  1.00  0.00     0.114 C 
BRANCH  34  35
HETATM   35  C28 UNL     1      33.183  43.984   5.829  1.00  0.00     0.172 C 
HETATM   36  O5  UNL     1      32.237  44.080   6.640  1.00  0.00    -0.648 OA
HETATM   37  O6  UNL     1      34.463  43.637   6.201  1.00  0.00    -0.648 OA
ENDBRANCH  34  35
ENDBRANCH  33  34
ENDBRANCH  17  33
BRANCH   9  38
HETATM   38  O4  UNL     1      31.786  36.046   1.630  1.00  0.00    -0.396 OA
ATOM     39  H4  UNL     1      32.092  35.578   2.398  1.00  0.00     0.210 HD
ENDBRANCH   9  38
TORSDOF 12
ENDMDL
MODEL 5
REMARK VINA RESULT: -7.528296066      1.706      2.476
REMARK  12 active torsions:
REMARK  status: ('A' for Active; 'I' for Inactive)
REMARK    1  A    between atoms: C2_2  and  C3_3 
REMARK       I    between atoms: C3_3  and  N1_5 
REMARK    2  A    between atoms: N1_5  and  C4_6 
REMARK    3  A    between atoms: N1_5  and  C8_10 
REMARK    4  A    between atoms: C4_6  and  C5_7 
REMARK    5  A    between atoms: C5_7  and  C6_8 
REMARK    6  A    between atoms: C8_10  and  O2_11 
REMARK    7  A    between atoms: C8_10  and  C9_13 
REMARK    8  A    between atoms: C9_13  and  O3_14 
REMARK    9  A    between atoms: C17_23  and  O4_24 
REMARK   10  A    between atoms: C25_33  and  C26_34 
REMARK   11  A    between atoms: C26_34  and  C27_35 
REMARK   12  A    between atoms: C27_35  and  C28_36 
ROOT
HETATM    1  C9  UNL     1      31.014  46.209   0.157  1.00  0.00     0.123 C 
HETATM    2  C10 UNL     1      29.806  45.283   0.418  1.00  0.00     0.052 C 
HETATM    3  C11 UNL     1      29.996  44.733   1.776  1.00  0.00     0.002 C 
HETATM    4  C12 UNL     1      29.556  43.298   1.928  1.00  0.00    -0.005 C 
HETATM    5  C13 UNL     1      28.079  43.120   1.655  1.00  0.00     0.006 C 
HETATM    6  C14 UNL     1      27.708  41.712   2.086  1.00  0.00     0.006 C 
HETATM    7  C15 UNL     1      28.881  40.790   2.150  1.00  0.00    -0.004 C 
HETATM    8  C16 UNL     1      28.370  39.368   2.230  1.00  0.00     0.037 C 
HETATM    9  C17 UNL     1      29.468  38.350   2.083  1.00  0.00     0.118 C 
HETATM   10  C18 UNL     1      30.345  38.610   0.893  1.00  0.00     0.032 C 
HETATM   11  C19 UNL     1      30.942  39.997   1.009  1.00  0.00     0.012 C 
HETATM   12  C20 UNL     1      29.820  41.004   0.990  1.00  0.00    -0.036 C 
HETATM   13  C21 UNL     1      29.107  40.872  -0.339  1.00  0.00     0.016 C 
HETATM   14  C22 UNL     1      30.400  42.375   1.091  1.00  0.00    -0.002 C 
HETATM   15  C23 UNL     1      31.788  42.395   1.744  1.00  0.00     0.006 C 
HETATM   16  C24 UNL     1      32.319  43.776   1.579  1.00  0.00     0.010 C 
HETATM   17  C25 UNL     1      31.426  44.862   2.156  1.00  0.00    -0.033 C 
HETATM   18  C29 UNL     1      31.833  46.140   1.472  1.00  0.00     0.056 C 
ENDROOT
BRANCH   1  19
HETATM   19  C8  UNL     1      30.591  47.590   0.036  1.00  0.00     0.156 C 
BRANCH  19  20
HETATM   20  N1  UNL     1      29.503  48.332   0.472  1.00  0.00    -0.296 N 
HETATM   21  C3  UNL     1      28.321  48.575  -0.198  1.00  0.00     0.248 C 
HETATM   22  O1  UNL     1      28.063  48.133  -1.334  1.00  0.00    -0.268 OA
BRANCH  21  23
HETATM   23  C2  UNL     1      27.252  49.403   0.414  1.00  0.00     0.064 C 
HETATM   24  C1  UNL     1      26.829  50.507  -0.214  1.00  0.00     0.017 C 
ENDBRANCH  21  23
BRANCH  20  25
HETATM   25  C4  UNL     1      29.589  48.921   1.842  1.00  0.00     0.134 C 
BRANCH  25  26
HETATM   26  C5  UNL     1      30.705  49.888   1.970  1.00  0.00     0.020 C 
BRANCH  26  27
HETATM   27  C6  UNL     1      30.381  51.159   1.220  1.00  0.00    -0.003 C 
HETATM   28  C7  UNL     1      31.544  51.685   0.421  1.00  0.00     0.005 C 
ENDBRANCH  26  27
ENDBRANCH  25  26
ENDBRANCH  20  25
ENDBRANCH  19  20
BRANCH  19  29
HETATM   29  O2  UNL     1      31.464  48.329  -0.665  1.00  0.00    -0.347 OA
ATOM     30  H2  UNL     1      31.043  49.045  -1.126  1.00  0.00     0.219 HD
ENDBRANCH  19  29
ENDBRANCH   1  19
BRANCH   1  31
HETATM   31  O3  UNL     1      31.757  45.729  -0.881  1.00  0.00    -0.381 OA
ATOM     32  H3  UNL     1      31.437  45.949  -1.749  1.00  0.00     0.211 HD
ENDBRANCH   1  31
BRANCH  17  33
HETATM   33  C26 UNL     1      31.622  44.888   3.644  1.00  0.00     0.020 C 
BRANCH  33  34
HETATM   34  C27 UNL     1      32.701  44.000   4.177  1.00  0.00     0.114 C 
BRANCH  34  35
HETATM   35  C28 UNL     1      32.202  43.394   5.456  1.00  0.00     0.172 C 
HETATM   36  O5  UNL     1      31.476  42.379   5.372  1.00  0.00    -0.648 OA
HETATM   37  O6  UNL     1      32.558  43.969   6.656  1.00  0.00    -0.648 OA
ENDBRANCH  34  35
ENDBRANCH  33  34
ENDBRANCH  17  33
BRANCH   9  38
HETATM   38  O4  UNL     1      28.880  37.097   1.922  1.00  0.00    -0.396 OA
ATOM     39  H4  UNL     1      27.974  37.156   2.202  1.00  0.00     0.210 HD
ENDBRANCH   9  38
TORSDOF 12
ENDMDL
