MODEL 1
REMARK VINA RESULT: -10.471541479      0.000      0.000
REMARK  9 active torsions:
REMARK  status: ('A' for Active; 'I' for Inactive)
REMARK    1  A    between atoms: C2_2  and  C4_4 
REMARK    2  A    between atoms: C4_4  and  C5_5 
REMARK    3  A    between atoms: C5_5  and  N1_6 
REMARK       I    between atoms: N1_6  and  C6_8 
REMARK       I    between atoms: C6_8  and  N2_10 
REMARK    4  A    between atoms: N2_10  and  C7_12 
REMARK    5  A    between atoms: C7_12  and  C8_13 
REMARK    6  A    between atoms: C15_20  and  N3_21 
REMARK       I    between atoms: N3_21  and  C16_23 
REMARK    7  A    between atoms: C16_23  and  C17_25 
REMARK       I    between atoms: N4_28  and  C20_29 
REMARK    8  A    between atoms: C20_29  and  O4_31 
REMARK    9  A    between atoms: O4_31  and  C21_32 
ROOT
HETATM    1  C8  UNL     1      28.453  49.757  -0.311  1.00  0.00    -0.005 C 
HETATM    2  C9  UNL     1      27.989  50.189   1.011  1.00  0.00     0.019 C 
HETATM    3  C10 UNL     1      29.006  49.781   2.089  1.00  0.00    -0.011 C 
HETATM    4  C11 UNL     1      30.329  50.412   1.836  1.00  0.00     0.009 C 
HETATM    5  C12 UNL     1      30.801  49.956   0.463  1.00  0.00    -0.011 C 
HETATM    6  C13 UNL     1      29.836  50.391  -0.587  1.00  0.00     0.019 C 
HETATM    7  C14 UNL     1      30.976  48.462   0.507  1.00  0.00     0.035 C 
HETATM    8  C15 UNL     1      29.616  47.801   0.779  1.00  0.00     0.034 C 
HETATM    9  C27 UNL     1      29.091  48.268   2.103  1.00  0.00     0.035 C 
HETATM   10  C28 UNL     1      28.681  48.243  -0.310  1.00  0.00     0.046 C 
ENDROOT
BRANCH   8  11
HETATM   11  N3  UNL     1      29.783  46.376   0.710  1.00  0.00    -0.351 N 
HETATM   12  C16 UNL     1      28.796  45.399   0.909  1.00  0.00     0.222 C 
HETATM   13  O2  UNL     1      27.624  45.740   1.179  1.00  0.00    -0.273 OA
ATOM     14  H3  UNL     1      30.721  46.038   0.493  1.00  0.00     0.163 HD
BRANCH  12  15
HETATM   15  C17 UNL     1      29.115  43.939   0.806  1.00  0.00     0.081 C 
HETATM   16  C18 UNL     1      28.074  43.210   1.597  1.00  0.00     0.034 C 
HETATM   17  C19 UNL     1      28.563  41.802   1.885  1.00  0.00     0.129 C 
HETATM   18  N4  UNL     1      29.743  41.876   2.735  1.00  0.00    -0.328 N 
HETATM   19  C20 UNL     1      29.997  40.872   3.667  1.00  0.00     0.363 C 
HETATM   20  C25 UNL     1      30.645  43.003   2.619  1.00  0.00     0.129 C 
HETATM   21  O3  UNL     1      31.022  40.908   4.434  1.00  0.00    -0.238 OA
HETATM   22  C26 UNL     1      30.478  43.718   1.315  1.00  0.00     0.034 C 
BRANCH  19  23
HETATM   23  O4  UNL     1      29.185  39.758   3.860  1.00  0.00    -0.294 OA
BRANCH  23  24
HETATM   24  C21 UNL     1      29.393  38.519   3.231  1.00  0.00     0.061 C 
HETATM   25  C22 UNL     1      29.946  37.504   4.246  1.00  0.00     0.046 C 
HETATM   26  C23 UNL     1      28.029  37.985   2.812  1.00  0.00     0.046 C 
HETATM   27  C24 UNL     1      30.252  38.573   2.007  1.00  0.00     0.046 C 
ENDBRANCH  23  24
ENDBRANCH  19  23
ENDBRANCH  12  15
ENDBRANCH   8  11
BRANCH   1  28
HETATM   28  C7  UNL     1      27.594  50.068  -1.481  1.00  0.00     0.075 C 
BRANCH  28  29
HETATM   29  N2  UNL     1      26.299  50.588  -1.321  1.00  0.00    -0.322 N 
HETATM   30  C6  UNL     1      25.313  50.915  -2.287  1.00  0.00     0.319 C 
HETATM   31  N1  UNL     1      24.082  51.495  -1.891  1.00  0.00    -0.343 N 
HETATM   32  O1  UNL     1      25.512  50.700  -3.493  1.00  0.00    -0.247 OA
ATOM     33  H1  UNL     1      23.904  51.661  -0.901  1.00  0.00     0.164 HD
ATOM     34  H2  UNL     1      26.022  50.758  -0.353  1.00  0.00     0.169 HD
BRANCH  31  35
HETATM   35  C5  UNL     1      23.079  51.853  -2.853  1.00  0.00     0.125 C 
BRANCH  35  36
HETATM   36  C4  UNL     1      23.165  53.284  -3.227  1.00  0.00     0.023 C 
BRANCH  36  37
HETATM   37  C2  UNL     1      22.921  53.511  -4.713  1.00  0.00    -0.021 C 
HETATM   38  C1  UNL     1      21.648  54.282  -4.905  1.00  0.00     0.009 C 
HETATM   39  C3  UNL     1      23.013  52.251  -5.505  1.00  0.00     0.009 C 
ENDBRANCH  36  37
ENDBRANCH  35  36
ENDBRANCH  31  35
ENDBRANCH  28  29
ENDBRANCH   1  28
TORSDOF 9
ENDMDL
MODEL 2
REMARK VINA RESULT: -10.453871080      0.931      1.036
REMARK  9 active torsions:
REMARK  status: ('A' for Active; 'I' for Inactive)
REMARK    1  A    between atoms: C2_2  and  C4_4 
REMARK    2  A    between atoms: C4_4  and  C5_5 
REMARK    3  A    between atoms: C5_5  and  N1_6 
REMARK       I    between atoms: N1_6  and  C6_8 
REMARK       I    between atoms: C6_8  and  N2_10 
REMARK    4  A    between atoms: N2_10  and  C7_12 
REMARK    5  A    between atoms: C7_12  and  C8_13 
REMARK    6  A    between atoms: C15_20  and  N3_21 
REMARK       I    between atoms: N3_21  and  C16_23 
REMARK    7  A    between atoms: C16_23  and  C17_25 
REMARK       I    between atoms: N4_28  and  C20_29 
REMARK    8  A    between atoms: C20_29  and  O4_31 
REMARK    9  A    between atoms: O4_31  and  C21_32 
ROOT
HETATM    1  C8  UNL     1      28.266  49.491   0.450  1.00  0.00    -0.005 C 
HETATM    2  C9  UNL     1      28.440  49.917   1.842  1.00  0.00     0.019 C 
HETATM    3  C10 UNL     1      29.808  49.456   2.370  1.00  0.00    -0.011 C 
HETATM    4  C11 UNL     1      30.913  50.045   1.566  1.00  0.00     0.009 C 
HETATM    5  C12 UNL     1      30.724  49.594   0.126  1.00  0.00    -0.011 C 
HETATM    6  C13 UNL     1      29.415  50.080  -0.401  1.00  0.00     0.019 C 
HETATM    7  C14 UNL     1      30.842  48.095   0.090  1.00  0.00     0.035 C 
HETATM    8  C15 UNL     1      29.711  47.478   0.926  1.00  0.00     0.034 C 
HETATM    9  C27 UNL     1      29.832  47.941   2.346  1.00  0.00     0.035 C 
HETATM   10  C28 UNL     1      28.413  47.970   0.353  1.00  0.00     0.046 C 
ENDROOT
BRANCH   8  11
HETATM   11  N3  UNL     1      29.776  46.049   0.793  1.00  0.00    -0.351 N 
HETATM   12  C16 UNL     1      28.820  45.115   1.222  1.00  0.00     0.222 C 
HETATM   13  O2  UNL     1      27.777  45.504   1.790  1.00  0.00    -0.273 OA
ATOM     14  H3  UNL     1      30.607  45.673   0.336  1.00  0.00     0.163 HD
BRANCH  12  15
HETATM   15  C17 UNL     1      29.022  43.645   1.016  1.00  0.00     0.081 C 
HETATM   16  C18 UNL     1      27.994  42.945   1.848  1.00  0.00     0.034 C 
HETATM   17  C19 UNL     1      28.397  41.492   2.019  1.00  0.00     0.129 C 
HETATM   18  N4  UNL     1      29.641  41.433   2.774  1.00  0.00    -0.328 N 
HETATM   19  C20 UNL     1      29.890  40.360   3.627  1.00  0.00     0.363 C 
HETATM   20  C25 UNL     1      30.612  42.500   2.646  1.00  0.00     0.129 C 
HETATM   21  O3  UNL     1      30.971  40.279   4.310  1.00  0.00    -0.238 OA
HETATM   22  C26 UNL     1      30.400  43.301   1.401  1.00  0.00     0.034 C 
BRANCH  19  23
HETATM   23  O4  UNL     1      29.015  39.296   3.825  1.00  0.00    -0.294 OA
BRANCH  23  24
HETATM   24  C21 UNL     1      29.149  38.046   3.198  1.00  0.00     0.061 C 
HETATM   25  C22 UNL     1      29.844  37.056   4.147  1.00  0.00     0.046 C 
HETATM   26  C23 UNL     1      27.745  37.493   2.978  1.00  0.00     0.046 C 
HETATM   27  C24 UNL     1      29.832  38.080   1.867  1.00  0.00     0.046 C 
ENDBRANCH  23  24
ENDBRANCH  19  23
ENDBRANCH  12  15
ENDBRANCH   8  11
BRANCH   1  28
HETATM   28  C7  UNL     1      26.997  49.851  -0.231  1.00  0.00     0.075 C 
BRANCH  28  29
HETATM   29  N2  UNL     1      26.983  50.306  -1.560  1.00  0.00    -0.322 N 
HETATM   30  C6  UNL     1      25.903  50.733  -2.373  1.00  0.00     0.319 C 
HETATM   31  N1  UNL     1      26.120  51.095  -3.727  1.00  0.00    -0.343 N 
HETATM   32  O1  UNL     1      24.751  50.798  -1.916  1.00  0.00    -0.247 OA
ATOM     33  H1  UNL     1      27.066  51.058  -4.106  1.00  0.00     0.164 HD
ATOM     34  H2  UNL     1      27.897  50.332  -2.013  1.00  0.00     0.169 HD
BRANCH  31  35
HETATM   35  C5  UNL     1      25.040  51.510  -4.575  1.00  0.00     0.125 C 
BRANCH  35  36
HETATM   36  C4  UNL     1      24.645  52.914  -4.311  1.00  0.00     0.023 C 
BRANCH  36  37
HETATM   37  C2  UNL     1      23.177  53.171  -4.622  1.00  0.00    -0.021 C 
HETATM   38  C1  UNL     1      22.347  52.914  -3.398  1.00  0.00     0.009 C 
HETATM   39  C3  UNL     1      22.719  52.456  -5.848  1.00  0.00     0.009 C 
ENDBRANCH  36  37
ENDBRANCH  35  36
ENDBRANCH  31  35
ENDBRANCH  28  29
ENDBRANCH   1  28
TORSDOF 9
ENDMDL
MODEL 3
REMARK VINA RESULT: -10.135240575      1.158      1.506
REMARK  9 active torsions:
REMARK  status: ('A' for Active; 'I' for Inactive)
REMARK    1  A    between atoms: C2_2  and  C4_4 
REMARK    2  A    between atoms: C4_4  and  C5_5 
REMARK    3  A    between atoms: C5_5  and  N1_6 
REMARK       I    between atoms: N1_6  and  C6_8 
REMARK       I    between atoms: C6_8  and  N2_10 
REMARK    4  A    between atoms: N2_10  and  C7_12 
REMARK    5  A    between atoms: C7_12  and  C8_13 
REMARK    6  A    between atoms: C15_20  and  N3_21 
REMARK       I    between atoms: N3_21  and  C16_23 
REMARK    7  A    between atoms: C16_23  and  C17_25 
REMARK       I    between atoms: N4_28  and  C20_29 
REMARK    8  A    between atoms: C20_29  and  O4_31 
REMARK    9  A    between atoms: O4_31  and  C21_32 
ROOT
HETATM    1  C8  UNL     1      27.750  49.358   0.716  1.00  0.00    -0.005 C 
HETATM    2  C9  UNL     1      27.978  49.580   2.147  1.00  0.00     0.019 C 
HETATM    3  C10 UNL     1      29.423  49.207   2.516  1.00  0.00    -0.011 C 
HETATM    4  C11 UNL     1      30.395  50.041   1.759  1.00  0.00     0.009 C 
HETATM    5  C12 UNL     1      30.151  49.801   0.277  1.00  0.00    -0.011 C 
HETATM    6  C13 UNL     1      28.762  50.205  -0.090  1.00  0.00     0.019 C 
HETATM    7  C14 UNL     1      30.427  48.350  -0.009  1.00  0.00     0.035 C 
HETATM    8  C15 UNL     1      29.433  47.480   0.777  1.00  0.00     0.034 C 
HETATM    9  C27 UNL     1      29.608  47.728   2.244  1.00  0.00     0.035 C 
HETATM   10  C28 UNL     1      28.052  47.899   0.364  1.00  0.00     0.046 C 
ENDROOT
BRANCH   8  11
HETATM   11  N3  UNL     1      29.643  46.108   0.408  1.00  0.00    -0.351 N 
HETATM   12  C16 UNL     1      29.063  44.976   1.002  1.00  0.00     0.222 C 
HETATM   13  O2  UNL     1      28.270  45.108   1.959  1.00  0.00    -0.273 OA
ATOM     14  H3  UNL     1      30.282  45.938  -0.368  1.00  0.00     0.163 HD
BRANCH  12  15
HETATM   15  C17 UNL     1      29.375  43.596   0.511  1.00  0.00     0.081 C 
HETATM   16  C18 UNL     1      28.467  42.659   1.245  1.00  0.00     0.034 C 
HETATM   17  C19 UNL     1      29.003  41.244   1.118  1.00  0.00     0.129 C 
HETATM   18  N4  UNL     1      30.295  41.168   1.786  1.00  0.00    -0.328 N 
HETATM   19  C20 UNL     1      30.691  39.984   2.407  1.00  0.00     0.363 C 
HETATM   20  C25 UNL     1      31.162  42.327   1.815  1.00  0.00     0.129 C 
HETATM   21  O3  UNL     1      31.817  39.883   3.008  1.00  0.00    -0.238 OA
HETATM   22  C26 UNL     1      30.800  43.320   0.756  1.00  0.00     0.034 C 
BRANCH  19  23
HETATM   23  O4  UNL     1      29.925  38.823   2.443  1.00  0.00    -0.294 OA
BRANCH  23  24
HETATM   24  C21 UNL     1      29.112  38.454   3.528  1.00  0.00     0.061 C 
HETATM   25  C22 UNL     1      27.832  37.776   3.015  1.00  0.00     0.046 C 
HETATM   26  C23 UNL     1      29.860  37.385   4.315  1.00  0.00     0.046 C 
HETATM   27  C24 UNL     1      28.787  39.566   4.475  1.00  0.00     0.046 C 
ENDBRANCH  23  24
ENDBRANCH  19  23
ENDBRANCH  12  15
ENDBRANCH   8  11
BRANCH   1  28
HETATM   28  C7  UNL     1      26.402  49.667   0.174  1.00  0.00     0.075 C 
BRANCH  28  29
HETATM   29  N2  UNL     1      26.242  50.365  -1.034  1.00  0.00    -0.322 N 
HETATM   30  C6  UNL     1      25.180  51.191  -1.485  1.00  0.00     0.319 C 
HETATM   31  N1  UNL     1      25.206  51.750  -2.787  1.00  0.00    -0.343 N 
HETATM   32  O1  UNL     1      24.212  51.438  -0.748  1.00  0.00    -0.247 OA
ATOM     33  H1  UNL     1      26.005  51.564  -3.393  1.00  0.00     0.164 HD
ATOM     34  H2  UNL     1      27.013  50.261  -1.694  1.00  0.00     0.169 HD
BRANCH  31  35
HETATM   35  C5  UNL     1      24.134  52.571  -3.272  1.00  0.00     0.125 C 
BRANCH  35  36
HETATM   36  C4  UNL     1      23.807  52.267  -4.685  1.00  0.00     0.023 C 
BRANCH  36  37
HETATM   37  C2  UNL     1      22.396  52.700  -5.060  1.00  0.00    -0.021 C 
HETATM   38  C1  UNL     1      22.239  52.678  -6.553  1.00  0.00     0.009 C 
HETATM   39  C3  UNL     1      22.001  53.983  -4.410  1.00  0.00     0.009 C 
ENDBRANCH  36  37
ENDBRANCH  35  36
ENDBRANCH  31  35
ENDBRANCH  28  29
ENDBRANCH   1  28
TORSDOF 9
ENDMDL
MODEL 4
REMARK VINA RESULT: -9.782985700      1.571      2.254
REMARK  9 active torsions:
REMARK  status: ('A' for Active; 'I' for Inactive)
REMARK    1  A    between atoms: C2_2  and  C4_4 
REMARK    2  A    between atoms: C4_4  and  C5_5 
REMARK    3  A    between atoms: C5_5  and  N1_6 
REMARK       I    between atoms: N1_6  and  C6_8 
REMARK       I    between atoms: C6_8  and  N2_10 
REMARK    4  A    between atoms: N2_10  and  C7_12 
REMARK    5  A    between atoms: C7_12  and  C8_13 
REMARK    6  A    between atoms: C15_20  and  N3_21 
REMARK       I    between atoms: N3_21  and  C16_23 
REMARK    7  A    between atoms: C16_23  and  C17_25 
REMARK       I    between atoms: N4_28  and  C20_29 
REMARK    8  A    between atoms: C20_29  and  O4_31 
REMARK    9  A    between atoms: O4_31  and  C21_32 
ROOT
HETATM    1  C8  UNL     1      26.463  50.141   0.155  1.00  0.00    -0.005 C 
HETATM    2  C9  UNL     1      27.150  51.121   1.001  1.00  0.00     0.019 C 
HETATM    3  C10 UNL     1      28.625  50.726   1.178  1.00  0.00    -0.011 C 
HETATM    4  C11 UNL     1      29.323  50.682  -0.135  1.00  0.00     0.009 C 
HETATM    5  C12 UNL     1      28.603  49.661  -1.004  1.00  0.00    -0.011 C 
HETATM    6  C13 UNL     1      27.183  50.068  -1.212  1.00  0.00     0.019 C 
HETATM    7  C14 UNL     1      28.729  48.317  -0.340  1.00  0.00     0.035 C 
HETATM    8  C15 UNL     1      28.020  48.356   1.022  1.00  0.00     0.034 C 
HETATM    9  C27 UNL     1      28.669  49.390   1.892  1.00  0.00     0.035 C 
HETATM   10  C28 UNL     1      26.592  48.746   0.770  1.00  0.00     0.046 C 
ENDROOT
BRANCH   8  11
HETATM   11  N3  UNL     1      28.059  47.038   1.591  1.00  0.00    -0.351 N 
HETATM   12  C16 UNL     1      29.189  46.223   1.761  1.00  0.00     0.222 C 
HETATM   13  O2  UNL     1      30.313  46.631   1.398  1.00  0.00    -0.273 OA
ATOM     14  H3  UNL     1      27.168  46.652   1.906  1.00  0.00     0.163 HD
BRANCH  12  15
HETATM   15  C17 UNL     1      29.080  44.861   2.373  1.00  0.00     0.081 C 
HETATM   16  C18 UNL     1      30.451  44.259   2.338  1.00  0.00     0.034 C 
HETATM   17  C19 UNL     1      30.341  42.759   2.545  1.00  0.00     0.129 C 
HETATM   18  N4  UNL     1      29.613  42.181   1.424  1.00  0.00    -0.328 N 
HETATM   19  C20 UNL     1      29.916  40.893   0.984  1.00  0.00     0.363 C 
HETATM   20  C25 UNL     1      28.582  42.951   0.759  1.00  0.00     0.129 C 
HETATM   21  O3  UNL     1      29.299  40.356  -0.001  1.00  0.00    -0.238 OA
HETATM   22  C26 UNL     1      28.094  44.079   1.611  1.00  0.00     0.034 C 
BRANCH  19  23
HETATM   23  O4  UNL     1      30.894  40.081   1.550  1.00  0.00    -0.294 OA
BRANCH  23  24
HETATM   24  C21 UNL     1      30.640  39.135   2.556  1.00  0.00     0.061 C 
HETATM   25  C22 UNL     1      31.529  37.898   2.348  1.00  0.00     0.046 C 
HETATM   26  C23 UNL     1      31.085  39.746   3.880  1.00  0.00     0.046 C 
HETATM   27  C24 UNL     1      29.204  38.742   2.701  1.00  0.00     0.046 C 
ENDBRANCH  23  24
ENDBRANCH  19  23
ENDBRANCH  12  15
ENDBRANCH   8  11
BRANCH   1  28
HETATM   28  C7  UNL     1      25.022  50.362  -0.128  1.00  0.00     0.075 C 
BRANCH  28  29
HETATM   29  N2  UNL     1      24.575  51.516  -0.792  1.00  0.00    -0.322 N 
HETATM   30  C6  UNL     1      24.258  51.726  -2.158  1.00  0.00     0.319 C 
HETATM   31  N1  UNL     1      23.881  53.012  -2.621  1.00  0.00    -0.343 N 
HETATM   32  O1  UNL     1      24.305  50.789  -2.971  1.00  0.00    -0.247 OA
ATOM     33  H1  UNL     1      23.826  53.784  -1.956  1.00  0.00     0.164 HD
ATOM     34  H2  UNL     1      24.460  52.336  -0.195  1.00  0.00     0.169 HD
BRANCH  31  35
HETATM   35  C5  UNL     1      23.576  53.253  -4.002  1.00  0.00     0.125 C 
BRANCH  35  36
HETATM   36  C4  UNL     1      22.138  53.548  -4.202  1.00  0.00     0.023 C 
BRANCH  36  37
HETATM   37  C2  UNL     1      21.833  54.011  -5.620  1.00  0.00    -0.021 C 
HETATM   38  C1  UNL     1      20.944  55.220  -5.578  1.00  0.00     0.009 C 
HETATM   39  C3  UNL     1      21.340  52.903  -6.489  1.00  0.00     0.009 C 
ENDBRANCH  36  37
ENDBRANCH  35  36
ENDBRANCH  31  35
ENDBRANCH  28  29
ENDBRANCH   1  28
TORSDOF 9
ENDMDL
MODEL 5
REMARK VINA RESULT: -9.689632893      1.705      2.329
REMARK  9 active torsions:
REMARK  status: ('A' for Active; 'I' for Inactive)
REMARK    1  A    between atoms: C2_2  and  C4_4 
REMARK    2  A    between atoms: C4_4  and  C5_5 
REMARK    3  A    between atoms: C5_5  and  N1_6 
REMARK       I    between atoms: N1_6  and  C6_8 
REMARK       I    between atoms: C6_8  and  N2_10 
REMARK    4  A    between atoms: N2_10  and  C7_12 
REMARK    5  A    between atoms: C7_12  and  C8_13 
REMARK    6  A    between atoms: C15_20  and  N3_21 
REMARK       I    between atoms: N3_21  and  C16_23 
REMARK    7  A    between atoms: C16_23  and  C17_25 
REMARK       I    between atoms: N4_28  and  C20_29 
REMARK    8  A    between atoms: C20_29  and  O4_31 
REMARK    9  A    between atoms: O4_31  and  C21_32 
ROOT
HETATM    1  C8  UNL     1      27.177  50.045   0.315  1.00  0.00    -0.005 C 
HETATM    2  C9  UNL     1      27.841  50.960   1.248  1.00  0.00     0.019 C 
HETATM    3  C10 UNL     1      29.305  50.538   1.452  1.00  0.00    -0.011 C 
HETATM    4  C11 UNL     1      30.051  50.572   0.165  1.00  0.00     0.009 C 
HETATM    5  C12 UNL     1      29.355  49.617  -0.794  1.00  0.00    -0.011 C 
HETATM    6  C13 UNL     1      27.947  50.053  -1.026  1.00  0.00     0.019 C 
HETATM    7  C14 UNL     1      29.445  48.231  -0.216  1.00  0.00     0.035 C 
HETATM    8  C15 UNL     1      28.686  48.190   1.120  1.00  0.00     0.034 C 
HETATM    9  C27 UNL     1      29.311  49.158   2.078  1.00  0.00     0.035 C 
HETATM   10  C28 UNL     1      27.272  48.611   0.841  1.00  0.00     0.046 C 
ENDROOT
BRANCH   8  11
HETATM   11  N3  UNL     1      28.692  46.837   1.602  1.00  0.00    -0.351 N 
HETATM   12  C16 UNL     1      29.809  46.090   2.009  1.00  0.00     0.222 C 
HETATM   13  O2  UNL     1      30.950  46.599   1.970  1.00  0.00    -0.273 OA
ATOM     14  H3  UNL     1      27.788  46.369   1.656  1.00  0.00     0.163 HD
BRANCH  12  15
HETATM   15  C17 UNL     1      29.666  44.680   2.493  1.00  0.00     0.081 C 
HETATM   16  C18 UNL     1      30.884  43.939   2.036  1.00  0.00     0.034 C 
HETATM   17  C19 UNL     1      30.618  42.446   2.117  1.00  0.00     0.129 C 
HETATM   18  N4  UNL     1      29.557  42.104   1.181  1.00  0.00    -0.328 N 
HETATM   19  C20 UNL     1      29.554  40.860   0.553  1.00  0.00     0.363 C 
HETATM   20  C25 UNL     1      28.512  43.065   0.893  1.00  0.00     0.129 C 
HETATM   21  O3  UNL     1      28.639  40.528  -0.279  1.00  0.00    -0.238 OA
HETATM   22  C26 UNL     1      28.419  44.120   1.949  1.00  0.00     0.034 C 
BRANCH  19  23
HETATM   23  O4  UNL     1      30.518  39.877   0.756  1.00  0.00    -0.294 OA
BRANCH  23  24
HETATM   24  C21 UNL     1      30.357  38.793   1.635  1.00  0.00     0.061 C 
HETATM   25  C22 UNL     1      30.430  37.471   0.854  1.00  0.00     0.046 C 
HETATM   26  C23 UNL     1      31.558  38.785   2.574  1.00  0.00     0.046 C 
HETATM   27  C24 UNL     1      29.124  38.847   2.480  1.00  0.00     0.046 C 
ENDBRANCH  23  24
ENDBRANCH  19  23
ENDBRANCH  12  15
ENDBRANCH   8  11
BRANCH   1  28
HETATM   28  C7  UNL     1      25.749  50.299  -0.006  1.00  0.00     0.075 C 
BRANCH  28  29
HETATM   29  N2  UNL     1      25.339  50.627  -1.308  1.00  0.00    -0.322 N 
HETATM   30  C6  UNL     1      24.333  51.519  -1.758  1.00  0.00     0.319 C 
HETATM   31  N1  UNL     1      24.047  51.645  -3.141  1.00  0.00    -0.343 N 
HETATM   32  O1  UNL     1      23.686  52.204  -0.950  1.00  0.00    -0.247 OA
ATOM     33  H1  UNL     1      24.585  51.097  -3.812  1.00  0.00     0.164 HD
ATOM     34  H2  UNL     1      25.847  50.145  -2.051  1.00  0.00     0.169 HD
BRANCH  31  35
HETATM   35  C5  UNL     1      23.020  52.526  -3.617  1.00  0.00     0.125 C 
BRANCH  35  36
HETATM   36  C4  UNL     1      22.826  52.401  -5.080  1.00  0.00     0.023 C 
BRANCH  36  37
HETATM   37  C2  UNL     1      21.588  53.141  -5.567  1.00  0.00    -0.021 C 
HETATM   38  C1  UNL     1      21.396  52.897  -7.036  1.00  0.00     0.009 C 
HETATM   39  C3  UNL     1      21.588  54.578  -5.167  1.00  0.00     0.009 C 
ENDBRANCH  36  37
ENDBRANCH  35  36
ENDBRANCH  31  35
ENDBRANCH  28  29
ENDBRANCH   1  28
TORSDOF 9
ENDMDL
