MODEL 1
REMARK VINA RESULT: -6.702595424      0.000      0.000
REMARK  14 active torsions:
REMARK  status: ('A' for Active; 'I' for Inactive)
REMARK    1  A    between atoms: C2_2  and  C3_3 
REMARK    2  A    between atoms: C2_2  and  N1_6 
REMARK    3  A    between atoms: C3_3  and  O1_4 
REMARK       I    between atoms: N1_6  and  C4_8 
REMARK    4  A    between atoms: C4_8  and  C5_10 
REMARK    5  A    between atoms: C5_10  and  C6_11 
REMARK    6  A    between atoms: C5_10  and  C12_18 
REMARK    7  A    between atoms: C7_12  and  C8_13 
REMARK    8  A    between atoms: C8_13  and  N2_14 
REMARK       I    between atoms: C12_18  and  N3_20 
REMARK    9  A    between atoms: N3_20  and  C13_22 
REMARK   10  A    between atoms: C13_22  and  C14_23 
REMARK   11  A    between atoms: C13_22  and  C16_27 
REMARK   12  A    between atoms: C14_23  and  C15_24 
REMARK   13  A    between atoms: C16_27  and  O6_28 
REMARK   14  A    between atoms: C16_27  and  C17_30 
ROOT
HETATM    1  C5  UNL     1      -3.479   5.454  14.393  1.00  0.00     0.192 C 
ENDROOT
BRANCH   1   2
HETATM    2  C4  UNL     1      -2.390   5.623  13.417  1.00  0.00     0.234 C 
HETATM    3  N1  UNL     1      -2.214   4.714  12.354  1.00  0.00    -0.354 N 
ATOM      4  H1  UNL     1      -2.861   3.928  12.274  1.00  0.00     0.162 HD
HETATM    5  O2  UNL     1      -1.614   6.586  13.531  1.00  0.00    -0.272 OA
BRANCH   3   6
HETATM    6  C2  UNL     1      -1.157   4.842  11.371  1.00  0.00     0.104 C 
HETATM    7  C1  UNL     1      -1.767   4.737   9.995  1.00  0.00     0.034 C 
BRANCH   6   8
HETATM    8  C3  UNL     1      -0.080   3.816  11.499  1.00  0.00     0.189 C 
BRANCH   8   9
HETATM    9  O1  UNL     1      -0.415   2.801  12.403  1.00  0.00    -0.399 OA
ATOM     10  H1  UNL     1      -0.062   1.958  12.148  1.00  0.00     0.209 HD
ENDBRANCH   8   9
ENDBRANCH   6   8
ENDBRANCH   3   6
ENDBRANCH   1   2
BRANCH   1  11
HETATM   11  C6  UNL     1      -4.763   5.814  13.722  1.00  0.00    -0.006 C 
HETATM   12  C7  UNL     1      -4.909   6.723  12.781  1.00  0.00    -0.002 C 
BRANCH  12  13
HETATM   13  C8  UNL     1      -6.224   7.012  12.175  1.00  0.00     0.263 C 
BRANCH  13  14
HETATM   14  N2  UNL     1      -6.106   7.495  10.812  1.00  0.00    -0.075 N 
HETATM   15  C9  UNL     1      -5.147   8.611  10.860  1.00  0.00     0.272 C 
HETATM   16  C10 UNL     1      -7.350   8.041  10.322  1.00  0.00     0.272 C 
HETATM   17  C11 UNL     1      -5.549   6.515   9.922  1.00  0.00     0.272 C 
ENDBRANCH  13  14
ENDBRANCH  12  13
ENDBRANCH   1  11
BRANCH   1  18
HETATM   18  C12 UNL     1      -3.525   4.076  14.934  1.00  0.00     0.235 C 
HETATM   19  O3  UNL     1      -2.498   3.557  15.496  1.00  0.00    -0.272 OA
HETATM   20  N3  UNL     1      -4.677   3.282  14.861  1.00  0.00    -0.349 N 
ATOM     21  H3  UNL     1      -5.520   3.651  14.420  1.00  0.00     0.163 HD
BRANCH  20  22
HETATM   22  C13 UNL     1      -4.680   1.900  15.425  1.00  0.00     0.154 C 
BRANCH  22  23
HETATM   23  C14 UNL     1      -5.903   1.774  16.221  1.00  0.00     0.145 C 
BRANCH  23  24
HETATM   24  C15 UNL     1      -5.881   0.931  17.414  1.00  0.00     0.174 C 
HETATM   25  O4  UNL     1      -5.742   1.408  18.554  1.00  0.00    -0.648 OA
HETATM   26  O5  UNL     1      -6.021  -0.437  17.268  1.00  0.00    -0.648 OA
ENDBRANCH  23  24
ENDBRANCH  22  23
BRANCH  22  27
HETATM   27  C16 UNL     1      -4.452   0.996  14.288  1.00  0.00     0.104 C 
BRANCH  27  28
HETATM   28  O6  UNL     1      -4.725  -0.268  14.541  1.00  0.00    -0.360 OA
ATOM     29  H6  UNL     1      -5.643  -0.440  14.718  1.00  0.00     0.217 HD
ENDBRANCH  27  28
BRANCH  27  30
HETATM   30  C17 UNL     1      -3.988   1.227  12.970  1.00  0.00     0.292 C 
HETATM   31  O7  UNL     1      -2.942   1.761  12.599  1.00  0.00    -0.300 OA
ENDBRANCH  27  30
ENDBRANCH  22  27
ENDBRANCH  20  22
ENDBRANCH   1  18
TORSDOF 14
ENDMDL
MODEL 2
REMARK VINA RESULT: -6.654779001      1.616      3.037
REMARK  14 active torsions:
REMARK  status: ('A' for Active; 'I' for Inactive)
REMARK    1  A    between atoms: C2_2  and  C3_3 
REMARK    2  A    between atoms: C2_2  and  N1_6 
REMARK    3  A    between atoms: C3_3  and  O1_4 
REMARK       I    between atoms: N1_6  and  C4_8 
REMARK    4  A    between atoms: C4_8  and  C5_10 
REMARK    5  A    between atoms: C5_10  and  C6_11 
REMARK    6  A    between atoms: C5_10  and  C12_18 
REMARK    7  A    between atoms: C7_12  and  C8_13 
REMARK    8  A    between atoms: C8_13  and  N2_14 
REMARK       I    between atoms: C12_18  and  N3_20 
REMARK    9  A    between atoms: N3_20  and  C13_22 
REMARK   10  A    between atoms: C13_22  and  C14_23 
REMARK   11  A    between atoms: C13_22  and  C16_27 
REMARK   12  A    between atoms: C14_23  and  C15_24 
REMARK   13  A    between atoms: C16_27  and  O6_28 
REMARK   14  A    between atoms: C16_27  and  C17_30 
ROOT
HETATM    1  C5  UNL     1      -3.701   5.193  14.291  1.00  0.00     0.192 C 
ENDROOT
BRANCH   1   2
HETATM    2  C4  UNL     1      -2.284   4.994  13.947  1.00  0.00     0.234 C 
HETATM    3  N1  UNL     1      -1.735   5.541  12.770  1.00  0.00    -0.354 N 
ATOM      4  H1  UNL     1      -2.343   6.081  12.154  1.00  0.00     0.162 HD
HETATM    5  O2  UNL     1      -1.559   4.334  14.710  1.00  0.00    -0.272 OA
BRANCH   3   6
HETATM    6  C2  UNL     1      -0.345   5.371  12.393  1.00  0.00     0.104 C 
HETATM    7  C1  UNL     1       0.108   6.611  11.663  1.00  0.00     0.034 C 
BRANCH   6   8
HETATM    8  C3  UNL     1      -0.093   4.182  11.525  1.00  0.00     0.189 C 
BRANCH   8   9
HETATM    9  O1  UNL     1      -0.370   2.976  12.177  1.00  0.00    -0.399 OA
ATOM     10  H1  UNL     1       0.377   2.390  12.189  1.00  0.00     0.209 HD
ENDBRANCH   8   9
ENDBRANCH   6   8
ENDBRANCH   3   6
ENDBRANCH   1   2
BRANCH   1  11
HETATM   11  C6  UNL     1      -4.250   6.255  13.397  1.00  0.00    -0.006 C 
HETATM   12  C7  UNL     1      -4.860   6.053  12.248  1.00  0.00    -0.002 C 
BRANCH  12  13
HETATM   13  C8  UNL     1      -5.370   7.170  11.429  1.00  0.00     0.263 C 
BRANCH  13  14
HETATM   14  N2  UNL     1      -5.301   6.886  10.009  1.00  0.00    -0.075 N 
HETATM   15  C9  UNL     1      -4.608   8.032   9.400  1.00  0.00     0.272 C 
HETATM   16  C10 UNL     1      -6.612   6.829   9.404  1.00  0.00     0.272 C 
HETATM   17  C11 UNL     1      -4.510   5.724   9.712  1.00  0.00     0.272 C 
ENDBRANCH  13  14
ENDBRANCH  12  13
ENDBRANCH   1  11
BRANCH   1  18
HETATM   18  C12 UNL     1      -4.479   3.938  14.172  1.00  0.00     0.235 C 
HETATM   19  O3  UNL     1      -5.746   3.931  14.359  1.00  0.00    -0.272 OA
HETATM   20  N3  UNL     1      -3.878   2.712  13.854  1.00  0.00    -0.349 N 
ATOM     21  H3  UNL     1      -2.871   2.667  13.700  1.00  0.00     0.163 HD
BRANCH  20  22
HETATM   22  C13 UNL     1      -4.702   1.473  13.741  1.00  0.00     0.154 C 
BRANCH  22  23
HETATM   23  C14 UNL     1      -4.333   0.839  12.473  1.00  0.00     0.145 C 
BRANCH  23  24
HETATM   24  C15 UNL     1      -5.020   1.255  11.253  1.00  0.00     0.174 C 
HETATM   25  O4  UNL     1      -4.868   0.653  10.175  1.00  0.00    -0.648 OA
HETATM   26  O5  UNL     1      -5.863   2.350  11.301  1.00  0.00    -0.648 OA
ENDBRANCH  23  24
ENDBRANCH  22  23
BRANCH  22  27
HETATM   27  C16 UNL     1      -4.517   0.743  15.004  1.00  0.00     0.104 C 
BRANCH  27  28
HETATM   28  O6  UNL     1      -4.871  -0.525  14.951  1.00  0.00    -0.360 OA
ATOM     29  H6  UNL     1      -4.166  -1.116  14.718  1.00  0.00     0.217 HD
ENDBRANCH  27  28
BRANCH  27  30
HETATM   30  C17 UNL     1      -4.033   1.149  16.272  1.00  0.00     0.292 C 
HETATM   31  O7  UNL     1      -2.988   1.738  16.551  1.00  0.00    -0.300 OA
ENDBRANCH  27  30
ENDBRANCH  22  27
ENDBRANCH  20  22
ENDBRANCH   1  18
TORSDOF 14
ENDMDL
MODEL 3
REMARK VINA RESULT: -6.513908824      1.412      3.008
REMARK  14 active torsions:
REMARK  status: ('A' for Active; 'I' for Inactive)
REMARK    1  A    between atoms: C2_2  and  C3_3 
REMARK    2  A    between atoms: C2_2  and  N1_6 
REMARK    3  A    between atoms: C3_3  and  O1_4 
REMARK       I    between atoms: N1_6  and  C4_8 
REMARK    4  A    between atoms: C4_8  and  C5_10 
REMARK    5  A    between atoms: C5_10  and  C6_11 
REMARK    6  A    between atoms: C5_10  and  C12_18 
REMARK    7  A    between atoms: C7_12  and  C8_13 
REMARK    8  A    between atoms: C8_13  and  N2_14 
REMARK       I    between atoms: C12_18  and  N3_20 
REMARK    9  A    between atoms: N3_20  and  C13_22 
REMARK   10  A    between atoms: C13_22  and  C14_23 
REMARK   11  A    between atoms: C13_22  and  C16_27 
REMARK   12  A    between atoms: C14_23  and  C15_24 
REMARK   13  A    between atoms: C16_27  and  O6_28 
REMARK   14  A    between atoms: C16_27  and  C17_30 
ROOT
HETATM    1  C5  UNL     1      -4.575   5.540  14.141  1.00  0.00     0.192 C 
ENDROOT
BRANCH   1   2
HETATM    2  C4  UNL     1      -3.283   5.595  13.437  1.00  0.00     0.234 C 
HETATM    3  N1  UNL     1      -3.081   4.899  12.228  1.00  0.00    -0.354 N 
ATOM      4  H1  UNL     1      -3.853   4.351  11.846  1.00  0.00     0.162 HD
HETATM    5  O2  UNL     1      -2.356   6.268  13.916  1.00  0.00    -0.272 OA
BRANCH   3   6
HETATM    6  C2  UNL     1      -1.827   4.926  11.501  1.00  0.00     0.104 C 
HETATM    7  C1  UNL     1      -2.124   4.783  10.028  1.00  0.00     0.034 C 
BRANCH   6   8
HETATM    8  C3  UNL     1      -0.869   3.854  11.904  1.00  0.00     0.189 C 
BRANCH   8   9
HETATM    9  O1  UNL     1      -1.513   2.742  12.458  1.00  0.00    -0.399 OA
ATOM     10  H1  UNL     1      -1.167   1.922  12.129  1.00  0.00     0.209 HD
ENDBRANCH   8   9
ENDBRANCH   6   8
ENDBRANCH   3   6
ENDBRANCH   1   2
BRANCH   1  11
HETATM   11  C6  UNL     1      -5.534   6.426  13.418  1.00  0.00    -0.006 C 
HETATM   12  C7  UNL     1      -5.385   6.884  12.193  1.00  0.00    -0.002 C 
BRANCH  12  13
HETATM   13  C8  UNL     1      -6.390   7.759  11.560  1.00  0.00     0.263 C 
BRANCH  13  14
HETATM   14  N2  UNL     1      -6.230   7.828  10.120  1.00  0.00    -0.075 N 
HETATM   15  C9  UNL     1      -7.576   8.063   9.574  1.00  0.00     0.272 C 
HETATM   16  C10 UNL     1      -5.773   6.574   9.566  1.00  0.00     0.272 C 
HETATM   17  C11 UNL     1      -5.419   8.939   9.704  1.00  0.00     0.272 C 
ENDBRANCH  13  14
ENDBRANCH  12  13
ENDBRANCH   1  11
BRANCH   1  18
HETATM   18  C12 UNL     1      -5.092   4.155  14.237  1.00  0.00     0.235 C 
HETATM   19  O3  UNL     1      -6.351   3.923  14.219  1.00  0.00    -0.272 OA
HETATM   20  N3  UNL     1      -4.244   3.046  14.350  1.00  0.00    -0.349 N 
ATOM     21  H3  UNL     1      -3.233   3.181  14.372  1.00  0.00     0.163 HD
BRANCH  20  22
HETATM   22  C13 UNL     1      -4.809   1.667  14.440  1.00  0.00     0.154 C 
BRANCH  22  23
HETATM   23  C14 UNL     1      -4.211   0.896  13.348  1.00  0.00     0.145 C 
BRANCH  23  24
HETATM   24  C15 UNL     1      -4.577   1.225  11.972  1.00  0.00     0.174 C 
HETATM   25  O4  UNL     1      -4.217   2.285  11.431  1.00  0.00    -0.648 OA
HETATM   26  O5  UNL     1      -5.347   0.328  11.254  1.00  0.00    -0.648 OA
ENDBRANCH  23  24
ENDBRANCH  22  23
BRANCH  22  27
HETATM   27  C16 UNL     1      -4.612   1.236  15.832  1.00  0.00     0.104 C 
BRANCH  27  28
HETATM   28  O6  UNL     1      -3.351   1.191  16.209  1.00  0.00    -0.360 OA
ATOM     29  H6  UNL     1      -3.156   1.713  16.978  1.00  0.00     0.217 HD
ENDBRANCH  27  28
BRANCH  27  30
HETATM   30  C17 UNL     1      -5.525   0.854  16.845  1.00  0.00     0.292 C 
HETATM   31  O7  UNL     1      -6.017  -0.254  17.068  1.00  0.00    -0.300 OA
ENDBRANCH  27  30
ENDBRANCH  22  27
ENDBRANCH  20  22
ENDBRANCH   1  18
TORSDOF 14
ENDMDL
MODEL 4
REMARK VINA RESULT: -6.493071168      1.506      3.055
REMARK  14 active torsions:
REMARK  status: ('A' for Active; 'I' for Inactive)
REMARK    1  A    between atoms: C2_2  and  C3_3 
REMARK    2  A    between atoms: C2_2  and  N1_6 
REMARK    3  A    between atoms: C3_3  and  O1_4 
REMARK       I    between atoms: N1_6  and  C4_8 
REMARK    4  A    between atoms: C4_8  and  C5_10 
REMARK    5  A    between atoms: C5_10  and  C6_11 
REMARK    6  A    between atoms: C5_10  and  C12_18 
REMARK    7  A    between atoms: C7_12  and  C8_13 
REMARK    8  A    between atoms: C8_13  and  N2_14 
REMARK       I    between atoms: C12_18  and  N3_20 
REMARK    9  A    between atoms: N3_20  and  C13_22 
REMARK   10  A    between atoms: C13_22  and  C14_23 
REMARK   11  A    between atoms: C13_22  and  C16_27 
REMARK   12  A    between atoms: C14_23  and  C15_24 
REMARK   13  A    between atoms: C16_27  and  O6_28 
REMARK   14  A    between atoms: C16_27  and  C17_30 
ROOT
HETATM    1  C5  UNL     1      -4.012   5.138  13.532  1.00  0.00     0.192 C 
ENDROOT
BRANCH   1   2
HETATM    2  C4  UNL     1      -2.548   5.009  13.462  1.00  0.00     0.234 C 
HETATM    3  N1  UNL     1      -1.843   5.317  12.281  1.00  0.00    -0.354 N 
ATOM      4  H1  UNL     1      -2.371   5.634  11.468  1.00  0.00     0.162 HD
HETATM    5  O2  UNL     1      -1.922   4.622  14.463  1.00  0.00    -0.272 OA
BRANCH   3   6
HETATM    6  C2  UNL     1      -0.402   5.205  12.168  1.00  0.00     0.104 C 
HETATM    7  C1  UNL     1       0.100   6.335  11.304  1.00  0.00     0.034 C 
BRANCH   6   8
HETATM    8  C3  UNL     1       0.062   3.911  11.585  1.00  0.00     0.189 C 
BRANCH   8   9
HETATM    9  O1  UNL     1      -0.433   2.803  12.282  1.00  0.00    -0.399 OA
ATOM     10  H1  UNL     1      -1.292   2.536  11.976  1.00  0.00     0.209 HD
ENDBRANCH   8   9
ENDBRANCH   6   8
ENDBRANCH   3   6
ENDBRANCH   1   2
BRANCH   1  11
HETATM   11  C6  UNL     1      -4.491   5.682  12.227  1.00  0.00    -0.006 C 
HETATM   12  C7  UNL     1      -5.092   6.841  12.052  1.00  0.00    -0.002 C 
BRANCH  12  13
HETATM   13  C8  UNL     1      -5.533   7.296  10.719  1.00  0.00     0.263 C 
BRANCH  13  14
HETATM   14  N2  UNL     1      -6.749   8.083  10.782  1.00  0.00    -0.075 N 
HETATM   15  C9  UNL     1      -6.319   9.490  10.800  1.00  0.00     0.272 C 
HETATM   16  C10 UNL     1      -7.476   7.858  12.010  1.00  0.00     0.272 C 
HETATM   17  C11 UNL     1      -7.576   7.922   9.618  1.00  0.00     0.272 C 
ENDBRANCH  13  14
ENDBRANCH  12  13
ENDBRANCH   1  11
BRANCH   1  18
HETATM   18  C12 UNL     1      -4.666   3.847  13.848  1.00  0.00     0.235 C 
HETATM   19  O3  UNL     1      -5.940   3.764  13.947  1.00  0.00    -0.272 OA
HETATM   20  N3  UNL     1      -3.935   2.669  14.052  1.00  0.00    -0.349 N 
ATOM     21  H3  UNL     1      -2.918   2.686  13.986  1.00  0.00     0.163 HD
BRANCH  20  22
HETATM   22  C13 UNL     1      -4.637   1.389  14.363  1.00  0.00     0.154 C 
BRANCH  22  23
HETATM   23  C14 UNL     1      -4.068   0.372  13.476  1.00  0.00     0.145 C 
BRANCH  23  24
HETATM   24  C15 UNL     1      -4.555   0.285  12.102  1.00  0.00     0.174 C 
HETATM   25  O4  UNL     1      -4.940  -0.789  11.607  1.00  0.00    -0.648 OA
HETATM   26  O5  UNL     1      -4.588   1.433  11.331  1.00  0.00    -0.648 OA
ENDBRANCH  23  24
ENDBRANCH  22  23
BRANCH  22  27
HETATM   27  C16 UNL     1      -4.547   1.220  15.822  1.00  0.00     0.104 C 
BRANCH  27  28
HETATM   28  O6  UNL     1      -3.329   1.350  16.305  1.00  0.00    -0.360 OA
ATOM     29  H6  UNL     1      -2.707   0.716  15.968  1.00  0.00     0.217 HD
ENDBRANCH  27  28
BRANCH  27  30
HETATM   30  C17 UNL     1      -5.526   0.937  16.805  1.00  0.00     0.292 C 
HETATM   31  O7  UNL     1      -5.984  -0.152  17.153  1.00  0.00    -0.300 OA
ENDBRANCH  27  30
ENDBRANCH  22  27
ENDBRANCH  20  22
ENDBRANCH   1  18
TORSDOF 14
ENDMDL
MODEL 5
REMARK VINA RESULT: -6.381362719      2.677      4.360
REMARK  14 active torsions:
REMARK  status: ('A' for Active; 'I' for Inactive)
REMARK    1  A    between atoms: C2_2  and  C3_3 
REMARK    2  A    between atoms: C2_2  and  N1_6 
REMARK    3  A    between atoms: C3_3  and  O1_4 
REMARK       I    between atoms: N1_6  and  C4_8 
REMARK    4  A    between atoms: C4_8  and  C5_10 
REMARK    5  A    between atoms: C5_10  and  C6_11 
REMARK    6  A    between atoms: C5_10  and  C12_18 
REMARK    7  A    between atoms: C7_12  and  C8_13 
REMARK    8  A    between atoms: C8_13  and  N2_14 
REMARK       I    between atoms: C12_18  and  N3_20 
REMARK    9  A    between atoms: N3_20  and  C13_22 
REMARK   10  A    between atoms: C13_22  and  C14_23 
REMARK   11  A    between atoms: C13_22  and  C16_27 
REMARK   12  A    between atoms: C14_23  and  C15_24 
REMARK   13  A    between atoms: C16_27  and  O6_28 
REMARK   14  A    between atoms: C16_27  and  C17_30 
ROOT
HETATM    1  C5  UNL     1      -2.165   5.069  13.891  1.00  0.00     0.192 C 
ENDROOT
BRANCH   1   2
HETATM    2  C4  UNL     1      -1.659   5.138  12.511  1.00  0.00     0.234 C 
HETATM    3  N1  UNL     1      -2.533   5.330  11.422  1.00  0.00    -0.354 N 
ATOM      4  H1  UNL     1      -3.532   5.420  11.610  1.00  0.00     0.162 HD
HETATM    5  O2  UNL     1      -0.439   5.026  12.303  1.00  0.00    -0.272 OA
BRANCH   3   6
HETATM    6  C2  UNL     1      -2.078   5.404  10.047  1.00  0.00     0.104 C 
HETATM    7  C1  UNL     1      -1.871   6.855   9.689  1.00  0.00     0.034 C 
BRANCH   6   8
HETATM    8  C3  UNL     1      -3.021   4.796   9.062  1.00  0.00     0.189 C 
BRANCH   8   9
HETATM    9  O1  UNL     1      -3.685   3.678   9.579  1.00  0.00    -0.399 OA
ATOM     10  H1  UNL     1      -4.550   3.891   9.910  1.00  0.00     0.209 HD
ENDBRANCH   8   9
ENDBRANCH   6   8
ENDBRANCH   3   6
ENDBRANCH   1   2
BRANCH   1  11
HETATM   11  C6  UNL     1      -2.491   6.457  14.334  1.00  0.00    -0.006 C 
HETATM   12  C7  UNL     1      -1.633   7.447  14.456  1.00  0.00    -0.002 C 
BRANCH  12  13
HETATM   13  C8  UNL     1      -2.050   8.790  14.904  1.00  0.00     0.263 C 
BRANCH  13  14
HETATM   14  N2  UNL     1      -1.092   9.814  14.534  1.00  0.00    -0.075 N 
HETATM   15  C9  UNL     1      -0.026   9.122  13.791  1.00  0.00     0.272 C 
HETATM   16  C10 UNL     1      -0.466  10.413  15.690  1.00  0.00     0.272 C 
HETATM   17  C11 UNL     1      -1.644  10.794  13.639  1.00  0.00     0.272 C 
ENDBRANCH  13  14
ENDBRANCH  12  13
ENDBRANCH   1  11
BRANCH   1  18
HETATM   18  C12 UNL     1      -3.343   4.179  14.004  1.00  0.00     0.235 C 
HETATM   19  O3  UNL     1      -4.531   4.656  13.967  1.00  0.00    -0.272 OA
HETATM   20  N3  UNL     1      -3.220   2.791  14.153  1.00  0.00    -0.349 N 
ATOM     21  H3  UNL     1      -2.294   2.365  14.190  1.00  0.00     0.163 HD
BRANCH  20  22
HETATM   22  C13 UNL     1      -4.436   1.931  14.258  1.00  0.00     0.154 C 
BRANCH  22  23
HETATM   23  C14 UNL     1      -4.380   0.987  13.139  1.00  0.00     0.145 C 
BRANCH  23  24
HETATM   24  C15 UNL     1      -4.935   1.391  11.850  1.00  0.00     0.174 C 
HETATM   25  O4  UNL     1      -5.367   2.540  11.651  1.00  0.00    -0.648 OA
HETATM   26  O5  UNL     1      -4.980   0.466  10.823  1.00  0.00    -0.648 OA
ENDBRANCH  23  24
ENDBRANCH  22  23
BRANCH  22  27
HETATM   27  C16 UNL     1      -4.460   1.427  15.639  1.00  0.00     0.104 C 
BRANCH  27  28
HETATM   28  O6  UNL     1      -3.273   1.345  16.204  1.00  0.00    -0.360 OA
ATOM     29  H6  UNL     1      -3.296   1.290  17.152  1.00  0.00     0.217 HD
ENDBRANCH  27  28
BRANCH  27  30
HETATM   30  C17 UNL     1      -5.522   1.007  16.477  1.00  0.00     0.292 C 
HETATM   31  O7  UNL     1      -5.863  -0.137  16.781  1.00  0.00    -0.300 OA
ENDBRANCH  27  30
ENDBRANCH  22  27
ENDBRANCH  20  22
ENDBRANCH   1  18
TORSDOF 14
ENDMDL
