MODEL 1
REMARK VINA RESULT: -7.170386051      0.000      0.000
REMARK  12 active torsions:
REMARK  status: ('A' for Active; 'I' for Inactive)
REMARK    1  A    between atoms: N3_4  and  C2_6 
REMARK    2  A    between atoms: C2_6  and  C3_7 
REMARK    3  A    between atoms: C3_7  and  C4_8 
REMARK    4  A    between atoms: C4_8  and  C5_9 
REMARK    5  A    between atoms: C5_9  and  C6_10 
REMARK    6  A    between atoms: C6_10  and  C7_11 
REMARK       I    between atoms: C7_11  and  N4_13 
REMARK       I    between atoms: N5_16  and  C10_17 
REMARK    7  A    between atoms: C10_17  and  C11_19 
REMARK    8  A    between atoms: C11_19  and  N6_20 
REMARK    9  A    between atoms: C11_19  and  C12_24 
REMARK   10  A    between atoms: C12_24  and  C13_25 
REMARK   11  A    between atoms: C13_25  and  C14_26 
REMARK   12  A    between atoms: C14_26  and  N7_27 
ROOT
HETATM    1  C7  UNL     1      -4.495   0.673  15.228  1.00  0.00     0.221 C 
HETATM    2  O1  UNL     1      -4.903  -0.507  15.490  1.00  0.00    -0.273 OA
HETATM    3  N4  UNL     1      -4.162   1.054  13.907  1.00  0.00    -0.334 N 
HETATM    4  C8  UNL     1      -4.223   0.231  12.735  1.00  0.00     0.147 C 
HETATM    5  C9  UNL     1      -4.765   1.217  11.722  1.00  0.00     0.147 C 
HETATM    6  N5  UNL     1      -4.018   2.433  12.083  1.00  0.00    -0.332 N 
HETATM    7  C10 UNL     1      -3.698   3.471  11.183  1.00  0.00     0.251 C 
HETATM    8  O2  UNL     1      -4.079   3.354   9.963  1.00  0.00    -0.271 OA
HETATM    9  C16 UNL     1      -3.692   2.351  13.490  1.00  0.00     0.255 C 
ENDROOT
BRANCH   7  10
HETATM   10  C11 UNL     1      -2.950   4.696  11.540  1.00  0.00     0.275 C 
BRANCH  10  11
HETATM   11  N6  UNL     1      -3.591   5.924  11.210  1.00  0.00    -0.067 N 
ATOM     12  H63 UNL     1      -3.229   6.280  10.326  1.00  0.00     0.275 HD
ATOM     13  H62 UNL     1      -4.563   5.752  10.951  1.00  0.00     0.275 HD
ATOM     14  H61 UNL     1      -3.545   6.650  11.925  1.00  0.00     0.275 HD
ENDBRANCH  10  11
BRANCH  10  15
HETATM   15  C12 UNL     1      -1.574   4.711  10.883  1.00  0.00     0.044 C 
BRANCH  15  16
HETATM   16  C13 UNL     1      -0.588   3.989  11.759  1.00  0.00     0.022 C 
BRANCH  16  17
HETATM   17  C14 UNL     1       0.826   4.103  11.231  1.00  0.00     0.122 C 
BRANCH  17  18
HETATM   18  N7  UNL     1       1.684   4.801  12.150  1.00  0.00    -0.367 N 
HETATM   19  C15 UNL     1       2.919   5.098  11.905  1.00  0.00     0.196 C 
HETATM   20  N8  UNL     1       3.660   5.792  12.902  1.00  0.00    -0.067 NA
HETATM   21  N9  UNL     1       3.522   4.734  10.651  1.00  0.00    -0.067 NA
ATOM     22  H7  UNL     1       1.295   5.079  13.052  1.00  0.00     0.161 HD
ENDBRANCH  17  18
ENDBRANCH  16  17
ENDBRANCH  15  16
ENDBRANCH  10  15
ENDBRANCH   7  10
BRANCH   1  23
HETATM   23  C6  UNL     1      -4.388   1.623  16.362  1.00  0.00     0.103 C 
BRANCH  23  24
HETATM   24  C5  UNL     1      -5.618   1.365  17.272  1.00  0.00     0.009 C 
BRANCH  24  25
HETATM   25  C4  UNL     1      -6.758   2.083  16.646  1.00  0.00     0.002 C 
BRANCH  25  26
HETATM   26  C3  UNL     1      -6.616   3.546  16.573  1.00  0.00     0.020 C 
BRANCH  26  27
HETATM   27  C2  UNL     1      -6.385   4.125  15.216  1.00  0.00     0.122 C 
BRANCH  27  28
HETATM   28  N3  UNL     1      -5.242   4.966  15.193  1.00  0.00    -0.367 N 
HETATM   29  C1  UNL     1      -5.001   5.886  14.339  1.00  0.00     0.196 C 
HETATM   30  N1  UNL     1      -5.911   6.146  13.296  1.00  0.00    -0.067 NA
HETATM   31  N2  UNL     1      -3.817   6.643  14.444  1.00  0.00    -0.067 NA
ATOM     32  H3  UNL     1      -4.548   4.824  15.927  1.00  0.00     0.161 HD
ENDBRANCH  27  28
ENDBRANCH  26  27
ENDBRANCH  25  26
ENDBRANCH  24  25
ENDBRANCH  23  24
ENDBRANCH   1  23
TORSDOF 12
ENDMDL
MODEL 2
REMARK VINA RESULT: -6.945651897      2.323      3.074
REMARK  12 active torsions:
REMARK  status: ('A' for Active; 'I' for Inactive)
REMARK    1  A    between atoms: N3_4  and  C2_6 
REMARK    2  A    between atoms: C2_6  and  C3_7 
REMARK    3  A    between atoms: C3_7  and  C4_8 
REMARK    4  A    between atoms: C4_8  and  C5_9 
REMARK    5  A    between atoms: C5_9  and  C6_10 
REMARK    6  A    between atoms: C6_10  and  C7_11 
REMARK       I    between atoms: C7_11  and  N4_13 
REMARK       I    between atoms: N5_16  and  C10_17 
REMARK    7  A    between atoms: C10_17  and  C11_19 
REMARK    8  A    between atoms: C11_19  and  N6_20 
REMARK    9  A    between atoms: C11_19  and  C12_24 
REMARK   10  A    between atoms: C12_24  and  C13_25 
REMARK   11  A    between atoms: C13_25  and  C14_26 
REMARK   12  A    between atoms: C14_26  and  N7_27 
ROOT
HETATM    1  C7  UNL     1      -4.470   0.679  15.254  1.00  0.00     0.221 C 
HETATM    2  O1  UNL     1      -4.910  -0.494  15.500  1.00  0.00    -0.273 OA
HETATM    3  N4  UNL     1      -4.134   1.072  13.938  1.00  0.00    -0.334 N 
HETATM    4  C8  UNL     1      -4.228   0.271  12.753  1.00  0.00     0.147 C 
HETATM    5  C9  UNL     1      -4.748   1.290  11.760  1.00  0.00     0.147 C 
HETATM    6  N5  UNL     1      -3.963   2.477  12.136  1.00  0.00    -0.332 N 
HETATM    7  C10 UNL     1      -3.619   3.520  11.252  1.00  0.00     0.251 C 
HETATM    8  O2  UNL     1      -4.012   3.436  10.033  1.00  0.00    -0.271 OA
HETATM    9  C16 UNL     1      -3.630   2.362  13.540  1.00  0.00     0.255 C 
ENDROOT
BRANCH   7  10
HETATM   10  C11 UNL     1      -2.833   4.717  11.624  1.00  0.00     0.275 C 
BRANCH  10  11
HETATM   11  N6  UNL     1      -3.366   5.962  11.184  1.00  0.00    -0.067 N 
ATOM     12  H63 UNL     1      -3.636   5.899  10.203  1.00  0.00     0.275 HD
ATOM     13  H62 UNL     1      -4.278   6.122  11.612  1.00  0.00     0.275 HD
ATOM     14  H61 UNL     1      -2.766   6.774  11.331  1.00  0.00     0.275 HD
ENDBRANCH  10  11
BRANCH  10  15
HETATM   15  C12 UNL     1      -1.405   4.623  11.096  1.00  0.00     0.044 C 
BRANCH  15  16
HETATM   16  C13 UNL     1      -1.175   5.697  10.069  1.00  0.00     0.022 C 
BRANCH  16  17
HETATM   17  C14 UNL     1      -0.935   5.119   8.691  1.00  0.00     0.122 C 
BRANCH  17  18
HETATM   18  N7  UNL     1      -2.163   4.709   8.064  1.00  0.00    -0.367 N 
HETATM   19  C15 UNL     1      -2.940   5.504   7.404  1.00  0.00     0.196 C 
HETATM   20  N8  UNL     1      -4.128   4.972   6.832  1.00  0.00    -0.067 NA
HETATM   21  N9  UNL     1      -2.603   6.895   7.255  1.00  0.00    -0.067 NA
ATOM     22  H7  UNL     1      -2.438   3.729   8.145  1.00  0.00     0.161 HD
ENDBRANCH  17  18
ENDBRANCH  16  17
ENDBRANCH  15  16
ENDBRANCH  10  15
ENDBRANCH   7  10
BRANCH   1  23
HETATM   23  C6  UNL     1      -4.326   1.605  16.404  1.00  0.00     0.103 C 
BRANCH  23  24
HETATM   24  C5  UNL     1      -5.583   1.404  17.292  1.00  0.00     0.009 C 
BRANCH  24  25
HETATM   25  C4  UNL     1      -6.703   2.084  16.591  1.00  0.00     0.002 C 
BRANCH  25  26
HETATM   26  C3  UNL     1      -6.613   3.552  16.539  1.00  0.00     0.020 C 
BRANCH  26  27
HETATM   27  C2  UNL     1      -6.388   4.157  15.192  1.00  0.00     0.122 C 
BRANCH  27  28
HETATM   28  N3  UNL     1      -5.240   4.992  15.179  1.00  0.00    -0.367 N 
HETATM   29  C1  UNL     1      -4.971   5.887  14.307  1.00  0.00     0.196 C 
HETATM   30  N1  UNL     1      -5.852   6.123  13.233  1.00  0.00    -0.067 NA
HETATM   31  N2  UNL     1      -3.788   6.643  14.425  1.00  0.00    -0.067 NA
ATOM     32  H3  UNL     1      -4.567   4.866  15.935  1.00  0.00     0.161 HD
ENDBRANCH  27  28
ENDBRANCH  26  27
ENDBRANCH  25  26
ENDBRANCH  24  25
ENDBRANCH  23  24
ENDBRANCH   1  23
TORSDOF 12
ENDMDL
MODEL 3
REMARK VINA RESULT: -6.800468472      1.625      2.001
REMARK  12 active torsions:
REMARK  status: ('A' for Active; 'I' for Inactive)
REMARK    1  A    between atoms: N3_4  and  C2_6 
REMARK    2  A    between atoms: C2_6  and  C3_7 
REMARK    3  A    between atoms: C3_7  and  C4_8 
REMARK    4  A    between atoms: C4_8  and  C5_9 
REMARK    5  A    between atoms: C5_9  and  C6_10 
REMARK    6  A    between atoms: C6_10  and  C7_11 
REMARK       I    between atoms: C7_11  and  N4_13 
REMARK       I    between atoms: N5_16  and  C10_17 
REMARK    7  A    between atoms: C10_17  and  C11_19 
REMARK    8  A    between atoms: C11_19  and  N6_20 
REMARK    9  A    between atoms: C11_19  and  C12_24 
REMARK   10  A    between atoms: C12_24  and  C13_25 
REMARK   11  A    between atoms: C13_25  and  C14_26 
REMARK   12  A    between atoms: C14_26  and  N7_27 
ROOT
HETATM    1  C7  UNL     1      -4.498   0.664  15.237  1.00  0.00     0.221 C 
HETATM    2  O1  UNL     1      -4.889  -0.520  15.505  1.00  0.00    -0.273 OA
HETATM    3  N4  UNL     1      -4.176   1.045  13.913  1.00  0.00    -0.334 N 
HETATM    4  C8  UNL     1      -4.232   0.216  12.745  1.00  0.00     0.147 C 
HETATM    5  C9  UNL     1      -4.792   1.191  11.730  1.00  0.00     0.147 C 
HETATM    6  N5  UNL     1      -4.060   2.418  12.083  1.00  0.00    -0.332 N 
HETATM    7  C10 UNL     1      -3.758   3.457  11.178  1.00  0.00     0.251 C 
HETATM    8  O2  UNL     1      -4.144   3.330   9.960  1.00  0.00    -0.271 OA
HETATM    9  C16 UNL     1      -3.726   2.346  13.489  1.00  0.00     0.255 C 
ENDROOT
BRANCH   7  10
HETATM   10  C11 UNL     1      -3.026   4.693  11.527  1.00  0.00     0.275 C 
BRANCH  10  11
HETATM   11  N6  UNL     1      -3.582   5.901  11.016  1.00  0.00    -0.067 N 
ATOM     12  H63 UNL     1      -2.838   6.518  10.692  1.00  0.00     0.275 HD
ATOM     13  H62 UNL     1      -4.062   5.719  10.135  1.00  0.00     0.275 HD
ATOM     14  H61 UNL     1      -4.202   6.403  11.652  1.00  0.00     0.275 HD
ENDBRANCH  10  11
BRANCH  10  15
HETATM   15  C12 UNL     1      -1.577   4.626  11.054  1.00  0.00     0.044 C 
BRANCH  15  16
HETATM   16  C13 UNL     1      -0.654   4.791  12.231  1.00  0.00     0.022 C 
BRANCH  16  17
HETATM   17  C14 UNL     1      -0.022   6.166  12.264  1.00  0.00     0.122 C 
BRANCH  17  18
HETATM   18  N7  UNL     1      -0.824   7.103  13.004  1.00  0.00    -0.367 N 
HETATM   19  C15 UNL     1      -0.409   8.267  13.386  1.00  0.00     0.196 C 
HETATM   20  N8  UNL     1      -1.303   9.099  14.115  1.00  0.00    -0.067 NA
HETATM   21  N9  UNL     1       0.926   8.704  13.078  1.00  0.00    -0.067 NA
ATOM     22  H7  UNL     1      -1.778   6.833  13.243  1.00  0.00     0.161 HD
ENDBRANCH  17  18
ENDBRANCH  16  17
ENDBRANCH  15  16
ENDBRANCH  10  15
ENDBRANCH   7  10
BRANCH   1  23
HETATM   23  C6  UNL     1      -4.398   1.620  16.367  1.00  0.00     0.103 C 
BRANCH  23  24
HETATM   24  C5  UNL     1      -5.653   1.391  17.251  1.00  0.00     0.009 C 
BRANCH  24  25
HETATM   25  C4  UNL     1      -6.765   2.128  16.597  1.00  0.00     0.002 C 
BRANCH  25  26
HETATM   26  C3  UNL     1      -6.600   3.589  16.535  1.00  0.00     0.020 C 
BRANCH  26  27
HETATM   27  C2  UNL     1      -6.395   4.178  15.178  1.00  0.00     0.122 C 
BRANCH  27  28
HETATM   28  N3  UNL     1      -5.225   4.981  15.128  1.00  0.00    -0.367 N 
HETATM   29  C1  UNL     1      -4.972   5.888  14.264  1.00  0.00     0.196 C 
HETATM   30  N1  UNL     1      -5.894   6.172  13.237  1.00  0.00    -0.067 NA
HETATM   31  N2  UNL     1      -3.762   6.607  14.340  1.00  0.00    -0.067 NA
ATOM     32  H3  UNL     1      -4.522   4.820  15.848  1.00  0.00     0.161 HD
ENDBRANCH  27  28
ENDBRANCH  26  27
ENDBRANCH  25  26
ENDBRANCH  24  25
ENDBRANCH  23  24
ENDBRANCH   1  23
TORSDOF 12
ENDMDL
MODEL 4
REMARK VINA RESULT: -6.399002303      5.055      8.035
REMARK  12 active torsions:
REMARK  status: ('A' for Active; 'I' for Inactive)
REMARK    1  A    between atoms: N3_4  and  C2_6 
REMARK    2  A    between atoms: C2_6  and  C3_7 
REMARK    3  A    between atoms: C3_7  and  C4_8 
REMARK    4  A    between atoms: C4_8  and  C5_9 
REMARK    5  A    between atoms: C5_9  and  C6_10 
REMARK    6  A    between atoms: C6_10  and  C7_11 
REMARK       I    between atoms: C7_11  and  N4_13 
REMARK       I    between atoms: N5_16  and  C10_17 
REMARK    7  A    between atoms: C10_17  and  C11_19 
REMARK    8  A    between atoms: C11_19  and  N6_20 
REMARK    9  A    between atoms: C11_19  and  C12_24 
REMARK   10  A    between atoms: C12_24  and  C13_25 
REMARK   11  A    between atoms: C13_25  and  C14_26 
REMARK   12  A    between atoms: C14_26  and  N7_27 
ROOT
HETATM    1  C7  UNL     1      -4.375   6.330  13.935  1.00  0.00     0.221 C 
HETATM    2  O1  UNL     1      -3.306   6.410  14.627  1.00  0.00    -0.273 OA
HETATM    3  N4  UNL     1      -4.413   6.782  12.595  1.00  0.00    -0.334 N 
HETATM    4  C8  UNL     1      -3.332   7.362  11.854  1.00  0.00     0.147 C 
HETATM    5  C9  UNL     1      -3.537   6.718  10.498  1.00  0.00     0.147 C 
HETATM    6  N5  UNL     1      -5.004   6.768  10.381  1.00  0.00    -0.332 N 
HETATM    7  C10 UNL     1      -5.706   6.827   9.160  1.00  0.00     0.251 C 
HETATM    8  O2  UNL     1      -5.027   6.841   8.070  1.00  0.00    -0.271 OA
HETATM    9  C16 UNL     1      -5.556   6.745  11.719  1.00  0.00     0.255 C 
ENDROOT
BRANCH   7  10
HETATM   10  C11 UNL     1      -7.179   6.875   9.035  1.00  0.00     0.275 C 
BRANCH  10  11
HETATM   11  N6  UNL     1      -7.719   6.225   7.889  1.00  0.00    -0.067 N 
ATOM     12  H63 UNL     1      -7.974   5.265   8.120  1.00  0.00     0.275 HD
ATOM     13  H62 UNL     1      -8.639   6.608   7.671  1.00  0.00     0.275 HD
ATOM     14  H61 UNL     1      -7.130   6.240   7.056  1.00  0.00     0.275 HD
ENDBRANCH  10  11
BRANCH  10  15
HETATM   15  C12 UNL     1      -7.684   8.315   9.021  1.00  0.00     0.044 C 
BRANCH  15  16
HETATM   16  C13 UNL     1      -8.119   8.683   7.629  1.00  0.00     0.022 C 
BRANCH  16  17
HETATM   17  C14 UNL     1      -9.326   9.598   7.639  1.00  0.00     0.122 C 
BRANCH  17  18
HETATM   18  N7  UNL     1      -8.943  10.982   7.725  1.00  0.00    -0.367 N 
HETATM   19  C15 UNL     1      -9.774  11.951   7.936  1.00  0.00     0.196 C 
HETATM   20  N8  UNL     1      -9.266  13.278   7.997  1.00  0.00    -0.067 NA
HETATM   21  N9  UNL     1     -11.177  11.685   8.103  1.00  0.00    -0.067 NA
ATOM     22  H7  UNL     1      -7.956  11.214   7.612  1.00  0.00     0.161 HD
ENDBRANCH  17  18
ENDBRANCH  16  17
ENDBRANCH  15  16
ENDBRANCH  10  15
ENDBRANCH   7  10
BRANCH   1  23
HETATM   23  C6  UNL     1      -5.569   5.746  14.593  1.00  0.00     0.103 C 
BRANCH  23  24
HETATM   24  C5  UNL     1      -5.143   4.351  15.122  1.00  0.00     0.009 C 
BRANCH  24  25
HETATM   25  C4  UNL     1      -6.386   3.543  15.218  1.00  0.00     0.002 C 
BRANCH  25  26
HETATM   26  C3  UNL     1      -6.788   3.168  16.583  1.00  0.00     0.020 C 
BRANCH  26  27
HETATM   27  C2  UNL     1      -5.970   2.112  17.251  1.00  0.00     0.122 C 
BRANCH  27  28
HETATM   28  N3  UNL     1      -5.777   0.987  16.407  1.00  0.00    -0.367 N 
HETATM   29  C1  UNL     1      -4.660   0.582  15.936  1.00  0.00     0.196 C 
HETATM   30  N1  UNL     1      -3.467   1.267  16.243  1.00  0.00    -0.067 NA
HETATM   31  N2  UNL     1      -4.623  -0.556  15.107  1.00  0.00    -0.067 NA
ATOM     32  H3  UNL     1      -6.607   0.452  16.152  1.00  0.00     0.161 HD
ENDBRANCH  27  28
ENDBRANCH  26  27
ENDBRANCH  25  26
ENDBRANCH  24  25
ENDBRANCH  23  24
ENDBRANCH   1  23
TORSDOF 12
ENDMDL
MODEL 5
REMARK VINA RESULT: -6.293672264      2.749      4.930
REMARK  12 active torsions:
REMARK  status: ('A' for Active; 'I' for Inactive)
REMARK    1  A    between atoms: N3_4  and  C2_6 
REMARK    2  A    between atoms: C2_6  and  C3_7 
REMARK    3  A    between atoms: C3_7  and  C4_8 
REMARK    4  A    between atoms: C4_8  and  C5_9 
REMARK    5  A    between atoms: C5_9  and  C6_10 
REMARK    6  A    between atoms: C6_10  and  C7_11 
REMARK       I    between atoms: C7_11  and  N4_13 
REMARK       I    between atoms: N5_16  and  C10_17 
REMARK    7  A    between atoms: C10_17  and  C11_19 
REMARK    8  A    between atoms: C11_19  and  N6_20 
REMARK    9  A    between atoms: C11_19  and  C12_24 
REMARK   10  A    between atoms: C12_24  and  C13_25 
REMARK   11  A    between atoms: C13_25  and  C14_26 
REMARK   12  A    between atoms: C14_26  and  N7_27 
ROOT
HETATM    1  C7  UNL     1      -4.930   6.221  12.960  1.00  0.00     0.221 C 
HETATM    2  O1  UNL     1      -6.119   6.619  12.721  1.00  0.00    -0.273 OA
HETATM    3  N4  UNL     1      -4.045   5.891  11.906  1.00  0.00    -0.334 N 
HETATM    4  C8  UNL     1      -4.325   5.946  10.502  1.00  0.00     0.147 C 
HETATM    5  C9  UNL     1      -3.018   6.497   9.972  1.00  0.00     0.147 C 
HETATM    6  N5  UNL     1      -2.046   5.760  10.796  1.00  0.00    -0.332 N 
HETATM    7  C10 UNL     1      -0.731   5.448  10.393  1.00  0.00     0.251 C 
HETATM    8  O2  UNL     1      -0.347   5.829   9.229  1.00  0.00    -0.271 OA
HETATM    9  C16 UNL     1      -2.687   5.432  12.051  1.00  0.00     0.255 C 
ENDROOT
BRANCH   7  10
HETATM   10  C11 UNL     1       0.251   4.711  11.217  1.00  0.00     0.275 C 
BRANCH  10  11
HETATM   11  N6  UNL     1       1.033   5.508  12.101  1.00  0.00    -0.067 N 
ATOM     12  H63 UNL     1       1.617   6.151  11.567  1.00  0.00     0.275 HD
ATOM     13  H62 UNL     1       0.436   6.172  12.593  1.00  0.00     0.275 HD
ATOM     14  H61 UNL     1       1.604   4.991  12.770  1.00  0.00     0.275 HD
ENDBRANCH  10  11
BRANCH  10  15
HETATM   15  C12 UNL     1       1.220   3.920  10.342  1.00  0.00     0.044 C 
BRANCH  15  16
HETATM   16  C13 UNL     1       2.552   4.617  10.307  1.00  0.00     0.022 C 
BRANCH  16  17
HETATM   17  C14 UNL     1       3.423   4.112   9.176  1.00  0.00     0.122 C 
BRANCH  17  18
HETATM   18  N7  UNL     1       2.758   3.099   8.403  1.00  0.00    -0.367 N 
HETATM   19  C15 UNL     1       3.310   1.987   8.039  1.00  0.00     0.196 C 
HETATM   20  N8  UNL     1       2.541   1.067   7.274  1.00  0.00    -0.067 NA
HETATM   21  N9  UNL     1       4.670   1.694   8.404  1.00  0.00    -0.067 NA
ATOM     22  H7  UNL     1       1.791   3.267   8.124  1.00  0.00     0.161 HD
ENDBRANCH  17  18
ENDBRANCH  16  17
ENDBRANCH  15  16
ENDBRANCH  10  15
ENDBRANCH   7  10
BRANCH   1  23
HETATM   23  C6  UNL     1      -4.519   6.121  14.381  1.00  0.00     0.103 C 
BRANCH  23  24
HETATM   24  C5  UNL     1      -5.708   5.472  15.139  1.00  0.00     0.009 C 
BRANCH  24  25
HETATM   25  C4  UNL     1      -5.496   4.003  15.070  1.00  0.00     0.002 C 
BRANCH  25  26
HETATM   26  C3  UNL     1      -4.102   3.561  15.239  1.00  0.00     0.020 C 
BRANCH  26  27
HETATM   27  C2  UNL     1      -3.894   2.297  16.007  1.00  0.00     0.122 C 
BRANCH  27  28
HETATM   28  N3  UNL     1      -5.111   1.808  16.550  1.00  0.00    -0.367 N 
HETATM   29  C1  UNL     1      -5.590   0.635  16.386  1.00  0.00     0.196 C 
HETATM   30  N1  UNL     1      -4.899  -0.315  15.608  1.00  0.00    -0.067 NA
HETATM   31  N2  UNL     1      -6.816   0.290  16.990  1.00  0.00    -0.067 NA
ATOM     32  H3  UNL     1      -5.654   2.453  17.124  1.00  0.00     0.161 HD
ENDBRANCH  27  28
ENDBRANCH  26  27
ENDBRANCH  25  26
ENDBRANCH  24  25
ENDBRANCH  23  24
ENDBRANCH   1  23
TORSDOF 12
ENDMDL
