MODEL 1
REMARK VINA RESULT: -6.145291295      0.000      0.000
REMARK  14 active torsions:
REMARK  status: ('A' for Active; 'I' for Inactive)
REMARK    1  A    between atoms: C2_2  and  N1_3 
REMARK    2  A    between atoms: N1_3  and  C3_4 
REMARK    3  A    between atoms: N1_3  and  C8_12 
REMARK       I    between atoms: N1_3  and  C16_26 
REMARK    4  A    between atoms: C3_4  and  C4_5 
REMARK    5  A    between atoms: C4_5  and  N2_6 
REMARK    6  A    between atoms: N2_6  and  C5_9 
REMARK    7  A    between atoms: C8_12  and  C9_13 
REMARK    8  A    between atoms: C9_13  and  S1_14 
REMARK    9  A    between atoms: S1_14  and  C10_16 
REMARK   10  A    between atoms: C10_16  and  C11_17 
REMARK   11  A    between atoms: C14_21  and  C15_22 
REMARK   12  A    between atoms: C15_22  and  O2_23 
REMARK   13  A    between atoms: C16_26  and  C17_28 
REMARK   14  A    between atoms: C17_28  and  O5_29 
ROOT
HETATM    1  N1  UNL     1      -4.288   2.855  14.822  1.00  0.00    -0.001 N 
HETATM    2  C16 UNL     1      -4.192   1.854  15.777  1.00  0.00     0.341 C 
HETATM    3  O4  UNL     1      -3.168   1.833  16.494  1.00  0.00    -0.263 OA
ENDROOT
BRANCH   1   4
HETATM    4  C2  UNL     1      -5.528   3.505  14.602  1.00  0.00     0.243 C 
HETATM    5  C1  UNL     1      -5.947   4.616  15.475  1.00  0.00     0.035 C 
ENDBRANCH   1   4
BRANCH   1   6
HETATM    6  C3  UNL     1      -3.333   3.918  15.206  1.00  0.00     0.274 C 
BRANCH   6   7
HETATM    7  C4  UNL     1      -2.439   4.362  14.108  1.00  0.00     0.261 C 
BRANCH   7   8
HETATM    8  N2  UNL     1      -1.953   5.710  14.354  1.00  0.00    -0.070 N 
ATOM      9  H22 UNL     1      -1.339   5.737  15.168  1.00  0.00     0.277 HD
ATOM     10  H21 UNL     1      -1.287   5.998  13.637  1.00  0.00     0.277 HD
BRANCH   8  11
HETATM   11  C5  UNL     1      -3.024   6.663  14.479  1.00  0.00     0.177 C 
HETATM   12  C6  UNL     1      -2.613   7.964  15.080  1.00  0.00     0.039 C 
HETATM   13  C7  UNL     1      -3.706   6.937  13.164  1.00  0.00     0.039 C 
ENDBRANCH   8  11
ENDBRANCH   7   8
ENDBRANCH   6   7
ENDBRANCH   1   6
BRANCH   1  14
HETATM   14  C8  UNL     1      -3.726   2.429  13.516  1.00  0.00     0.260 C 
BRANCH  14  15
HETATM   15  C9  UNL     1      -4.484   1.394  12.807  1.00  0.00     0.137 C 
BRANCH  15  16
HETATM   16  S1  UNL     1      -5.082   2.141  11.279  1.00  0.00     0.019 S 
HETATM   17  O1  UNL     1      -4.716   1.128  10.027  1.00  0.00    -0.258 OA
BRANCH  16  18
HETATM   18  C10 UNL     1      -4.440   3.778  11.107  1.00  0.00     0.142 C 
BRANCH  18  19
HETATM   19  C11 UNL     1      -3.277   3.858  10.169  1.00  0.00     0.164 C 
HETATM   20  C12 UNL     1      -2.230   4.842  10.560  1.00  0.00     0.307 C 
HETATM   21  N3  UNL     1      -1.986   5.577   9.357  1.00  0.00     0.117 N 
HETATM   22  C13 UNL     1      -0.668   5.409   8.817  1.00  0.00     0.313 C 
HETATM   23  C14 UNL     1      -3.028   5.251   8.446  1.00  0.00     0.382 C 
HETATM   24  O3  UNL     1      -3.716   4.167   8.907  1.00  0.00    -0.347 OA
BRANCH  23  25
HETATM   25  C15 UNL     1      -3.980   6.415   8.256  1.00  0.00     0.228 C 
BRANCH  25  26
HETATM   26  O2  UNL     1      -5.284   5.928   8.191  1.00  0.00    -0.396 OA
ATOM     27  H2  UNL     1      -5.759   6.407   7.522  1.00  0.00     0.209 HD
ENDBRANCH  25  26
ENDBRANCH  23  25
ENDBRANCH  18  19
ENDBRANCH  16  18
ENDBRANCH  15  16
ENDBRANCH  14  15
ENDBRANCH   1  14
BRANCH   2  28
HETATM   28  C17 UNL     1      -5.119   0.758  16.116  1.00  0.00     0.275 C 
BRANCH  28  29
HETATM   29  O5  UNL     1      -4.789  -0.457  15.455  1.00  0.00    -0.392 OA
ATOM     30  H5  UNL     1      -3.856  -0.636  15.470  1.00  0.00     0.210 HD
ENDBRANCH  28  29
ENDBRANCH   2  28
TORSDOF 14
ENDMDL
MODEL 2
REMARK VINA RESULT: -6.051767794      3.173      5.029
REMARK  14 active torsions:
REMARK  status: ('A' for Active; 'I' for Inactive)
REMARK    1  A    between atoms: C2_2  and  N1_3 
REMARK    2  A    between atoms: N1_3  and  C3_4 
REMARK    3  A    between atoms: N1_3  and  C8_12 
REMARK       I    between atoms: N1_3  and  C16_26 
REMARK    4  A    between atoms: C3_4  and  C4_5 
REMARK    5  A    between atoms: C4_5  and  N2_6 
REMARK    6  A    between atoms: N2_6  and  C5_9 
REMARK    7  A    between atoms: C8_12  and  C9_13 
REMARK    8  A    between atoms: C9_13  and  S1_14 
REMARK    9  A    between atoms: S1_14  and  C10_16 
REMARK   10  A    between atoms: C10_16  and  C11_17 
REMARK   11  A    between atoms: C14_21  and  C15_22 
REMARK   12  A    between atoms: C15_22  and  O2_23 
REMARK   13  A    between atoms: C16_26  and  C17_28 
REMARK   14  A    between atoms: C17_28  and  O5_29 
ROOT
HETATM    1  N1  UNL     1      -3.761   4.137  12.963  1.00  0.00    -0.001 N 
HETATM    2  C16 UNL     1      -3.864   2.884  12.379  1.00  0.00     0.341 C 
HETATM    3  O4  UNL     1      -2.976   2.045  12.646  1.00  0.00    -0.263 OA
ENDROOT
BRANCH   1   4
HETATM    4  C2  UNL     1      -4.922   4.784  13.456  1.00  0.00     0.243 C 
HETATM    5  C1  UNL     1      -5.149   6.213  13.175  1.00  0.00     0.035 C 
ENDBRANCH   1   4
BRANCH   1   6
HETATM    6  C3  UNL     1      -2.846   4.007  14.119  1.00  0.00     0.274 C 
BRANCH   6   7
HETATM    7  C4  UNL     1      -3.523   3.704  15.404  1.00  0.00     0.261 C 
BRANCH   7   8
HETATM    8  N2  UNL     1      -3.198   2.360  15.853  1.00  0.00    -0.070 N 
ATOM      9  H22 UNL     1      -2.626   1.871  15.165  1.00  0.00     0.277 HD
ATOM     10  H21 UNL     1      -2.537   2.381  16.630  1.00  0.00     0.277 HD
BRANCH   8  11
HETATM   11  C5  UNL     1      -4.370   1.597  16.190  1.00  0.00     0.177 C 
HETATM   12  C6  UNL     1      -5.643   2.368  16.107  1.00  0.00     0.039 C 
HETATM   13  C7  UNL     1      -4.507   0.353  15.350  1.00  0.00     0.039 C 
ENDBRANCH   8  11
ENDBRANCH   7   8
ENDBRANCH   6   7
ENDBRANCH   1   6
BRANCH   1  14
HETATM   14  C8  UNL     1      -3.003   5.085  12.109  1.00  0.00     0.260 C 
BRANCH  14  15
HETATM   15  C9  UNL     1      -1.547   5.058  12.270  1.00  0.00     0.137 C 
BRANCH  15  16
HETATM   16  S1  UNL     1      -0.843   4.869  10.621  1.00  0.00     0.019 S 
HETATM   17  O1  UNL     1      -1.976   4.163   9.650  1.00  0.00    -0.258 OA
BRANCH  16  18
HETATM   18  C10 UNL     1       0.691   3.996  10.709  1.00  0.00     0.142 C 
BRANCH  18  19
HETATM   19  C11 UNL     1       1.719   4.521   9.757  1.00  0.00     0.164 C 
HETATM   20  C12 UNL     1       1.228   4.736   8.368  1.00  0.00     0.307 C 
HETATM   21  N3  UNL     1       2.223   4.110   7.552  1.00  0.00     0.117 N 
HETATM   22  C13 UNL     1       2.954   5.012   6.711  1.00  0.00     0.313 C 
HETATM   23  C14 UNL     1       3.044   3.332   8.413  1.00  0.00     0.382 C 
HETATM   24  O3  UNL     1       2.791   3.667   9.712  1.00  0.00    -0.347 OA
BRANCH  23  25
HETATM   25  C15 UNL     1       2.804   1.849   8.215  1.00  0.00     0.228 C 
BRANCH  25  26
HETATM   26  O2  UNL     1       2.176   1.651   6.987  1.00  0.00    -0.396 OA
ATOM     27  H2  UNL     1       1.494   0.998   7.090  1.00  0.00     0.209 HD
ENDBRANCH  25  26
ENDBRANCH  23  25
ENDBRANCH  18  19
ENDBRANCH  16  18
ENDBRANCH  15  16
ENDBRANCH  14  15
ENDBRANCH   1  14
BRANCH   2  28
HETATM   28  C17 UNL     1      -4.874   2.335  11.455  1.00  0.00     0.275 C 
BRANCH  28  29
HETATM   29  O5  UNL     1      -4.519   2.519  10.090  1.00  0.00    -0.392 OA
ATOM     30  H5  UNL     1      -4.880   1.845   9.527  1.00  0.00     0.210 HD
ENDBRANCH  28  29
ENDBRANCH   2  28
TORSDOF 14
ENDMDL
MODEL 3
REMARK VINA RESULT: -5.946160311      1.788      2.207
REMARK  14 active torsions:
REMARK  status: ('A' for Active; 'I' for Inactive)
REMARK    1  A    between atoms: C2_2  and  N1_3 
REMARK    2  A    between atoms: N1_3  and  C3_4 
REMARK    3  A    between atoms: N1_3  and  C8_12 
REMARK       I    between atoms: N1_3  and  C16_26 
REMARK    4  A    between atoms: C3_4  and  C4_5 
REMARK    5  A    between atoms: C4_5  and  N2_6 
REMARK    6  A    between atoms: N2_6  and  C5_9 
REMARK    7  A    between atoms: C8_12  and  C9_13 
REMARK    8  A    between atoms: C9_13  and  S1_14 
REMARK    9  A    between atoms: S1_14  and  C10_16 
REMARK   10  A    between atoms: C10_16  and  C11_17 
REMARK   11  A    between atoms: C14_21  and  C15_22 
REMARK   12  A    between atoms: C15_22  and  O2_23 
REMARK   13  A    between atoms: C16_26  and  C17_28 
REMARK   14  A    between atoms: C17_28  and  O5_29 
ROOT
HETATM    1  N1  UNL     1      -4.592   2.624  15.284  1.00  0.00    -0.001 N 
HETATM    2  C16 UNL     1      -4.624   1.602  16.220  1.00  0.00     0.341 C 
HETATM    3  O4  UNL     1      -3.639   0.834  16.274  1.00  0.00    -0.263 OA
ENDROOT
BRANCH   1   4
HETATM    4  C2  UNL     1      -5.070   3.913  15.629  1.00  0.00     0.243 C 
HETATM    5  C1  UNL     1      -6.319   4.424  15.036  1.00  0.00     0.035 C 
ENDBRANCH   1   4
BRANCH   1   6
HETATM    6  C3  UNL     1      -3.180   2.806  14.884  1.00  0.00     0.274 C 
BRANCH   6   7
HETATM    7  C4  UNL     1      -2.676   4.194  15.032  1.00  0.00     0.261 C 
BRANCH   7   8
HETATM    8  N2  UNL     1      -1.487   4.400  14.220  1.00  0.00    -0.070 N 
ATOM      9  H22 UNL     1      -0.651   4.463  14.801  1.00  0.00     0.277 HD
ATOM     10  H21 UNL     1      -1.255   3.560  13.689  1.00  0.00     0.277 HD
BRANCH   8  11
HETATM   11  C5  UNL     1      -1.606   5.543  13.355  1.00  0.00     0.177 C 
HETATM   12  C6  UNL     1      -1.874   6.823  14.072  1.00  0.00     0.039 C 
HETATM   13  C7  UNL     1      -0.395   5.730  12.479  1.00  0.00     0.039 C 
ENDBRANCH   8  11
ENDBRANCH   7   8
ENDBRANCH   6   7
ENDBRANCH   1   6
BRANCH   1  14
HETATM   14  C8  UNL     1      -5.200   2.212  13.994  1.00  0.00     0.260 C 
BRANCH  14  15
HETATM   15  C9  UNL     1      -4.267   1.689  12.992  1.00  0.00     0.137 C 
BRANCH  15  16
HETATM   16  S1  UNL     1      -4.690   2.474  11.425  1.00  0.00     0.019 S 
HETATM   17  O1  UNL     1      -4.850   1.296  10.280  1.00  0.00    -0.258 OA
BRANCH  16  18
HETATM   18  C10 UNL     1      -3.506   3.724  11.028  1.00  0.00     0.142 C 
BRANCH  18  19
HETATM   19  C11 UNL     1      -4.053   4.787  10.130  1.00  0.00     0.164 C 
HETATM   20  C12 UNL     1      -3.169   5.973   9.959  1.00  0.00     0.307 C 
HETATM   21  N3  UNL     1      -4.043   7.086  10.172  1.00  0.00     0.117 N 
HETATM   22  C13 UNL     1      -4.241   7.913   9.019  1.00  0.00     0.313 C 
HETATM   23  C14 UNL     1      -5.247   6.573  10.728  1.00  0.00     0.382 C 
HETATM   24  O3  UNL     1      -5.268   5.215  10.601  1.00  0.00    -0.347 OA
BRANCH  23  25
HETATM   25  C15 UNL     1      -5.386   6.949  12.189  1.00  0.00     0.228 C 
BRANCH  25  26
HETATM   26  O2  UNL     1      -6.735   6.920  12.539  1.00  0.00    -0.396 OA
ATOM     27  H2  UNL     1      -6.914   6.116  13.012  1.00  0.00     0.209 HD
ENDBRANCH  25  26
ENDBRANCH  23  25
ENDBRANCH  18  19
ENDBRANCH  16  18
ENDBRANCH  15  16
ENDBRANCH  14  15
ENDBRANCH   1  14
BRANCH   2  28
HETATM   28  C17 UNL     1      -5.657   1.236  17.208  1.00  0.00     0.275 C 
BRANCH  28  29
HETATM   29  O5  UNL     1      -5.984  -0.147  17.165  1.00  0.00    -0.392 OA
ATOM     30  H5  UNL     1      -5.537  -0.646  17.839  1.00  0.00     0.210 HD
ENDBRANCH  28  29
ENDBRANCH   2  28
TORSDOF 14
ENDMDL
MODEL 4
REMARK VINA RESULT: -5.910597136      2.286      4.420
REMARK  14 active torsions:
REMARK  status: ('A' for Active; 'I' for Inactive)
REMARK    1  A    between atoms: C2_2  and  N1_3 
REMARK    2  A    between atoms: N1_3  and  C3_4 
REMARK    3  A    between atoms: N1_3  and  C8_12 
REMARK       I    between atoms: N1_3  and  C16_26 
REMARK    4  A    between atoms: C3_4  and  C4_5 
REMARK    5  A    between atoms: C4_5  and  N2_6 
REMARK    6  A    between atoms: N2_6  and  C5_9 
REMARK    7  A    between atoms: C8_12  and  C9_13 
REMARK    8  A    between atoms: C9_13  and  S1_14 
REMARK    9  A    between atoms: S1_14  and  C10_16 
REMARK   10  A    between atoms: C10_16  and  C11_17 
REMARK   11  A    between atoms: C14_21  and  C15_22 
REMARK   12  A    between atoms: C15_22  and  O2_23 
REMARK   13  A    between atoms: C16_26  and  C17_28 
REMARK   14  A    between atoms: C17_28  and  O5_29 
ROOT
HETATM    1  N1  UNL     1      -4.446   2.897  14.201  1.00  0.00    -0.001 N 
HETATM    2  C16 UNL     1      -4.153   2.387  12.945  1.00  0.00     0.341 C 
HETATM    3  O4  UNL     1      -3.366   1.418  12.882  1.00  0.00    -0.263 OA
ENDROOT
BRANCH   1   4
HETATM    4  C2  UNL     1      -5.772   3.287  14.514  1.00  0.00     0.243 C 
HETATM    5  C1  UNL     1      -6.018   4.492  15.326  1.00  0.00     0.035 C 
ENDBRANCH   1   4
BRANCH   1   6
HETATM    6  C3  UNL     1      -4.082   1.859  15.190  1.00  0.00     0.274 C 
BRANCH   6   7
HETATM    7  C4  UNL     1      -5.228   1.052  15.679  1.00  0.00     0.261 C 
BRANCH   7   8
HETATM    8  N2  UNL     1      -5.074   0.745  17.092  1.00  0.00    -0.070 N 
ATOM      9  H22 UNL     1      -4.702  -0.195  17.226  1.00  0.00     0.277 HD
ATOM     10  H21 UNL     1      -4.312   1.283  17.505  1.00  0.00     0.277 HD
BRANCH   8  11
HETATM   11  C5  UNL     1      -6.297   0.929  17.828  1.00  0.00     0.177 C 
HETATM   12  C6  UNL     1      -6.267   2.075  18.781  1.00  0.00     0.039 C 
HETATM   13  C7  UNL     1      -7.493   1.087  16.926  1.00  0.00     0.039 C 
ENDBRANCH   8  11
ENDBRANCH   7   8
ENDBRANCH   6   7
ENDBRANCH   1   6
BRANCH   1  14
HETATM   14  C8  UNL     1      -3.517   3.989  14.585  1.00  0.00     0.260 C 
BRANCH  14  15
HETATM   15  C9  UNL     1      -2.753   4.587  13.486  1.00  0.00     0.137 C 
BRANCH  15  16
HETATM   16  S1  UNL     1      -3.301   6.299  13.340  1.00  0.00     0.019 S 
HETATM   17  O1  UNL     1      -3.410   6.941  14.857  1.00  0.00    -0.258 OA
BRANCH  16  18
HETATM   18  C10 UNL     1      -4.795   6.384  12.400  1.00  0.00     0.142 C 
BRANCH  18  19
HETATM   19  C11 UNL     1      -4.592   6.933  11.024  1.00  0.00     0.164 C 
HETATM   20  C12 UNL     1      -5.340   6.217   9.953  1.00  0.00     0.307 C 
HETATM   21  N3  UNL     1      -4.355   5.991   8.940  1.00  0.00     0.117 N 
HETATM   22  C13 UNL     1      -4.599   6.685   7.710  1.00  0.00     0.313 C 
HETATM   23  C14 UNL     1      -3.086   6.271   9.518  1.00  0.00     0.382 C 
HETATM   24  O3  UNL     1      -3.258   6.917  10.708  1.00  0.00    -0.347 OA
BRANCH  23  25
HETATM   25  C15 UNL     1      -2.286   5.003   9.738  1.00  0.00     0.228 C 
BRANCH  25  26
HETATM   26  O2  UNL     1      -2.795   3.998   8.919  1.00  0.00    -0.396 OA
ATOM     27  H2  UNL     1      -3.583   3.645   9.315  1.00  0.00     0.209 HD
ENDBRANCH  25  26
ENDBRANCH  23  25
ENDBRANCH  18  19
ENDBRANCH  16  18
ENDBRANCH  15  16
ENDBRANCH  14  15
ENDBRANCH   1  14
BRANCH   2  28
HETATM   28  C17 UNL     1      -4.621   2.800  11.608  1.00  0.00     0.275 C 
BRANCH  28  29
HETATM   29  O5  UNL     1      -5.790   2.099  11.202  1.00  0.00    -0.392 OA
ATOM     30  H5  UNL     1      -6.566   2.646  11.223  1.00  0.00     0.210 HD
ENDBRANCH  28  29
ENDBRANCH   2  28
TORSDOF 14
ENDMDL
MODEL 5
REMARK VINA RESULT: -5.892519586      2.129      2.678
REMARK  14 active torsions:
REMARK  status: ('A' for Active; 'I' for Inactive)
REMARK    1  A    between atoms: C2_2  and  N1_3 
REMARK    2  A    between atoms: N1_3  and  C3_4 
REMARK    3  A    between atoms: N1_3  and  C8_12 
REMARK       I    between atoms: N1_3  and  C16_26 
REMARK    4  A    between atoms: C3_4  and  C4_5 
REMARK    5  A    between atoms: C4_5  and  N2_6 
REMARK    6  A    between atoms: N2_6  and  C5_9 
REMARK    7  A    between atoms: C8_12  and  C9_13 
REMARK    8  A    between atoms: C9_13  and  S1_14 
REMARK    9  A    between atoms: S1_14  and  C10_16 
REMARK   10  A    between atoms: C10_16  and  C11_17 
REMARK   11  A    between atoms: C14_21  and  C15_22 
REMARK   12  A    between atoms: C15_22  and  O2_23 
REMARK   13  A    between atoms: C16_26  and  C17_28 
REMARK   14  A    between atoms: C17_28  and  O5_29 
ROOT
HETATM    1  N1  UNL     1      -4.232   2.853  14.730  1.00  0.00    -0.001 N 
HETATM    2  C16 UNL     1      -4.176   1.805  15.636  1.00  0.00     0.341 C 
HETATM    3  O4  UNL     1      -3.123   1.663  16.295  1.00  0.00    -0.263 OA
ENDROOT
BRANCH   1   4
HETATM    4  C2  UNL     1      -5.419   3.616  14.605  1.00  0.00     0.243 C 
HETATM    5  C1  UNL     1      -6.278   3.848  15.780  1.00  0.00     0.035 C 
ENDBRANCH   1   4
BRANCH   1   6
HETATM    6  C3  UNL     1      -3.169   3.811  15.104  1.00  0.00     0.274 C 
BRANCH   6   7
HETATM    7  C4  UNL     1      -3.354   5.176  14.552  1.00  0.00     0.261 C 
BRANCH   7   8
HETATM    8  N2  UNL     1      -2.152   5.620  13.864  1.00  0.00    -0.070 N 
ATOM      9  H22 UNL     1      -1.312   5.300  14.347  1.00  0.00     0.277 HD
ATOM     10  H21 UNL     1      -2.030   5.126  12.980  1.00  0.00     0.277 HD
BRANCH   8  11
HETATM   11  C5  UNL     1      -2.126   7.045  13.669  1.00  0.00     0.177 C 
HETATM   12  C6  UNL     1      -2.526   7.831  14.872  1.00  0.00     0.039 C 
HETATM   13  C7  UNL     1      -0.782   7.537  13.200  1.00  0.00     0.039 C 
ENDBRANCH   8  11
ENDBRANCH   7   8
ENDBRANCH   6   7
ENDBRANCH   1   6
BRANCH   1  14
HETATM   14  C8  UNL     1      -3.776   2.440  13.379  1.00  0.00     0.260 C 
BRANCH  14  15
HETATM   15  C9  UNL     1      -4.721   2.692  12.287  1.00  0.00     0.137 C 
BRANCH  15  16
HETATM   16  S1  UNL     1      -3.881   3.764  11.107  1.00  0.00     0.019 S 
HETATM   17  O1  UNL     1      -2.253   3.618  11.336  1.00  0.00    -0.258 OA
BRANCH  16  18
HETATM   18  C10 UNL     1      -4.494   5.417  11.240  1.00  0.00     0.142 C 
BRANCH  18  19
HETATM   19  C11 UNL     1      -5.141   5.906   9.983  1.00  0.00     0.164 C 
HETATM   20  C12 UNL     1      -4.477   7.086   9.361  1.00  0.00     0.307 C 
HETATM   21  N3  UNL     1      -5.557   7.986   9.097  1.00  0.00     0.117 N 
HETATM   22  C13 UNL     1      -5.794   8.236   7.706  1.00  0.00     0.313 C 
HETATM   23  C14 UNL     1      -6.694   7.495   9.796  1.00  0.00     0.382 C 
HETATM   24  O3  UNL     1      -6.452   6.223  10.226  1.00  0.00    -0.347 OA
BRANCH  23  25
HETATM   25  C15 UNL     1      -7.037   8.375  10.981  1.00  0.00     0.228 C 
BRANCH  25  26
HETATM   26  O2  UNL     1      -7.548   7.580  12.005  1.00  0.00    -0.396 OA
ATOM     27  H2  UNL     1      -7.609   6.683  11.698  1.00  0.00     0.209 HD
ENDBRANCH  25  26
ENDBRANCH  23  25
ENDBRANCH  18  19
ENDBRANCH  16  18
ENDBRANCH  15  16
ENDBRANCH  14  15
ENDBRANCH   1  14
BRANCH   2  28
HETATM   28  C17 UNL     1      -5.178   0.778  15.980  1.00  0.00     0.275 C 
BRANCH  28  29
HETATM   29  O5  UNL     1      -4.850  -0.500  15.448  1.00  0.00    -0.392 OA
ATOM     30  H5  UNL     1      -5.093  -1.208  16.032  1.00  0.00     0.210 HD
ENDBRANCH  28  29
ENDBRANCH   2  28
TORSDOF 14
ENDMDL
