MODEL 1
REMARK VINA RESULT: -6.543407611      0.000      0.000
REMARK  16 active torsions:
REMARK  status: ('A' for Active; 'I' for Inactive)
REMARK    1  A    between atoms: C2_2  and  C4_4 
REMARK    2  A    between atoms: C4_4  and  O1_5 
REMARK    3  A    between atoms: C4_4  and  C5_7 
REMARK    4  A    between atoms: C5_7  and  C6_8 
REMARK    5  A    between atoms: C5_7  and  N4_16 
REMARK    6  A    between atoms: C6_8  and  N1_9 
REMARK    7  A    between atoms: N1_9  and  N2_11 
REMARK    8  A    between atoms: N4_16  and  C8_18 
REMARK    9  A    between atoms: C8_18  and  C9_19 
REMARK   10  A    between atoms: C9_19  and  C10_20 
REMARK   11  A    between atoms: C10_20  and  C11_21 
REMARK   12  A    between atoms: C11_21  and  C12_22 
REMARK   13  A    between atoms: C12_22  and  C13_23 
REMARK   14  A    between atoms: C13_23  and  N5_24 
REMARK   15  A    between atoms: C14_28  and  O2_29 
REMARK   16  A    between atoms: C14_28  and  N6_31 
ROOT
HETATM    1  C8  UNL     1      -3.570   4.326  14.818  1.00  0.00     0.086 C 
HETATM    2  C14 UNL     1      -2.249   4.348  14.261  1.00  0.00     0.174 C 
ENDROOT
BRANCH   1   3
HETATM    3  N4  UNL     1      -4.439   3.261  14.365  1.00  0.00    -0.347 N 
HETATM    4  C7  UNL     1      -5.830   3.448  14.508  1.00  0.00     0.156 C 
BRANCH   3   5
HETATM    5  C5  UNL     1      -4.043   1.935  14.599  1.00  0.00     0.064 C 
BRANCH   5   6
HETATM    6  C4  UNL     1      -4.422   0.756  13.904  1.00  0.00     0.091 C 
BRANCH   6   7
HETATM    7  C2  UNL     1      -4.527   0.419  12.656  1.00  0.00    -0.052 C 
HETATM    8  C1  UNL     1      -4.943   1.277  11.530  1.00  0.00     0.046 C 
HETATM    9  C3  UNL     1      -4.210  -1.009  12.230  1.00  0.00     0.046 C 
ENDBRANCH   6   7
BRANCH   6  10
HETATM   10  O1  UNL     1      -4.783  -0.354  14.767  1.00  0.00    -0.358 OA
ATOM     11  H1  UNL     1      -5.318  -0.055  15.492  1.00  0.00     0.217 HD
ENDBRANCH   6  10
ENDBRANCH   5   6
BRANCH   5  12
HETATM   12  C6  UNL     1      -3.968   1.591  16.099  1.00  0.00     0.201 C 
BRANCH  12  13
HETATM   13  N1  UNL     1      -5.202   1.813  16.781  1.00  0.00    -0.317 N 
ATOM     14  H1  UNL     1      -5.455   2.771  17.023  1.00  0.00     0.182 HD
BRANCH  13  15
HETATM   15  N2  UNL     1      -6.079   0.788  17.133  1.00  0.00    -0.254 N 
HETATM   16  N3  UNL     1      -7.330   0.955  17.128  1.00  0.00    -0.331 N 
ATOM     17  H32 UNL     1      -7.693   1.869  16.858  1.00  0.00     0.178 HD
ATOM     18  H31 UNL     1      -7.972   0.205  17.386  1.00  0.00     0.178 HD
ATOM     19  H2  UNL     1      -5.700  -0.121  17.401  1.00  0.00     0.207 HD
ENDBRANCH  13  15
ENDBRANCH  12  13
ENDBRANCH   5  12
ENDBRANCH   3   5
ENDBRANCH   1   3
BRANCH   1  20
HETATM   20  C9  UNL     1      -4.200   5.658  14.938  1.00  0.00     0.030 C 
BRANCH  20  21
HETATM   21  C10 UNL     1      -4.165   6.653  13.846  1.00  0.00    -0.024 C 
BRANCH  21  22
HETATM   22  C11 UNL     1      -5.033   6.583  12.667  1.00  0.00     0.029 C 
BRANCH  22  23
HETATM   23  C12 UNL     1      -4.202   6.720  11.358  1.00  0.00     0.031 C 
BRANCH  23  24
HETATM   24  C13 UNL     1      -4.999   6.334  10.161  1.00  0.00     0.230 C 
BRANCH  24  25
HETATM   25  N5  UNL     1      -4.623   4.982   9.768  1.00  0.00    -0.079 N 
ATOM     26  H53 UNL     1      -5.366   4.304   9.941  1.00  0.00     0.274 HD
ATOM     27  H52 UNL     1      -4.565   4.870   8.755  1.00  0.00     0.274 HD
ATOM     28  H51 UNL     1      -3.752   4.736  10.239  1.00  0.00     0.274 HD
ENDBRANCH  24  25
ENDBRANCH  23  24
ENDBRANCH  22  23
ENDBRANCH  21  22
ENDBRANCH  20  21
ENDBRANCH   1  20
BRANCH   2  29
HETATM   29  O2  UNL     1      -1.358   3.980  15.191  1.00  0.00    -0.344 OA
ATOM     30  H2  UNL     1      -0.660   3.477  14.787  1.00  0.00     0.219 HD
ENDBRANCH   2  29
BRANCH   2  31
HETATM   31  N6  UNL     1      -1.617   4.624  13.076  1.00  0.00    -0.269 N 
HETATM   32  C15 UNL     1      -0.661   5.762  12.906  1.00  0.00     0.367 C 
HETATM   33  N7  UNL     1       0.433   5.043  12.259  1.00  0.00    -0.046 N 
HETATM   34  C16 UNL     1      -0.276   4.354  11.184  1.00  0.00     0.275 C 
ATOM     35  H72 UNL     1       1.221   5.620  11.963  1.00  0.00     0.280 HD
ATOM     36  H71 UNL     1       0.987   4.444  12.872  1.00  0.00     0.280 HD
HETATM   37  C17 UNL     1      -0.370   5.238   9.959  1.00  0.00     0.050 C 
HETATM   38  C18 UNL     1      -1.616   4.103  11.776  1.00  0.00     0.258 C 
HETATM   39  O3  UNL     1      -2.548   3.532  11.196  1.00  0.00    -0.271 OA
ENDBRANCH   2  31
TORSDOF 16
ENDMDL
MODEL 2
REMARK VINA RESULT: -6.533547127      2.286      5.209
REMARK  16 active torsions:
REMARK  status: ('A' for Active; 'I' for Inactive)
REMARK    1  A    between atoms: C2_2  and  C4_4 
REMARK    2  A    between atoms: C4_4  and  O1_5 
REMARK    3  A    between atoms: C4_4  and  C5_7 
REMARK    4  A    between atoms: C5_7  and  C6_8 
REMARK    5  A    between atoms: C5_7  and  N4_16 
REMARK    6  A    between atoms: C6_8  and  N1_9 
REMARK    7  A    between atoms: N1_9  and  N2_11 
REMARK    8  A    between atoms: N4_16  and  C8_18 
REMARK    9  A    between atoms: C8_18  and  C9_19 
REMARK   10  A    between atoms: C9_19  and  C10_20 
REMARK   11  A    between atoms: C10_20  and  C11_21 
REMARK   12  A    between atoms: C11_21  and  C12_22 
REMARK   13  A    between atoms: C12_22  and  C13_23 
REMARK   14  A    between atoms: C13_23  and  N5_24 
REMARK   15  A    between atoms: C14_28  and  O2_29 
REMARK   16  A    between atoms: C14_28  and  N6_31 
ROOT
HETATM    1  C8  UNL     1      -3.938   5.042  14.054  1.00  0.00     0.086 C 
HETATM    2  C14 UNL     1      -3.394   6.345  13.798  1.00  0.00     0.174 C 
ENDROOT
BRANCH   1   3
HETATM    3  N4  UNL     1      -3.441   3.966  13.222  1.00  0.00    -0.347 N 
HETATM    4  C7  UNL     1      -2.076   3.995  12.867  1.00  0.00     0.156 C 
BRANCH   3   5
HETATM    5  C5  UNL     1      -4.261   3.491  12.188  1.00  0.00     0.064 C 
BRANCH   5   6
HETATM    6  C4  UNL     1      -4.843   2.206  12.031  1.00  0.00     0.091 C 
BRANCH   6   7
HETATM    7  C2  UNL     1      -4.599   1.023  12.504  1.00  0.00    -0.052 C 
HETATM    8  C1  UNL     1      -4.188   0.677  13.878  1.00  0.00     0.046 C 
HETATM    9  C3  UNL     1      -4.720  -0.194  11.596  1.00  0.00     0.046 C 
ENDBRANCH   6   7
BRANCH   6  10
HETATM   10  O1  UNL     1      -5.984   2.174  11.134  1.00  0.00    -0.358 OA
ATOM     11  H1  UNL     1      -5.727   1.861  10.275  1.00  0.00     0.217 HD
ENDBRANCH   6  10
ENDBRANCH   5   6
BRANCH   5  12
HETATM   12  C6  UNL     1      -3.803   3.972  10.797  1.00  0.00     0.201 C 
BRANCH  12  13
HETATM   13  N1  UNL     1      -4.836   4.642  10.075  1.00  0.00    -0.317 N 
ATOM     14  H1  UNL     1      -5.798   4.531  10.394  1.00  0.00     0.182 HD
BRANCH  13  15
HETATM   15  N2  UNL     1      -4.598   5.441   8.958  1.00  0.00    -0.254 N 
HETATM   16  N3  UNL     1      -5.469   6.240   8.516  1.00  0.00    -0.331 N 
ATOM     17  H32 UNL     1      -6.365   6.291   9.000  1.00  0.00     0.178 HD
ATOM     18  H31 UNL     1      -5.295   6.825   7.698  1.00  0.00     0.178 HD
ATOM     19  H2  UNL     1      -3.696   5.378   8.485  1.00  0.00     0.207 HD
ENDBRANCH  13  15
ENDBRANCH  12  13
ENDBRANCH   5  12
ENDBRANCH   3   5
ENDBRANCH   1   3
BRANCH   1  20
HETATM   20  C9  UNL     1      -5.392   5.032  14.312  1.00  0.00     0.030 C 
BRANCH  20  21
HETATM   21  C10 UNL     1      -5.981   4.391  15.507  1.00  0.00    -0.024 C 
BRANCH  21  22
HETATM   22  C11 UNL     1      -6.139   2.940  15.645  1.00  0.00     0.029 C 
BRANCH  22  23
HETATM   23  C12 UNL     1      -6.775   2.580  17.019  1.00  0.00     0.031 C 
BRANCH  23  24
HETATM   24  C13 UNL     1      -7.167   1.144  17.082  1.00  0.00     0.230 C 
BRANCH  24  25
HETATM   25  N5  UNL     1      -6.018   0.368  17.531  1.00  0.00    -0.079 N 
ATOM     26  H53 UNL     1      -5.661  -0.256  16.808  1.00  0.00     0.274 HD
ATOM     27  H52 UNL     1      -5.181   0.939  17.649  1.00  0.00     0.274 HD
ATOM     28  H51 UNL     1      -6.275  -0.130  18.384  1.00  0.00     0.274 HD
ENDBRANCH  24  25
ENDBRANCH  23  24
ENDBRANCH  22  23
ENDBRANCH  21  22
ENDBRANCH  20  21
ENDBRANCH   1  20
BRANCH   2  29
HETATM   29  O2  UNL     1      -2.573   6.699  14.796  1.00  0.00    -0.344 OA
ATOM     30  H2  UNL     1      -2.923   6.393  15.624  1.00  0.00     0.219 HD
ENDBRANCH   2  29
BRANCH   2  31
HETATM   31  N6  UNL     1      -3.451   7.335  12.851  1.00  0.00    -0.269 N 
HETATM   32  C15 UNL     1      -2.577   8.549  12.885  1.00  0.00     0.367 C 
HETATM   33  N7  UNL     1      -2.106   8.527  11.503  1.00  0.00    -0.046 N 
HETATM   34  C16 UNL     1      -3.365   8.399  10.775  1.00  0.00     0.275 C 
ATOM     35  H72 UNL     1      -1.520   9.316  11.229  1.00  0.00     0.280 HD
ATOM     36  H71 UNL     1      -1.405   7.816  11.291  1.00  0.00     0.280 HD
HETATM   37  C17 UNL     1      -3.965   9.764  10.509  1.00  0.00     0.050 C 
HETATM   38  C18 UNL     1      -4.211   7.608  11.706  1.00  0.00     0.258 C 
HETATM   39  O3  UNL     1      -5.379   7.267  11.483  1.00  0.00    -0.271 OA
ENDBRANCH   2  31
TORSDOF 16
ENDMDL
MODEL 3
REMARK VINA RESULT: -6.519480520      2.350      3.228
REMARK  16 active torsions:
REMARK  status: ('A' for Active; 'I' for Inactive)
REMARK    1  A    between atoms: C2_2  and  C4_4 
REMARK    2  A    between atoms: C4_4  and  O1_5 
REMARK    3  A    between atoms: C4_4  and  C5_7 
REMARK    4  A    between atoms: C5_7  and  C6_8 
REMARK    5  A    between atoms: C5_7  and  N4_16 
REMARK    6  A    between atoms: C6_8  and  N1_9 
REMARK    7  A    between atoms: N1_9  and  N2_11 
REMARK    8  A    between atoms: N4_16  and  C8_18 
REMARK    9  A    between atoms: C8_18  and  C9_19 
REMARK   10  A    between atoms: C9_19  and  C10_20 
REMARK   11  A    between atoms: C10_20  and  C11_21 
REMARK   12  A    between atoms: C11_21  and  C12_22 
REMARK   13  A    between atoms: C12_22  and  C13_23 
REMARK   14  A    between atoms: C13_23  and  N5_24 
REMARK   15  A    between atoms: C14_28  and  O2_29 
REMARK   16  A    between atoms: C14_28  and  N6_31 
ROOT
HETATM    1  C8  UNL     1      -3.550   5.282  14.782  1.00  0.00     0.086 C 
HETATM    2  C14 UNL     1      -2.528   4.886  13.856  1.00  0.00     0.174 C 
ENDROOT
BRANCH   1   3
HETATM    3  N4  UNL     1      -4.797   4.552  14.711  1.00  0.00    -0.347 N 
HETATM    4  C7  UNL     1      -5.992   5.301  14.722  1.00  0.00     0.156 C 
BRANCH   3   5
HETATM    5  C5  UNL     1      -4.905   3.347  15.422  1.00  0.00     0.064 C 
BRANCH   5   6
HETATM    6  C4  UNL     1      -4.287   2.097  15.157  1.00  0.00     0.091 C 
BRANCH   6   7
HETATM    7  C2  UNL     1      -4.221   1.303  14.133  1.00  0.00    -0.052 C 
HETATM    8  C1  UNL     1      -4.029   1.682  12.720  1.00  0.00     0.046 C 
HETATM    9  C3  UNL     1      -4.359  -0.201  14.332  1.00  0.00     0.046 C 
ENDBRANCH   6   7
BRANCH   6  10
HETATM   10  O1  UNL     1      -3.544   1.549  16.278  1.00  0.00    -0.358 OA
ATOM     11  H1  UNL     1      -3.554   2.151  17.012  1.00  0.00     0.217 HD
ENDBRANCH   6  10
ENDBRANCH   5   6
BRANCH   5  12
HETATM   12  C6  UNL     1      -6.342   3.067  15.905  1.00  0.00     0.201 C 
BRANCH  12  13
HETATM   13  N1  UNL     1      -6.383   2.290  17.101  1.00  0.00    -0.317 N 
ATOM     14  H1  UNL     1      -6.158   2.749  17.983  1.00  0.00     0.182 HD
BRANCH  13  15
HETATM   15  N2  UNL     1      -6.714   0.935  17.125  1.00  0.00    -0.254 N 
HETATM   16  N3  UNL     1      -5.961   0.079  17.666  1.00  0.00    -0.331 N 
ATOM     17  H32 UNL     1      -5.093   0.402  18.092  1.00  0.00     0.178 HD
ATOM     18  H31 UNL     1      -6.203  -0.912  17.683  1.00  0.00     0.178 HD
ATOM     19  H2  UNL     1      -7.586   0.629  16.693  1.00  0.00     0.207 HD
ENDBRANCH  13  15
ENDBRANCH  12  13
ENDBRANCH   5  12
ENDBRANCH   3   5
ENDBRANCH   1   3
BRANCH   1  20
HETATM   20  C9  UNL     1      -3.673   6.744  14.961  1.00  0.00     0.030 C 
BRANCH  20  21
HETATM   21  C10 UNL     1      -2.531   7.665  14.776  1.00  0.00    -0.024 C 
BRANCH  21  22
HETATM   22  C11 UNL     1      -2.090   8.614  15.801  1.00  0.00     0.029 C 
BRANCH  22  23
HETATM   23  C12 UNL     1      -1.704   9.980  15.163  1.00  0.00     0.031 C 
BRANCH  23  24
HETATM   24  C13 UNL     1      -0.228  10.120  15.018  1.00  0.00     0.230 C 
BRANCH  24  25
HETATM   25  N5  UNL     1       0.235  11.143  15.947  1.00  0.00    -0.079 N 
ATOM     26  H53 UNL     1      -0.269  11.124  16.833  1.00  0.00     0.274 HD
ATOM     27  H52 UNL     1       1.167  10.946  16.312  1.00  0.00     0.274 HD
ATOM     28  H51 UNL     1       0.180  12.051  15.485  1.00  0.00     0.274 HD
ENDBRANCH  24  25
ENDBRANCH  23  24
ENDBRANCH  22  23
ENDBRANCH  21  22
ENDBRANCH  20  21
ENDBRANCH   1  20
BRANCH   2  29
HETATM   29  O2  UNL     1      -1.548   4.247  14.507  1.00  0.00    -0.344 OA
ATOM     30  H2  UNL     1      -0.996   3.786  13.885  1.00  0.00     0.219 HD
ENDBRANCH   2  29
BRANCH   2  31
HETATM   31  N6  UNL     1      -2.247   4.956  12.516  1.00  0.00    -0.269 N 
HETATM   32  C15 UNL     1      -3.062   5.757  11.551  1.00  0.00     0.367 C 
HETATM   33  N7  UNL     1      -1.979   6.467  10.875  1.00  0.00    -0.046 N 
HETATM   34  C16 UNL     1      -1.087   5.364  10.532  1.00  0.00     0.275 C 
ATOM     35  H72 UNL     1      -2.265   7.058  10.094  1.00  0.00     0.280 HD
ATOM     36  H71 UNL     1      -1.552   7.225  11.410  1.00  0.00     0.280 HD
HETATM   37  C17 UNL     1      -1.475   4.764   9.197  1.00  0.00     0.050 C 
HETATM   38  C18 UNL     1      -1.303   4.401  11.642  1.00  0.00     0.258 C 
HETATM   39  O3  UNL     1      -0.736   3.306  11.749  1.00  0.00    -0.271 OA
ENDBRANCH   2  31
TORSDOF 16
ENDMDL
MODEL 4
REMARK VINA RESULT: -6.499347247      2.165      5.707
REMARK  16 active torsions:
REMARK  status: ('A' for Active; 'I' for Inactive)
REMARK    1  A    between atoms: C2_2  and  C4_4 
REMARK    2  A    between atoms: C4_4  and  O1_5 
REMARK    3  A    between atoms: C4_4  and  C5_7 
REMARK    4  A    between atoms: C5_7  and  C6_8 
REMARK    5  A    between atoms: C5_7  and  N4_16 
REMARK    6  A    between atoms: C6_8  and  N1_9 
REMARK    7  A    between atoms: N1_9  and  N2_11 
REMARK    8  A    between atoms: N4_16  and  C8_18 
REMARK    9  A    between atoms: C8_18  and  C9_19 
REMARK   10  A    between atoms: C9_19  and  C10_20 
REMARK   11  A    between atoms: C10_20  and  C11_21 
REMARK   12  A    between atoms: C11_21  and  C12_22 
REMARK   13  A    between atoms: C12_22  and  C13_23 
REMARK   14  A    between atoms: C13_23  and  N5_24 
REMARK   15  A    between atoms: C14_28  and  O2_29 
REMARK   16  A    between atoms: C14_28  and  N6_31 
ROOT
HETATM    1  C8  UNL     1      -4.446   5.939  11.702  1.00  0.00     0.086 C 
HETATM    2  C14 UNL     1      -4.702   4.609  12.175  1.00  0.00     0.174 C 
ENDROOT
BRANCH   1   3
HETATM    3  N4  UNL     1      -3.055   6.308  11.549  1.00  0.00    -0.347 N 
HETATM    4  C7  UNL     1      -2.670   7.595  11.980  1.00  0.00     0.156 C 
BRANCH   3   5
HETATM    5  C5  UNL     1      -2.383   5.901  10.387  1.00  0.00     0.064 C 
BRANCH   5   6
HETATM    6  C4  UNL     1      -2.925   5.449   9.155  1.00  0.00     0.091 C 
BRANCH   6   7
HETATM    7  C2  UNL     1      -3.405   6.025   8.096  1.00  0.00    -0.052 C 
HETATM    8  C1  UNL     1      -3.916   5.370   6.877  1.00  0.00     0.046 C 
HETATM    9  C3  UNL     1      -3.470   7.545   8.027  1.00  0.00     0.046 C 
ENDBRANCH   6   7
BRANCH   6  10
HETATM   10  O1  UNL     1      -2.965   4.005   9.015  1.00  0.00    -0.358 OA
ATOM     11  H1  UNL     1      -3.555   3.753   8.314  1.00  0.00     0.217 HD
ENDBRANCH   6  10
ENDBRANCH   5   6
BRANCH   5  12
HETATM   12  C6  UNL     1      -1.132   5.051  10.688  1.00  0.00     0.201 C 
BRANCH  12  13
HETATM   13  N1  UNL     1      -1.407   3.947  11.548  1.00  0.00    -0.317 N 
ATOM     14  H1  UNL     1      -2.114   3.271  11.256  1.00  0.00     0.182 HD
BRANCH  13  15
HETATM   15  N2  UNL     1      -0.761   3.742  12.766  1.00  0.00    -0.254 N 
HETATM   16  N3  UNL     1      -1.174   4.274  13.834  1.00  0.00    -0.331 N 
ATOM     17  H32 UNL     1      -2.004   4.866  13.787  1.00  0.00     0.178 HD
ATOM     18  H31 UNL     1      -0.701   4.125  14.725  1.00  0.00     0.178 HD
ATOM     19  H2  UNL     1       0.068   3.148  12.795  1.00  0.00     0.207 HD
ENDBRANCH  13  15
ENDBRANCH  12  13
ENDBRANCH   5  12
ENDBRANCH   3   5
ENDBRANCH   1   3
BRANCH   1  20
HETATM   20  C9  UNL     1      -5.320   6.972  12.295  1.00  0.00     0.030 C 
BRANCH  20  21
HETATM   21  C10 UNL     1      -6.548   7.452  11.625  1.00  0.00    -0.024 C 
BRANCH  21  22
HETATM   22  C11 UNL     1      -6.547   8.504  10.605  1.00  0.00     0.029 C 
BRANCH  22  23
HETATM   23  C12 UNL     1      -7.293   8.034   9.323  1.00  0.00     0.031 C 
BRANCH  23  24
HETATM   24  C13 UNL     1      -6.980   6.614   8.997  1.00  0.00     0.230 C 
BRANCH  24  25
HETATM   25  N5  UNL     1      -7.368   6.358   7.616  1.00  0.00    -0.079 N 
ATOM     26  H53 UNL     1      -7.645   7.207   7.123  1.00  0.00     0.274 HD
ATOM     27  H52 UNL     1      -6.574   6.106   7.027  1.00  0.00     0.274 HD
ATOM     28  H51 UNL     1      -8.100   5.647   7.610  1.00  0.00     0.274 HD
ENDBRANCH  24  25
ENDBRANCH  23  24
ENDBRANCH  22  23
ENDBRANCH  21  22
ENDBRANCH  20  21
ENDBRANCH   1  20
BRANCH   2  29
HETATM   29  O2  UNL     1      -5.190   3.859  11.178  1.00  0.00    -0.344 OA
ATOM     30  H2  UNL     1      -4.492   3.345  10.790  1.00  0.00     0.219 HD
ENDBRANCH   2  29
BRANCH   2  31
HETATM   31  N6  UNL     1      -4.600   3.869  13.325  1.00  0.00    -0.269 N 
HETATM   32  C15 UNL     1      -5.000   4.389  14.669  1.00  0.00     0.367 C 
HETATM   33  N7  UNL     1      -5.818   3.263  15.113  1.00  0.00    -0.046 N 
HETATM   34  C16 UNL     1      -4.916   2.142  14.862  1.00  0.00     0.275 C 
ATOM     35  H72 UNL     1      -6.176   3.332  16.065  1.00  0.00     0.280 HD
ATOM     36  H71 UNL     1      -6.737   3.191  14.675  1.00  0.00     0.280 HD
HETATM   37  C17 UNL     1      -4.015   1.909  16.057  1.00  0.00     0.050 C 
HETATM   38  C18 UNL     1      -4.141   2.594  13.678  1.00  0.00     0.258 C 
HETATM   39  O3  UNL     1      -3.250   1.937  13.124  1.00  0.00    -0.271 OA
ENDBRANCH   2  31
TORSDOF 16
ENDMDL
MODEL 5
REMARK VINA RESULT: -6.465889016      2.093      5.964
REMARK  16 active torsions:
REMARK  status: ('A' for Active; 'I' for Inactive)
REMARK    1  A    between atoms: C2_2  and  C4_4 
REMARK    2  A    between atoms: C4_4  and  O1_5 
REMARK    3  A    between atoms: C4_4  and  C5_7 
REMARK    4  A    between atoms: C5_7  and  C6_8 
REMARK    5  A    between atoms: C5_7  and  N4_16 
REMARK    6  A    between atoms: C6_8  and  N1_9 
REMARK    7  A    between atoms: N1_9  and  N2_11 
REMARK    8  A    between atoms: N4_16  and  C8_18 
REMARK    9  A    between atoms: C8_18  and  C9_19 
REMARK   10  A    between atoms: C9_19  and  C10_20 
REMARK   11  A    between atoms: C10_20  and  C11_21 
REMARK   12  A    between atoms: C11_21  and  C12_22 
REMARK   13  A    between atoms: C12_22  and  C13_23 
REMARK   14  A    between atoms: C13_23  and  N5_24 
REMARK   15  A    between atoms: C14_28  and  O2_29 
REMARK   16  A    between atoms: C14_28  and  N6_31 
ROOT
HETATM    1  C8  UNL     1      -4.239   4.636  11.128  1.00  0.00     0.086 C 
HETATM    2  C14 UNL     1      -4.724   3.458  11.788  1.00  0.00     0.174 C 
ENDROOT
BRANCH   1   3
HETATM    3  N4  UNL     1      -2.802   4.813  11.108  1.00  0.00    -0.347 N 
HETATM    4  C7  UNL     1      -2.132   4.555   9.894  1.00  0.00     0.156 C 
BRANCH   3   5
HETATM    5  C5  UNL     1      -2.066   4.409  12.231  1.00  0.00     0.064 C 
BRANCH   5   6
HETATM    6  C4  UNL     1      -1.959   5.037  13.500  1.00  0.00     0.091 C 
BRANCH   6   7
HETATM    7  C2  UNL     1      -2.264   6.205  13.976  1.00  0.00    -0.052 C 
HETATM    8  C1  UNL     1      -1.453   7.436  13.911  1.00  0.00     0.046 C 
HETATM    9  C3  UNL     1      -3.586   6.402  14.706  1.00  0.00     0.046 C 
ENDBRANCH   6   7
BRANCH   6  10
HETATM   10  O1  UNL     1      -1.375   4.200  14.532  1.00  0.00    -0.358 OA
ATOM     11  H1  UNL     1      -0.542   3.845  14.244  1.00  0.00     0.217 HD
ENDBRANCH   6  10
ENDBRANCH   5   6
BRANCH   5  12
HETATM   12  C6  UNL     1      -0.675   3.855  11.864  1.00  0.00     0.201 C 
BRANCH  12  13
HETATM   13  N1  UNL     1       0.386   4.741  12.218  1.00  0.00    -0.317 N 
ATOM     14  H1  UNL     1       0.166   5.551  12.798  1.00  0.00     0.182 HD
BRANCH  13  15
HETATM   15  N2  UNL     1       1.707   4.557  11.813  1.00  0.00    -0.254 N 
HETATM   16  N3  UNL     1       2.670   5.087  12.433  1.00  0.00    -0.331 N 
ATOM     17  H32 UNL     1       2.460   5.662  13.249  1.00  0.00     0.178 HD
ATOM     18  H31 UNL     1       3.637   4.953  12.137  1.00  0.00     0.178 HD
ATOM     19  H2  UNL     1       1.900   3.980  10.995  1.00  0.00     0.207 HD
ENDBRANCH  13  15
ENDBRANCH  12  13
ENDBRANCH   5  12
ENDBRANCH   3   5
ENDBRANCH   1   3
BRANCH   1  20
HETATM   20  C9  UNL     1      -5.030   5.853  11.401  1.00  0.00     0.030 C 
BRANCH  20  21
HETATM   21  C10 UNL     1      -5.427   6.797  10.334  1.00  0.00    -0.024 C 
BRANCH  21  22
HETATM   22  C11 UNL     1      -6.748   7.428  10.271  1.00  0.00     0.029 C 
BRANCH  22  23
HETATM   23  C12 UNL     1      -7.430   7.148   8.900  1.00  0.00     0.031 C 
BRANCH  23  24
HETATM   24  C13 UNL     1      -6.428   7.025   7.804  1.00  0.00     0.230 C 
BRANCH  24  25
HETATM   25  N5  UNL     1      -6.810   5.910   6.947  1.00  0.00    -0.079 N 
ATOM     26  H53 UNL     1      -7.819   5.854   6.805  1.00  0.00     0.274 HD
ATOM     27  H52 UNL     1      -6.540   6.055   5.974  1.00  0.00     0.274 HD
ATOM     28  H51 UNL     1      -6.422   5.051   7.337  1.00  0.00     0.274 HD
ENDBRANCH  24  25
ENDBRANCH  23  24
ENDBRANCH  22  23
ENDBRANCH  21  22
ENDBRANCH  20  21
ENDBRANCH   1  20
BRANCH   2  29
HETATM   29  O2  UNL     1      -5.188   2.588  10.882  1.00  0.00    -0.344 OA
ATOM     30  H2  UNL     1      -4.606   1.839  10.826  1.00  0.00     0.219 HD
ENDBRANCH   2  29
BRANCH   2  31
HETATM   31  N6  UNL     1      -4.856   2.947  13.054  1.00  0.00    -0.269 N 
HETATM   32  C15 UNL     1      -4.301   1.619  13.460  1.00  0.00     0.367 C 
HETATM   33  N7  UNL     1      -3.624   2.024  14.690  1.00  0.00    -0.046 N 
HETATM   34  C16 UNL     1      -4.690   2.752  15.374  1.00  0.00     0.275 C 
ATOM     35  H72 UNL     1      -3.200   1.266  15.225  1.00  0.00     0.280 HD
ATOM     36  H71 UNL     1      -2.755   2.542  14.561  1.00  0.00     0.280 HD
HETATM   37  C17 UNL     1      -5.536   1.803  16.197  1.00  0.00     0.050 C 
HETATM   38  C18 UNL     1      -5.468   3.338  14.252  1.00  0.00     0.258 C 
HETATM   39  O3  UNL     1      -6.476   4.043  14.383  1.00  0.00    -0.271 OA
ENDBRANCH   2  31
TORSDOF 16
ENDMDL
