MODEL 1
REMARK VINA RESULT: -5.962415901      0.000      0.000
REMARK  12 active torsions:
REMARK  status: ('A' for Active; 'I' for Inactive)
REMARK    1  A    between atoms: N1_2  and  C3_4 
REMARK    2  A    between atoms: C3_4  and  C4_5 
REMARK    3  A    between atoms: C4_5  and  C5_6 
REMARK    4  A    between atoms: C5_6  and  N2_7 
REMARK    5  A    between atoms: N5_14  and  C9_15 
REMARK    6  A    between atoms: C9_15  and  C10_16 
REMARK    7  A    between atoms: C10_16  and  C11_17 
REMARK    8  A    between atoms: C11_17  and  C12_18 
REMARK    9  A    between atoms: C12_18  and  O1_19 
REMARK   10  A    between atoms: C13_21  and  C14_22 
REMARK   11  A    between atoms: C14_22  and  C15_23 
REMARK   12  A    between atoms: C15_23  and  O2_24 
ROOT
HETATM    1  N2  UNL     1      -4.220   4.399   9.923  1.00  0.00    -0.373 N 
ATOM      2  H2  UNL     1      -4.305   3.533   9.392  1.00  0.00     0.161 HD
HETATM    3  C6  UNL     1      -4.211   4.092  11.128  1.00  0.00     0.148 A 
HETATM    4  C7  UNL     1      -4.312   2.720  11.463  1.00  0.00     0.177 A 
HETATM    5  N3  UNL     1      -4.430   1.766  10.393  1.00  0.00    -0.077 NA
HETATM    6  N4  UNL     1      -4.301   2.297  12.731  1.00  0.00    -0.277 N 
HETATM    7  C8  UNL     1      -4.433   0.867  13.031  1.00  0.00     0.179 C 
HETATM    8  N5  UNL     1      -4.192   3.166  13.718  1.00  0.00    -0.277 N 
HETATM    9  C13 UNL     1      -4.095   4.494  13.401  1.00  0.00     0.103 A 
HETATM   10  N6  UNL     1      -4.102   4.966  12.138  1.00  0.00    -0.323 N 
HETATM   11  C16 UNL     1      -4.007   6.412  11.877  1.00  0.00     0.159 C 
ENDROOT
BRANCH   1  12
HETATM   12  C5  UNL     1      -4.164   5.420   9.020  1.00  0.00     0.123 C 
BRANCH  12  13
HETATM   13  C4  UNL     1      -2.891   5.287   8.140  1.00  0.00     0.050 C 
BRANCH  13  14
HETATM   14  C3  UNL     1      -1.746   5.936   8.905  1.00  0.00     0.273 C 
BRANCH  14  15
HETATM   15  N1  UNL     1      -0.819   4.854   9.258  1.00  0.00     0.080 N 
HETATM   16  C1  UNL     1       0.445   5.063   8.578  1.00  0.00     0.309 C 
HETATM   17  C2  UNL     1      -0.597   4.839  10.673  1.00  0.00     0.309 C 
ENDBRANCH  14  15
ENDBRANCH  13  14
ENDBRANCH  12  13
ENDBRANCH   1  12
BRANCH   9  18
HETATM   18  C14 UNL     1      -4.009   5.447  14.512  1.00  0.00     0.104 C 
BRANCH  18  19
HETATM   19  C15 UNL     1      -5.375   5.855  15.059  1.00  0.00     0.171 C 
BRANCH  19  20
HETATM   20  O2  UNL     1      -6.373   5.489  14.132  1.00  0.00    -0.400 OA
ATOM     21  H2  UNL     1      -7.025   4.954  14.570  1.00  0.00     0.209 HD
ENDBRANCH  19  20
ENDBRANCH  18  19
ENDBRANCH   9  18
BRANCH   8  22
HETATM   22  C9  UNL     1      -4.160   2.696  15.061  1.00  0.00     0.151 C 
BRANCH  22  23
HETATM   23  C10 UNL     1      -5.519   2.439  15.681  1.00  0.00     0.024 C 
BRANCH  23  24
HETATM   24  C11 UNL     1      -5.344   1.843  17.089  1.00  0.00     0.028 C 
BRANCH  24  25
HETATM   25  C12 UNL     1      -6.499   0.867  17.257  1.00  0.00     0.164 C 
BRANCH  25  26
HETATM   26  O1  UNL     1      -6.074  -0.429  17.421  1.00  0.00    -0.401 OA
ATOM     27  H1  UNL     1      -5.633  -0.768  16.651  1.00  0.00     0.209 HD
ENDBRANCH  25  26
ENDBRANCH  24  25
ENDBRANCH  23  24
ENDBRANCH  22  23
ENDBRANCH   8  22
TORSDOF 12
ENDMDL
MODEL 2
REMARK VINA RESULT: -5.870509901      1.799      3.070
REMARK  12 active torsions:
REMARK  status: ('A' for Active; 'I' for Inactive)
REMARK    1  A    between atoms: N1_2  and  C3_4 
REMARK    2  A    between atoms: C3_4  and  C4_5 
REMARK    3  A    between atoms: C4_5  and  C5_6 
REMARK    4  A    between atoms: C5_6  and  N2_7 
REMARK    5  A    between atoms: N5_14  and  C9_15 
REMARK    6  A    between atoms: C9_15  and  C10_16 
REMARK    7  A    between atoms: C10_16  and  C11_17 
REMARK    8  A    between atoms: C11_17  and  C12_18 
REMARK    9  A    between atoms: C12_18  and  O1_19 
REMARK   10  A    between atoms: C13_21  and  C14_22 
REMARK   11  A    between atoms: C14_22  and  C15_23 
REMARK   12  A    between atoms: C15_23  and  O2_24 
ROOT
HETATM    1  N2  UNL     1      -4.381   4.860  10.130  1.00  0.00    -0.373 N 
ATOM      2  H2  UNL     1      -4.399   4.045   9.518  1.00  0.00     0.161 HD
HETATM    3  C6  UNL     1      -4.346   4.440  11.300  1.00  0.00     0.148 A 
HETATM    4  C7  UNL     1      -4.342   3.039  11.502  1.00  0.00     0.177 A 
HETATM    5  N3  UNL     1      -4.388   2.185  10.345  1.00  0.00    -0.077 NA
HETATM    6  N4  UNL     1      -4.297   2.499  12.723  1.00  0.00    -0.277 N 
HETATM    7  C8  UNL     1      -4.319   1.041  12.885  1.00  0.00     0.179 C 
HETATM    8  N5  UNL     1      -4.254   3.275  13.790  1.00  0.00    -0.277 N 
HETATM    9  C13 UNL     1      -4.259   4.631  13.602  1.00  0.00     0.103 A 
HETATM   10  N6  UNL     1      -4.304   5.220  12.390  1.00  0.00    -0.323 N 
HETATM   11  C16 UNL     1      -4.320   6.687  12.268  1.00  0.00     0.159 C 
ENDROOT
BRANCH   1  12
HETATM   12  C5  UNL     1      -4.404   5.964   9.329  1.00  0.00     0.123 C 
BRANCH  12  13
HETATM   13  C4  UNL     1      -5.871   6.388   9.044  1.00  0.00     0.050 C 
BRANCH  13  14
HETATM   14  C3  UNL     1      -5.890   7.908   8.957  1.00  0.00     0.273 C 
BRANCH  14  15
HETATM   15  N1  UNL     1      -7.217   8.331   9.421  1.00  0.00     0.080 N 
HETATM   16  C1  UNL     1      -8.231   7.789   8.537  1.00  0.00     0.309 C 
HETATM   17  C2  UNL     1      -7.447   7.855  10.752  1.00  0.00     0.309 C 
ENDBRANCH  14  15
ENDBRANCH  13  14
ENDBRANCH  12  13
ENDBRANCH   1  12
BRANCH   9  18
HETATM   18  C14 UNL     1      -4.244   5.477  14.799  1.00  0.00     0.104 C 
BRANCH  18  19
HETATM   19  C15 UNL     1      -5.642   5.806  15.317  1.00  0.00     0.171 C 
BRANCH  19  20
HETATM   20  O2  UNL     1      -6.600   5.343  14.392  1.00  0.00    -0.400 OA
ATOM     21  H2  UNL     1      -7.332   5.948  14.370  1.00  0.00     0.209 HD
ENDBRANCH  19  20
ENDBRANCH  18  19
ENDBRANCH   9  18
BRANCH   8  22
HETATM   22  C9  UNL     1      -4.184   2.683  15.082  1.00  0.00     0.151 C 
BRANCH  22  23
HETATM   23  C10 UNL     1      -5.516   2.238  15.654  1.00  0.00     0.024 C 
BRANCH  23  24
HETATM   24  C11 UNL     1      -5.342   1.850  17.133  1.00  0.00     0.028 C 
BRANCH  24  25
HETATM   25  C12 UNL     1      -6.469   0.869  17.424  1.00  0.00     0.164 C 
BRANCH  25  26
HETATM   26  O1  UNL     1      -6.055  -0.440  17.369  1.00  0.00    -0.401 OA
ATOM     27  H1  UNL     1      -6.775  -1.044  17.232  1.00  0.00     0.209 HD
ENDBRANCH  25  26
ENDBRANCH  24  25
ENDBRANCH  23  24
ENDBRANCH  22  23
ENDBRANCH   8  22
TORSDOF 12
ENDMDL
MODEL 3
REMARK VINA RESULT: -5.792168619      2.071      3.604
REMARK  12 active torsions:
REMARK  status: ('A' for Active; 'I' for Inactive)
REMARK    1  A    between atoms: N1_2  and  C3_4 
REMARK    2  A    between atoms: C3_4  and  C4_5 
REMARK    3  A    between atoms: C4_5  and  C5_6 
REMARK    4  A    between atoms: C5_6  and  N2_7 
REMARK    5  A    between atoms: N5_14  and  C9_15 
REMARK    6  A    between atoms: C9_15  and  C10_16 
REMARK    7  A    between atoms: C10_16  and  C11_17 
REMARK    8  A    between atoms: C11_17  and  C12_18 
REMARK    9  A    between atoms: C12_18  and  O1_19 
REMARK   10  A    between atoms: C13_21  and  C14_22 
REMARK   11  A    between atoms: C14_22  and  C15_23 
REMARK   12  A    between atoms: C15_23  and  O2_24 
ROOT
HETATM    1  N2  UNL     1      -1.948   5.562  13.221  1.00  0.00    -0.373 N 
ATOM      2  H2  UNL     1      -1.993   6.529  13.543  1.00  0.00     0.161 HD
HETATM    3  C6  UNL     1      -2.966   4.987  13.644  1.00  0.00     0.148 A 
HETATM    4  C7  UNL     1      -3.882   5.742  14.416  1.00  0.00     0.177 A 
HETATM    5  N3  UNL     1      -3.578   7.124  14.672  1.00  0.00    -0.077 NA
HETATM    6  N4  UNL     1      -5.006   5.208  14.903  1.00  0.00    -0.277 N 
HETATM    7  C8  UNL     1      -5.915   6.022  15.718  1.00  0.00     0.179 C 
HETATM    8  N5  UNL     1      -5.292   3.940  14.671  1.00  0.00    -0.277 N 
HETATM    9  C13 UNL     1      -4.410   3.204  13.928  1.00  0.00     0.103 A 
HETATM   10  N6  UNL     1      -3.265   3.700  13.416  1.00  0.00    -0.323 N 
HETATM   11  C16 UNL     1      -2.359   2.842  12.637  1.00  0.00     0.159 C 
ENDROOT
BRANCH   1  12
HETATM   12  C5  UNL     1      -0.796   5.431  12.503  1.00  0.00     0.123 C 
BRANCH  12  13
HETATM   13  C4  UNL     1      -0.943   6.129  11.122  1.00  0.00     0.050 C 
BRANCH  13  14
HETATM   14  C3  UNL     1      -0.963   5.032  10.066  1.00  0.00     0.273 C 
BRANCH  14  15
HETATM   15  N1  UNL     1      -2.088   5.339   9.173  1.00  0.00     0.080 N 
HETATM   16  C1  UNL     1      -1.811   4.809   7.852  1.00  0.00     0.309 C 
HETATM   17  C2  UNL     1      -3.290   4.748   9.677  1.00  0.00     0.309 C 
ENDBRANCH  14  15
ENDBRANCH  13  14
ENDBRANCH  12  13
ENDBRANCH   1  12
BRANCH   9  18
HETATM   18  C14 UNL     1      -4.729   1.790  13.709  1.00  0.00     0.104 C 
BRANCH  18  19
HETATM   19  C15 UNL     1      -4.192   0.878  14.809  1.00  0.00     0.171 C 
BRANCH  19  20
HETATM   20  O2  UNL     1      -4.856  -0.364  14.747  1.00  0.00    -0.400 OA
ATOM     21  H2  UNL     1      -5.737  -0.265  15.091  1.00  0.00     0.209 HD
ENDBRANCH  19  20
ENDBRANCH  18  19
ENDBRANCH   9  18
BRANCH   8  22
HETATM   22  C9  UNL     1      -6.505   3.395  15.180  1.00  0.00     0.151 C 
BRANCH  22  23
HETATM   23  C10 UNL     1      -6.493   3.084  16.664  1.00  0.00     0.024 C 
BRANCH  23  24
HETATM   24  C11 UNL     1      -7.226   1.756  16.922  1.00  0.00     0.028 C 
BRANCH  24  25
HETATM   25  C12 UNL     1      -6.285   0.943  17.798  1.00  0.00     0.164 C 
BRANCH  25  26
HETATM   26  O1  UNL     1      -6.122  -0.344  17.345  1.00  0.00    -0.401 OA
ATOM     27  H1  UNL     1      -5.613  -0.879  17.942  1.00  0.00     0.209 HD
ENDBRANCH  25  26
ENDBRANCH  24  25
ENDBRANCH  23  24
ENDBRANCH  22  23
ENDBRANCH   8  22
TORSDOF 12
ENDMDL
MODEL 4
REMARK VINA RESULT: -5.737807954      2.710      3.838
REMARK  12 active torsions:
REMARK  status: ('A' for Active; 'I' for Inactive)
REMARK    1  A    between atoms: N1_2  and  C3_4 
REMARK    2  A    between atoms: C3_4  and  C4_5 
REMARK    3  A    between atoms: C4_5  and  C5_6 
REMARK    4  A    between atoms: C5_6  and  N2_7 
REMARK    5  A    between atoms: N5_14  and  C9_15 
REMARK    6  A    between atoms: C9_15  and  C10_16 
REMARK    7  A    between atoms: C10_16  and  C11_17 
REMARK    8  A    between atoms: C11_17  and  C12_18 
REMARK    9  A    between atoms: C12_18  and  O1_19 
REMARK   10  A    between atoms: C13_21  and  C14_22 
REMARK   11  A    between atoms: C14_22  and  C15_23 
REMARK   12  A    between atoms: C15_23  and  O2_24 
ROOT
HETATM    1  N2  UNL     1      -1.960   5.538  13.021  1.00  0.00    -0.373 N 
ATOM      2  H2  UNL     1      -1.977   6.508  13.333  1.00  0.00     0.161 HD
HETATM    3  C6  UNL     1      -2.965   4.982  13.498  1.00  0.00     0.148 A 
HETATM    4  C7  UNL     1      -3.834   5.758  14.302  1.00  0.00     0.177 A 
HETATM    5  N3  UNL     1      -3.499   7.139  14.527  1.00  0.00    -0.077 NA
HETATM    6  N4  UNL     1      -4.942   5.247  14.847  1.00  0.00    -0.277 N 
HETATM    7  C8  UNL     1      -5.800   6.083  15.693  1.00  0.00     0.179 C 
HETATM    8  N5  UNL     1      -5.256   3.981  14.643  1.00  0.00    -0.277 N 
HETATM    9  C13 UNL     1      -4.420   3.224  13.869  1.00  0.00     0.103 A 
HETATM   10  N6  UNL     1      -3.293   3.697  13.299  1.00  0.00    -0.323 N 
HETATM   11  C16 UNL     1      -2.436   2.817  12.488  1.00  0.00     0.159 C 
ENDROOT
BRANCH   1  12
HETATM   12  C5  UNL     1      -0.845   5.382  12.252  1.00  0.00     0.123 C 
BRANCH  12  13
HETATM   13  C4  UNL     1       0.091   6.612  12.411  1.00  0.00     0.050 C 
BRANCH  13  14
HETATM   14  C3  UNL     1       1.175   6.491  11.348  1.00  0.00     0.273 C 
BRANCH  14  15
HETATM   15  N1  UNL     1       1.918   5.261  11.654  1.00  0.00     0.080 N 
HETATM   16  C1  UNL     1       2.288   4.603  10.415  1.00  0.00     0.309 C 
HETATM   17  C2  UNL     1       3.102   5.575  12.395  1.00  0.00     0.309 C 
ENDBRANCH  14  15
ENDBRANCH  13  14
ENDBRANCH  12  13
ENDBRANCH   1  12
BRANCH   9  18
HETATM   18  C14 UNL     1      -4.769   1.813  13.681  1.00  0.00     0.104 C 
BRANCH  18  19
HETATM   19  C15 UNL     1      -4.191   0.904  14.764  1.00  0.00     0.171 C 
BRANCH  19  20
HETATM   20  O2  UNL     1      -4.850  -0.342  14.724  1.00  0.00    -0.400 OA
ATOM     21  H2  UNL     1      -4.209  -1.030  14.584  1.00  0.00     0.209 HD
ENDBRANCH  19  20
ENDBRANCH  18  19
ENDBRANCH   9  18
BRANCH   8  22
HETATM   22  C9  UNL     1      -6.451   3.459  15.214  1.00  0.00     0.151 C 
BRANCH  22  23
HETATM   23  C10 UNL     1      -6.359   3.115  16.688  1.00  0.00     0.024 C 
BRANCH  23  24
HETATM   24  C11 UNL     1      -7.135   1.817  16.968  1.00  0.00     0.028 C 
BRANCH  24  25
HETATM   25  C12 UNL     1      -6.193   0.960  17.802  1.00  0.00     0.164 C 
BRANCH  25  26
HETATM   26  O1  UNL     1      -6.151  -0.345  17.376  1.00  0.00    -0.401 OA
ATOM     27  H1  UNL     1      -5.316  -0.761  17.558  1.00  0.00     0.209 HD
ENDBRANCH  25  26
ENDBRANCH  24  25
ENDBRANCH  23  24
ENDBRANCH  22  23
ENDBRANCH   8  22
TORSDOF 12
ENDMDL
MODEL 5
REMARK VINA RESULT: -5.730914283      1.539      2.496
REMARK  12 active torsions:
REMARK  status: ('A' for Active; 'I' for Inactive)
REMARK    1  A    between atoms: N1_2  and  C3_4 
REMARK    2  A    between atoms: C3_4  and  C4_5 
REMARK    3  A    between atoms: C4_5  and  C5_6 
REMARK    4  A    between atoms: C5_6  and  N2_7 
REMARK    5  A    between atoms: N5_14  and  C9_15 
REMARK    6  A    between atoms: C9_15  and  C10_16 
REMARK    7  A    between atoms: C10_16  and  C11_17 
REMARK    8  A    between atoms: C11_17  and  C12_18 
REMARK    9  A    between atoms: C12_18  and  O1_19 
REMARK   10  A    between atoms: C13_21  and  C14_22 
REMARK   11  A    between atoms: C14_22  and  C15_23 
REMARK   12  A    between atoms: C15_23  and  O2_24 
ROOT
HETATM    1  N2  UNL     1      -4.207   4.667  10.121  1.00  0.00    -0.373 N 
ATOM      2  H2  UNL     1      -4.239   3.842   9.523  1.00  0.00     0.161 HD
HETATM    3  C6  UNL     1      -4.223   4.267  11.299  1.00  0.00     0.148 A 
HETATM    4  C7  UNL     1      -4.279   2.871  11.525  1.00  0.00     0.177 A 
HETATM    5  N3  UNL     1      -4.323   1.999  10.382  1.00  0.00    -0.077 NA
HETATM    6  N4  UNL     1      -4.290   2.352  12.756  1.00  0.00    -0.277 N 
HETATM    7  C8  UNL     1      -4.373   0.899  12.942  1.00  0.00     0.179 C 
HETATM    8  N5  UNL     1      -4.249   3.146  13.810  1.00  0.00    -0.277 N 
HETATM    9  C13 UNL     1      -4.197   4.497  13.599  1.00  0.00     0.103 A 
HETATM   10  N6  UNL     1      -4.183   5.064  12.376  1.00  0.00    -0.323 N 
HETATM   11  C16 UNL     1      -4.139   6.529  12.229  1.00  0.00     0.159 C 
ENDROOT
BRANCH   1  12
HETATM   12  C5  UNL     1      -4.165   5.756   9.302  1.00  0.00     0.123 C 
BRANCH  12  13
HETATM   13  C4  UNL     1      -4.145   5.307   7.815  1.00  0.00     0.050 C 
BRANCH  13  14
HETATM   14  C3  UNL     1      -4.722   6.451   6.993  1.00  0.00     0.273 C 
BRANCH  14  15
HETATM   15  N1  UNL     1      -5.658   7.162   7.874  1.00  0.00     0.080 N 
HETATM   16  C1  UNL     1      -5.481   8.592   7.710  1.00  0.00     0.309 C 
HETATM   17  C2  UNL     1      -7.006   6.811   7.543  1.00  0.00     0.309 C 
ENDBRANCH  14  15
ENDBRANCH  13  14
ENDBRANCH  12  13
ENDBRANCH   1  12
BRANCH   9  18
HETATM   18  C14 UNL     1      -4.185   5.363  14.781  1.00  0.00     0.104 C 
BRANCH  18  19
HETATM   19  C15 UNL     1      -5.580   5.810  15.211  1.00  0.00     0.171 C 
BRANCH  19  20
HETATM   20  O2  UNL     1      -6.536   5.238  14.346  1.00  0.00    -0.400 OA
ATOM     21  H2  UNL     1      -7.408   5.449  14.660  1.00  0.00     0.209 HD
ENDBRANCH  19  20
ENDBRANCH  18  19
ENDBRANCH   9  18
BRANCH   8  22
HETATM   22  C9  UNL     1      -4.240   2.575  15.114  1.00  0.00     0.151 C 
BRANCH  22  23
HETATM   23  C10 UNL     1      -5.606   2.224  15.667  1.00  0.00     0.024 C 
BRANCH  23  24
HETATM   24  C11 UNL     1      -5.503   1.961  17.180  1.00  0.00     0.028 C 
BRANCH  24  25
HETATM   25  C12 UNL     1      -6.534   0.880  17.470  1.00  0.00     0.164 C 
BRANCH  25  26
HETATM   26  O1  UNL     1      -6.037  -0.386  17.282  1.00  0.00    -0.401 OA
ATOM     27  H1  UNL     1      -6.723  -1.041  17.212  1.00  0.00     0.209 HD
ENDBRANCH  25  26
ENDBRANCH  24  25
ENDBRANCH  23  24
ENDBRANCH  22  23
ENDBRANCH   8  22
TORSDOF 12
ENDMDL
