MODEL 1
REMARK VINA RESULT: -5.963524842      0.000      0.000
REMARK  10 active torsions:
REMARK  status: ('A' for Active; 'I' for Inactive)
REMARK    1  A    between atoms: C2_2  and  C4_4 
REMARK    2  A    between atoms: C4_4  and  C5_5 
REMARK    3  A    between atoms: C5_5  and  N1_6 
REMARK    4  A    between atoms: C5_5  and  C10_14 
REMARK       I    between atoms: N1_6  and  C6_8 
REMARK    5  A    between atoms: C6_8  and  C7_10 
REMARK    6  A    between atoms: C7_10  and  N2_11 
REMARK       I    between atoms: C10_14  and  N3_16 
REMARK    7  A    between atoms: N3_16  and  C11_18 
REMARK    8  A    between atoms: C11_18  and  C12_19 
REMARK    9  A    between atoms: C11_18  and  C13_21 
REMARK   10  A    between atoms: C13_21  and  S1_22 
ROOT
HETATM    1  C5  UNL     1      -4.437   5.890  13.798  1.00  0.00     0.177 C 
ENDROOT
BRANCH   1   2
HETATM    2  C4  UNL     1      -3.058   6.257  14.158  1.00  0.00     0.038 C 
BRANCH   2   3
HETATM    3  C2  UNL     1      -2.631   7.675  14.075  1.00  0.00    -0.020 C 
HETATM    4  C1  UNL     1      -2.457   8.381  15.359  1.00  0.00     0.009 C 
HETATM    5  C3  UNL     1      -1.312   7.705  13.267  1.00  0.00     0.009 C 
ENDBRANCH   2   3
ENDBRANCH   1   2
BRANCH   1   6
HETATM    6  N1  UNL     1      -4.578   6.102  12.341  1.00  0.00    -0.346 N 
HETATM    7  C6  UNL     1      -5.697   6.659  11.739  1.00  0.00     0.246 C 
HETATM    8  O1  UNL     1      -6.692   7.035  12.386  1.00  0.00    -0.272 OA
ATOM      9  H1  UNL     1      -3.804   5.819  11.741  1.00  0.00     0.163 HD
BRANCH   7  10
HETATM   10  C7  UNL     1      -5.703   6.814  10.236  1.00  0.00     0.374 C 
BRANCH  10  11
HETATM   11  N2  UNL     1      -7.034   7.114   9.813  1.00  0.00     0.100 N 
HETATM   12  C8  UNL     1      -7.466   6.854   8.477  1.00  0.00     0.303 A 
HETATM   13  C9  UNL     1      -7.148   8.219   8.885  1.00  0.00     0.303 A 
ENDBRANCH  10  11
ENDBRANCH   7  10
ENDBRANCH   1   6
BRANCH   1  14
HETATM   14  C10 UNL     1      -5.002   4.619  14.189  1.00  0.00     0.241 C 
HETATM   15  O2  UNL     1      -6.249   4.406  14.408  1.00  0.00    -0.271 OA
HETATM   16  N3  UNL     1      -4.158   3.469  14.372  1.00  0.00    -0.348 N 
ATOM     17  H3  UNL     1      -3.157   3.564  14.204  1.00  0.00     0.163 HD
BRANCH  16  18
HETATM   18  C11 UNL     1      -4.679   2.177  14.786  1.00  0.00     0.157 C 
BRANCH  18  19
HETATM   19  C12 UNL     1      -4.214   1.844  16.166  1.00  0.00     0.257 C 
HETATM   20  O3  UNL     1      -3.561   0.843  16.358  1.00  0.00    -0.305 OA
ENDBRANCH  18  19
BRANCH  18  21
HETATM   21  C13 UNL     1      -4.285   1.139  13.793  1.00  0.00     0.140 C 
BRANCH  21  22
HETATM   22  S1  UNL     1      -4.588   1.661  12.118  1.00  0.00     0.013 S 
HETATM   23  C14 UNL     1      -4.901   0.275  11.079  1.00  0.00     0.127 C 
HETATM   24  O4  UNL     1      -3.346   2.628  11.547  1.00  0.00    -0.258 OA
ENDBRANCH  21  22
ENDBRANCH  18  21
ENDBRANCH  16  18
ENDBRANCH   1  14
TORSDOF 10
ENDMDL
MODEL 2
REMARK VINA RESULT: -5.877415395      3.149      6.168
REMARK  10 active torsions:
REMARK  status: ('A' for Active; 'I' for Inactive)
REMARK    1  A    between atoms: C2_2  and  C4_4 
REMARK    2  A    between atoms: C4_4  and  C5_5 
REMARK    3  A    between atoms: C5_5  and  N1_6 
REMARK    4  A    between atoms: C5_5  and  C10_14 
REMARK       I    between atoms: N1_6  and  C6_8 
REMARK    5  A    between atoms: C6_8  and  C7_10 
REMARK    6  A    between atoms: C7_10  and  N2_11 
REMARK       I    between atoms: C10_14  and  N3_16 
REMARK    7  A    between atoms: N3_16  and  C11_18 
REMARK    8  A    between atoms: C11_18  and  C12_19 
REMARK    9  A    between atoms: C11_18  and  C13_21 
REMARK   10  A    between atoms: C13_21  and  S1_22 
ROOT
HETATM    1  C5  UNL     1      -3.073   3.755  14.287  1.00  0.00     0.177 C 
ENDROOT
BRANCH   1   2
HETATM    2  C4  UNL     1      -3.729   5.039  14.578  1.00  0.00     0.038 C 
BRANCH   2   3
HETATM    3  C2  UNL     1      -5.150   5.237  14.201  1.00  0.00    -0.020 C 
HETATM    4  C1  UNL     1      -6.059   5.661  15.284  1.00  0.00     0.009 C 
HETATM    5  C3  UNL     1      -5.174   6.271  13.050  1.00  0.00     0.009 C 
ENDBRANCH   2   3
ENDBRANCH   1   2
BRANCH   1   6
HETATM    6  N1  UNL     1      -4.050   2.687  14.592  1.00  0.00    -0.346 N 
HETATM    7  C6  UNL     1      -3.930   1.800  15.652  1.00  0.00     0.246 C 
HETATM    8  O1  UNL     1      -2.974   1.829  16.448  1.00  0.00    -0.272 OA
ATOM      9  H1  UNL     1      -4.863   2.598  13.984  1.00  0.00     0.163 HD
BRANCH   7  10
HETATM   10  C7  UNL     1      -5.006   0.756  15.841  1.00  0.00     0.374 C 
BRANCH  10  11
HETATM   11  N2  UNL     1      -5.666   1.000  17.084  1.00  0.00     0.100 N 
HETATM   12  C8  UNL     1      -7.087   0.922  17.201  1.00  0.00     0.303 A 
HETATM   13  C9  UNL     1      -6.434   2.226  17.141  1.00  0.00     0.303 A 
ENDBRANCH  10  11
ENDBRANCH   7  10
ENDBRANCH   1   6
BRANCH   1  14
HETATM   14  C10 UNL     1      -2.428   3.512  13.017  1.00  0.00     0.241 C 
HETATM   15  O2  UNL     1      -2.302   2.359  12.466  1.00  0.00    -0.271 OA
HETATM   16  N3  UNL     1      -1.855   4.598  12.268  1.00  0.00    -0.348 N 
ATOM     17  H3  UNL     1      -1.929   5.544  12.643  1.00  0.00     0.163 HD
BRANCH  16  18
HETATM   18  C11 UNL     1      -1.177   4.399  10.999  1.00  0.00     0.157 C 
BRANCH  18  19
HETATM   19  C12 UNL     1       0.304   4.461  11.182  1.00  0.00     0.257 C 
HETATM   20  O3  UNL     1       0.779   5.200  12.016  1.00  0.00    -0.305 OA
ENDBRANCH  18  19
BRANCH  18  21
HETATM   21  C13 UNL     1      -1.665   5.401  10.010  1.00  0.00     0.140 C 
BRANCH  21  22
HETATM   22  S1  UNL     1      -3.178   4.889   9.224  1.00  0.00     0.013 S 
HETATM   23  C14 UNL     1      -4.413   6.133   9.376  1.00  0.00     0.127 C 
HETATM   24  O4  UNL     1      -3.688   3.399   9.797  1.00  0.00    -0.258 OA
ENDBRANCH  21  22
ENDBRANCH  18  21
ENDBRANCH  16  18
ENDBRANCH   1  14
TORSDOF 10
ENDMDL
MODEL 3
REMARK VINA RESULT: -5.808795687      2.850      5.330
REMARK  10 active torsions:
REMARK  status: ('A' for Active; 'I' for Inactive)
REMARK    1  A    between atoms: C2_2  and  C4_4 
REMARK    2  A    between atoms: C4_4  and  C5_5 
REMARK    3  A    between atoms: C5_5  and  N1_6 
REMARK    4  A    between atoms: C5_5  and  C10_14 
REMARK       I    between atoms: N1_6  and  C6_8 
REMARK    5  A    between atoms: C6_8  and  C7_10 
REMARK    6  A    between atoms: C7_10  and  N2_11 
REMARK       I    between atoms: C10_14  and  N3_16 
REMARK    7  A    between atoms: N3_16  and  C11_18 
REMARK    8  A    between atoms: C11_18  and  C12_19 
REMARK    9  A    between atoms: C11_18  and  C13_21 
REMARK   10  A    between atoms: C13_21  and  S1_22 
ROOT
HETATM    1  C5  UNL     1      -4.146   5.521  14.405  1.00  0.00     0.177 C 
ENDROOT
BRANCH   1   2
HETATM    2  C4  UNL     1      -3.852   6.886  14.869  1.00  0.00     0.038 C 
BRANCH   2   3
HETATM    3  C2  UNL     1      -2.570   7.529  14.488  1.00  0.00    -0.020 C 
HETATM    4  C1  UNL     1      -2.536   8.187  13.168  1.00  0.00     0.009 C 
HETATM    5  C3  UNL     1      -2.227   8.548  15.600  1.00  0.00     0.009 C 
ENDBRANCH   2   3
ENDBRANCH   1   2
BRANCH   1   6
HETATM    6  N1  UNL     1      -5.193   4.974  15.294  1.00  0.00    -0.346 N 
HETATM    7  C6  UNL     1      -5.529   3.630  15.369  1.00  0.00     0.246 C 
HETATM    8  O1  UNL     1      -4.967   2.757  14.681  1.00  0.00    -0.272 OA
ATOM      9  H1  UNL     1      -5.701   5.627  15.891  1.00  0.00     0.163 HD
BRANCH   7  10
HETATM   10  C7  UNL     1      -6.623   3.214  16.324  1.00  0.00     0.374 C 
BRANCH  10  11
HETATM   11  N2  UNL     1      -6.430   1.842  16.671  1.00  0.00     0.100 N 
HETATM   12  C8  UNL     1      -7.460   1.081  17.302  1.00  0.00     0.303 A 
HETATM   13  C9  UNL     1      -6.336   1.576  18.091  1.00  0.00     0.303 A 
ENDBRANCH  10  11
ENDBRANCH   7  10
ENDBRANCH   1   6
BRANCH   1  14
HETATM   14  C10 UNL     1      -4.457   5.250  13.020  1.00  0.00     0.241 C 
HETATM   15  O2  UNL     1      -5.276   5.931  12.303  1.00  0.00    -0.271 OA
HETATM   16  N3  UNL     1      -3.844   4.142  12.337  1.00  0.00    -0.348 N 
ATOM     17  H3  UNL     1      -3.174   3.563  12.843  1.00  0.00     0.163 HD
BRANCH  16  18
HETATM   18  C11 UNL     1      -4.144   3.817  10.952  1.00  0.00     0.157 C 
BRANCH  18  19
HETATM   19  C12 UNL     1      -4.635   2.411  10.841  1.00  0.00     0.257 C 
HETATM   20  O3  UNL     1      -5.736   2.122  11.254  1.00  0.00    -0.305 OA
ENDBRANCH  18  19
BRANCH  18  21
HETATM   21  C13 UNL     1      -2.939   4.061  10.111  1.00  0.00     0.140 C 
BRANCH  21  22
HETATM   22  S1  UNL     1      -1.482   4.353  11.092  1.00  0.00     0.013 S 
HETATM   23  C14 UNL     1      -0.117   4.789  10.069  1.00  0.00     0.127 C 
HETATM   24  O4  UNL     1      -1.149   3.049  12.090  1.00  0.00    -0.258 OA
ENDBRANCH  21  22
ENDBRANCH  18  21
ENDBRANCH  16  18
ENDBRANCH   1  14
TORSDOF 10
ENDMDL
MODEL 4
REMARK VINA RESULT: -5.793692282      1.589      2.707
REMARK  10 active torsions:
REMARK  status: ('A' for Active; 'I' for Inactive)
REMARK    1  A    between atoms: C2_2  and  C4_4 
REMARK    2  A    between atoms: C4_4  and  C5_5 
REMARK    3  A    between atoms: C5_5  and  N1_6 
REMARK    4  A    between atoms: C5_5  and  C10_14 
REMARK       I    between atoms: N1_6  and  C6_8 
REMARK    5  A    between atoms: C6_8  and  C7_10 
REMARK    6  A    between atoms: C7_10  and  N2_11 
REMARK       I    between atoms: C10_14  and  N3_16 
REMARK    7  A    between atoms: N3_16  and  C11_18 
REMARK    8  A    between atoms: C11_18  and  C12_19 
REMARK    9  A    between atoms: C11_18  and  C13_21 
REMARK   10  A    between atoms: C13_21  and  S1_22 
ROOT
HETATM    1  C5  UNL     1      -3.122   6.313  13.746  1.00  0.00     0.177 C 
ENDROOT
BRANCH   1   2
HETATM    2  C4  UNL     1      -1.970   7.187  14.017  1.00  0.00     0.038 C 
BRANCH   2   3
HETATM    3  C2  UNL     1      -2.182   8.489  14.696  1.00  0.00    -0.020 C 
HETATM    4  C1  UNL     1      -1.436   8.699  15.952  1.00  0.00     0.009 C 
HETATM    5  C3  UNL     1      -1.827   9.596  13.674  1.00  0.00     0.009 C 
ENDBRANCH   2   3
ENDBRANCH   1   2
BRANCH   1   6
HETATM    6  N1  UNL     1      -3.534   6.556  12.347  1.00  0.00    -0.346 N 
HETATM    7  C6  UNL     1      -4.853   6.619  11.922  1.00  0.00     0.246 C 
HETATM    8  O1  UNL     1      -5.817   6.475  12.697  1.00  0.00    -0.272 OA
ATOM      9  H1  UNL     1      -2.801   6.685  11.649  1.00  0.00     0.163 HD
BRANCH   7  10
HETATM   10  C7  UNL     1      -5.127   6.873  10.458  1.00  0.00     0.374 C 
BRANCH  10  11
HETATM   11  N2  UNL     1      -6.540   6.919  10.257  1.00  0.00     0.100 N 
HETATM   12  C8  UNL     1      -7.104   6.989   8.947  1.00  0.00     0.303 A 
HETATM   13  C9  UNL     1      -7.051   8.186   9.781  1.00  0.00     0.303 A 
ENDBRANCH  10  11
ENDBRANCH   7  10
ENDBRANCH   1   6
BRANCH   1  14
HETATM   14  C10 UNL     1      -3.073   4.897  14.028  1.00  0.00     0.241 C 
HETATM   15  O2  UNL     1      -2.002   4.235  14.280  1.00  0.00    -0.271 OA
HETATM   16  N3  UNL     1      -4.277   4.110  14.031  1.00  0.00    -0.348 N 
ATOM     17  H3  UNL     1      -5.166   4.574  13.849  1.00  0.00     0.163 HD
BRANCH  16  18
HETATM   18  C11 UNL     1      -4.273   2.679  14.286  1.00  0.00     0.157 C 
BRANCH  18  19
HETATM   19  C12 UNL     1      -4.197   1.920  13.002  1.00  0.00     0.257 C 
HETATM   20  O3  UNL     1      -3.133   1.481  12.622  1.00  0.00    -0.305 OA
ENDBRANCH  18  19
BRANCH  18  21
HETATM   21  C13 UNL     1      -5.474   2.312  15.087  1.00  0.00     0.140 C 
BRANCH  21  22
HETATM   22  S1  UNL     1      -5.123   1.039  16.281  1.00  0.00     0.013 S 
HETATM   23  C14 UNL     1      -5.951   1.362  17.801  1.00  0.00     0.127 C 
HETATM   24  O4  UNL     1      -3.473   0.828  16.478  1.00  0.00    -0.258 OA
ENDBRANCH  21  22
ENDBRANCH  18  21
ENDBRANCH  16  18
ENDBRANCH   1  14
TORSDOF 10
ENDMDL
MODEL 5
REMARK VINA RESULT: -5.775873355      2.521      6.056
REMARK  10 active torsions:
REMARK  status: ('A' for Active; 'I' for Inactive)
REMARK    1  A    between atoms: C2_2  and  C4_4 
REMARK    2  A    between atoms: C4_4  and  C5_5 
REMARK    3  A    between atoms: C5_5  and  N1_6 
REMARK    4  A    between atoms: C5_5  and  C10_14 
REMARK       I    between atoms: N1_6  and  C6_8 
REMARK    5  A    between atoms: C6_8  and  C7_10 
REMARK    6  A    between atoms: C7_10  and  N2_11 
REMARK       I    between atoms: C10_14  and  N3_16 
REMARK    7  A    between atoms: N3_16  and  C11_18 
REMARK    8  A    between atoms: C11_18  and  C12_19 
REMARK    9  A    between atoms: C11_18  and  C13_21 
REMARK   10  A    between atoms: C13_21  and  S1_22 
ROOT
HETATM    1  C5  UNL     1      -5.380   3.428  15.701  1.00  0.00     0.177 C 
ENDROOT
BRANCH   1   2
HETATM    2  C4  UNL     1      -6.532   3.096  16.554  1.00  0.00     0.038 C 
BRANCH   2   3
HETATM    3  C2  UNL     1      -6.399   2.036  17.584  1.00  0.00    -0.020 C 
HETATM    4  C1  UNL     1      -6.564   2.464  18.986  1.00  0.00     0.009 C 
HETATM    5  C3  UNL     1      -7.430   0.936  17.237  1.00  0.00     0.009 C 
ENDBRANCH   2   3
ENDBRANCH   1   2
BRANCH   1   6
HETATM    6  N1  UNL     1      -5.268   2.360  14.685  1.00  0.00    -0.346 N 
HETATM    7  C6  UNL     1      -4.350   1.321  14.744  1.00  0.00     0.246 C 
HETATM    8  O1  UNL     1      -3.530   1.200  15.674  1.00  0.00    -0.272 OA
ATOM      9  H1  UNL     1      -5.905   2.389  13.890  1.00  0.00     0.163 HD
BRANCH   7  10
HETATM   10  C7  UNL     1      -4.347   0.298  13.632  1.00  0.00     0.374 C 
BRANCH  10  11
HETATM   11  N2  UNL     1      -4.030   0.958  12.405  1.00  0.00     0.100 N 
HETATM   12  C8  UNL     1      -4.932   1.888  11.805  1.00  0.00     0.303 A 
HETATM   13  C9  UNL     1      -4.813   0.538  11.263  1.00  0.00     0.303 A 
ENDBRANCH  10  11
ENDBRANCH   7  10
ENDBRANCH   1   6
BRANCH   1  14
HETATM   14  C10 UNL     1      -5.249   4.732  15.090  1.00  0.00     0.241 C 
HETATM   15  O2  UNL     1      -5.972   5.754  15.378  1.00  0.00    -0.271 OA
HETATM   16  N3  UNL     1      -4.262   4.966  14.072  1.00  0.00    -0.348 N 
ATOM     17  H3  UNL     1      -3.645   4.200  13.801  1.00  0.00     0.163 HD
BRANCH  16  18
HETATM   18  C11 UNL     1      -4.109   6.253  13.414  1.00  0.00     0.157 C 
BRANCH  18  19
HETATM   19  C12 UNL     1      -4.810   6.251  12.095  1.00  0.00     0.257 C 
HETATM   20  O3  UNL     1      -5.956   6.635  12.020  1.00  0.00    -0.305 OA
ENDBRANCH  18  19
BRANCH  18  21
HETATM   21  C13 UNL     1      -2.661   6.576  13.282  1.00  0.00     0.140 C 
BRANCH  21  22
HETATM   22  S1  UNL     1      -1.665   5.120  13.043  1.00  0.00     0.013 S 
HETATM   23  C14 UNL     1      -2.059   4.338  11.516  1.00  0.00     0.127 C 
HETATM   24  O4  UNL     1      -1.784   4.080  14.351  1.00  0.00    -0.258 OA
ENDBRANCH  21  22
ENDBRANCH  18  21
ENDBRANCH  16  18
ENDBRANCH   1  14
TORSDOF 10
ENDMDL
