MODEL 1
REMARK VINA RESULT: -7.464553474      0.000      0.000
REMARK  9 active torsions:
REMARK  status: ('A' for Active; 'I' for Inactive)
REMARK    1  A    between atoms: C4_4  and  C5_5 
REMARK    2  A    between atoms: C5_5  and  C6_6 
REMARK    3  A    between atoms: C10_11  and  C11_12 
REMARK    4  A    between atoms: C10_11  and  C12_14 
REMARK    5  A    between atoms: C12_14  and  N2_15 
REMARK    6  A    between atoms: C12_14  and  C16_23 
REMARK       I    between atoms: N2_15  and  C13_17 
REMARK    7  A    between atoms: C13_17  and  C14_19 
REMARK    8  A    between atoms: C14_19  and  N3_20 
REMARK    9  A    between atoms: N3_20  and  C15_21 
ROOT
HETATM    1  C6  UNL     1      -4.728   5.857  12.983  1.00  0.00     0.085 C 
HETATM    2  C7  UNL     1      -4.061   6.203  14.386  1.00  0.00     0.027 C 
HETATM    3  C8  UNL     1      -2.644   6.384  13.906  1.00  0.00     0.022 C 
HETATM    4  C9  UNL     1      -2.549   5.584  12.635  1.00  0.00     0.123 C 
HETATM    5  N1  UNL     1      -3.835   4.861  12.681  1.00  0.00    -0.375 N 
HETATM    6  C10 UNL     1      -3.950   3.854  11.772  1.00  0.00     0.077 C 
ENDROOT
BRANCH   6   7
HETATM    7  C11 UNL     1      -3.698   3.988  10.362  1.00  0.00     0.286 C 
HETATM    8  O1  UNL     1      -2.705   3.682   9.735  1.00  0.00    -0.300 OA
ENDBRANCH   6   7
BRANCH   6   9
HETATM    9  C12 UNL     1      -3.827   2.429  12.233  1.00  0.00     0.227 C 
BRANCH   9  10
HETATM   10  N2  UNL     1      -3.602   2.204  13.594  1.00  0.00    -0.337 N 
HETATM   11  C13 UNL     1      -4.491   2.384  14.678  1.00  0.00     0.271 C 
HETATM   12  O2  UNL     1      -5.645   2.807  14.534  1.00  0.00    -0.266 OA
ATOM     13  H2  UNL     1      -2.672   1.863  13.837  1.00  0.00     0.164 HD
BRANCH  11  14
HETATM   14  C14 UNL     1      -4.014   2.044  16.083  1.00  0.00     0.259 C 
BRANCH  14  15
HETATM   15  N3  UNL     1      -4.941   1.354  16.835  1.00  0.00    -0.386 NA
BRANCH  15  16
HETATM   16  C15 UNL     1      -5.853   0.669  17.573  1.00  0.00     0.440 C 
HETATM   17  O3  UNL     1      -6.245  -0.486  17.643  1.00  0.00    -0.268 OA
ENDBRANCH  15  16
ENDBRANCH  14  15
ENDBRANCH  11  14
ENDBRANCH   9  10
BRANCH   9  18
HETATM   18  C16 UNL     1      -4.897   1.573  11.669  1.00  0.00     0.260 C 
HETATM   19  N4  UNL     1      -4.828   0.200  11.528  1.00  0.00    -0.060 NA
HETATM   20  O4  UNL     1      -5.954   2.169  11.278  1.00  0.00    -0.274 OA
ENDBRANCH   9  18
ENDBRANCH   6   9
BRANCH   1  21
HETATM   21  C5  UNL     1      -4.908   7.176  12.419  1.00  0.00     0.030 C 
BRANCH  21  22
HETATM   22  C4  UNL     1      -5.410   7.345  11.039  1.00  0.00    -0.009 A 
HETATM   23  C2  UNL     1      -6.643   8.269  11.007  1.00  0.00    -0.014 A 
HETATM   24  C1  UNL     1      -7.786   7.848  10.130  1.00  0.00     0.010 C 
HETATM   25  C3  UNL     1      -5.428   8.714  10.368  1.00  0.00     0.010 A 
ENDBRANCH  21  22
ENDBRANCH   1  21
TORSDOF 9
ENDMDL
MODEL 2
REMARK VINA RESULT: -7.406466088      1.796      2.112
REMARK  9 active torsions:
REMARK  status: ('A' for Active; 'I' for Inactive)
REMARK    1  A    between atoms: C4_4  and  C5_5 
REMARK    2  A    between atoms: C5_5  and  C6_6 
REMARK    3  A    between atoms: C10_11  and  C11_12 
REMARK    4  A    between atoms: C10_11  and  C12_14 
REMARK    5  A    between atoms: C12_14  and  N2_15 
REMARK    6  A    between atoms: C12_14  and  C16_23 
REMARK       I    between atoms: N2_15  and  C13_17 
REMARK    7  A    between atoms: C13_17  and  C14_19 
REMARK    8  A    between atoms: C14_19  and  N3_20 
REMARK    9  A    between atoms: N3_20  and  C15_21 
ROOT
HETATM    1  C6  UNL     1      -5.140   5.320  12.975  1.00  0.00     0.085 C 
HETATM    2  C7  UNL     1      -5.936   5.684  14.305  1.00  0.00     0.027 C 
HETATM    3  C8  UNL     1      -4.748   5.879  15.212  1.00  0.00     0.022 C 
HETATM    4  C9  UNL     1      -3.638   5.073  14.595  1.00  0.00     0.123 C 
HETATM    5  N1  UNL     1      -4.390   4.334  13.563  1.00  0.00    -0.375 N 
HETATM    6  C10 UNL     1      -3.697   3.320  12.976  1.00  0.00     0.077 C 
ENDROOT
BRANCH   6   7
HETATM    7  C11 UNL     1      -2.386   3.448  12.399  1.00  0.00     0.286 C 
HETATM    8  O1  UNL     1      -1.470   2.652  12.407  1.00  0.00    -0.300 OA
ENDBRANCH   6   7
BRANCH   6   9
HETATM    9  C12 UNL     1      -4.008   1.900  13.355  1.00  0.00     0.227 C 
BRANCH   9  10
HETATM   10  N2  UNL     1      -4.832   1.689  14.463  1.00  0.00    -0.337 N 
HETATM   11  C13 UNL     1      -4.466   1.356  15.787  1.00  0.00     0.271 C 
HETATM   12  O2  UNL     1      -3.289   1.188  16.132  1.00  0.00    -0.266 OA
ATOM     13  H2  UNL     1      -5.833   1.789  14.294  1.00  0.00     0.164 HD
BRANCH  11  14
HETATM   14  C14 UNL     1      -5.559   1.200  16.834  1.00  0.00     0.259 C 
BRANCH  14  15
HETATM   15  N3  UNL     1      -6.410   2.283  16.918  1.00  0.00    -0.386 NA
BRANCH  15  16
HETATM   16  C15 UNL     1      -7.250   3.348  16.994  1.00  0.00     0.440 C 
HETATM   17  O3  UNL     1      -7.186   4.495  17.410  1.00  0.00    -0.268 OA
ENDBRANCH  15  16
ENDBRANCH  14  15
ENDBRANCH  11  14
ENDBRANCH   9  10
BRANCH   9  18
HETATM   18  C16 UNL     1      -4.395   1.087  12.178  1.00  0.00     0.260 C 
HETATM   19  N4  UNL     1      -4.721   1.590  10.932  1.00  0.00    -0.060 NA
HETATM   20  O4  UNL     1      -4.437  -0.176  12.349  1.00  0.00    -0.274 OA
ENDBRANCH   9  18
ENDBRANCH   6   9
BRANCH   1  21
HETATM   21  C5  UNL     1      -4.775   6.633  12.493  1.00  0.00     0.030 C 
BRANCH  21  22
HETATM   22  C4  UNL     1      -5.269   7.123  11.188  1.00  0.00    -0.009 A 
HETATM   23  C2  UNL     1      -6.430   8.120  11.375  1.00  0.00    -0.014 A 
HETATM   24  C1  UNL     1      -7.606   7.976  10.453  1.00  0.00     0.010 C 
HETATM   25  C3  UNL     1      -5.188   8.600  10.818  1.00  0.00     0.010 A 
ENDBRANCH  21  22
ENDBRANCH   1  21
TORSDOF 9
ENDMDL
MODEL 3
REMARK VINA RESULT: -7.380564045      1.159      1.185
REMARK  9 active torsions:
REMARK  status: ('A' for Active; 'I' for Inactive)
REMARK    1  A    between atoms: C4_4  and  C5_5 
REMARK    2  A    between atoms: C5_5  and  C6_6 
REMARK    3  A    between atoms: C10_11  and  C11_12 
REMARK    4  A    between atoms: C10_11  and  C12_14 
REMARK    5  A    between atoms: C12_14  and  N2_15 
REMARK    6  A    between atoms: C12_14  and  C16_23 
REMARK       I    between atoms: N2_15  and  C13_17 
REMARK    7  A    between atoms: C13_17  and  C14_19 
REMARK    8  A    between atoms: C14_19  and  N3_20 
REMARK    9  A    between atoms: N3_20  and  C15_21 
ROOT
HETATM    1  C6  UNL     1      -4.931   5.719  12.709  1.00  0.00     0.085 C 
HETATM    2  C7  UNL     1      -5.074   5.894  14.284  1.00  0.00     0.027 C 
HETATM    3  C8  UNL     1      -3.606   5.995  14.617  1.00  0.00     0.022 C 
HETATM    4  C9  UNL     1      -2.893   5.296  13.492  1.00  0.00     0.123 C 
HETATM    5  N1  UNL     1      -4.039   4.680  12.794  1.00  0.00    -0.375 N 
HETATM    6  C10 UNL     1      -3.698   3.764  11.848  1.00  0.00     0.077 C 
ENDROOT
BRANCH   6   7
HETATM    7  C11 UNL     1      -2.751   3.990  10.789  1.00  0.00     0.286 C 
HETATM    8  O1  UNL     1      -2.890   3.817   9.596  1.00  0.00    -0.300 OA
ENDBRANCH   6   7
BRANCH   6   9
HETATM    9  C12 UNL     1      -3.872   2.301  12.144  1.00  0.00     0.227 C 
BRANCH   9  10
HETATM   10  N2  UNL     1      -3.985   1.918  13.483  1.00  0.00    -0.337 N 
HETATM   11  C13 UNL     1      -4.264   0.640  14.017  1.00  0.00     0.271 C 
HETATM   12  O2  UNL     1      -4.468  -0.352  13.305  1.00  0.00    -0.266 OA
ATOM     13  H2  UNL     1      -3.848   2.662  14.168  1.00  0.00     0.164 HD
BRANCH  11  14
HETATM   14  C14 UNL     1      -4.314   0.470  15.529  1.00  0.00     0.259 C 
BRANCH  14  15
HETATM   15  N3  UNL     1      -5.503   0.877  16.097  1.00  0.00    -0.386 NA
BRANCH  15  16
HETATM   16  C15 UNL     1      -6.677   1.273  16.654  1.00  0.00     0.440 C 
HETATM   17  O3  UNL     1      -7.651   0.724  17.145  1.00  0.00    -0.268 OA
ENDBRANCH  15  16
ENDBRANCH  14  15
ENDBRANCH  11  14
ENDBRANCH   9  10
BRANCH   9  18
HETATM   18  C16 UNL     1      -4.896   1.679  11.272  1.00  0.00     0.260 C 
HETATM   19  N4  UNL     1      -4.649   0.710  10.317  1.00  0.00    -0.060 NA
HETATM   20  O4  UNL     1      -6.094   2.090  11.420  1.00  0.00    -0.274 OA
ENDBRANCH   9  18
ENDBRANCH   6   9
BRANCH   1  21
HETATM   21  C5  UNL     1      -4.756   7.090  12.283  1.00  0.00     0.030 C 
BRANCH  21  22
HETATM   22  C4  UNL     1      -5.311   7.557  10.995  1.00  0.00    -0.009 A 
HETATM   23  C2  UNL     1      -6.696   8.203  11.191  1.00  0.00    -0.014 A 
HETATM   24  C1  UNL     1      -7.759   7.851  10.190  1.00  0.00     0.010 C 
HETATM   25  C3  UNL     1      -5.601   9.034  10.751  1.00  0.00     0.010 A 
ENDBRANCH  21  22
ENDBRANCH   1  21
TORSDOF 9
ENDMDL
MODEL 4
REMARK VINA RESULT: -7.209273082      2.411      3.918
REMARK  9 active torsions:
REMARK  status: ('A' for Active; 'I' for Inactive)
REMARK    1  A    between atoms: C4_4  and  C5_5 
REMARK    2  A    between atoms: C5_5  and  C6_6 
REMARK    3  A    between atoms: C10_11  and  C11_12 
REMARK    4  A    between atoms: C10_11  and  C12_14 
REMARK    5  A    between atoms: C12_14  and  N2_15 
REMARK    6  A    between atoms: C12_14  and  C16_23 
REMARK       I    between atoms: N2_15  and  C13_17 
REMARK    7  A    between atoms: C13_17  and  C14_19 
REMARK    8  A    between atoms: C14_19  and  N3_20 
REMARK    9  A    between atoms: N3_20  and  C15_21 
ROOT
HETATM    1  C6  UNL     1      -2.306   6.054  13.937  1.00  0.00     0.085 C 
HETATM    2  C7  UNL     1      -1.413   5.949  12.624  1.00  0.00     0.027 C 
HETATM    3  C8  UNL     1      -2.514   6.124  11.608  1.00  0.00     0.022 C 
HETATM    4  C9  UNL     1      -3.773   5.691  12.307  1.00  0.00     0.123 C 
HETATM    5  N1  UNL     1      -3.206   5.100  13.535  1.00  0.00    -0.375 N 
HETATM    6  C10 UNL     1      -4.093   4.390  14.283  1.00  0.00     0.077 C 
ENDROOT
BRANCH   6   7
HETATM    7  C11 UNL     1      -5.377   4.874  14.715  1.00  0.00     0.286 C 
HETATM    8  O1  UNL     1      -6.482   4.514  14.367  1.00  0.00    -0.300 OA
ENDBRANCH   6   7
BRANCH   6   9
HETATM    9  C12 UNL     1      -4.037   2.888  14.263  1.00  0.00     0.227 C 
BRANCH   9  10
HETATM   10  N2  UNL     1      -4.899   2.195  15.116  1.00  0.00    -0.337 N 
HETATM   11  C13 UNL     1      -4.587   1.205  16.075  1.00  0.00     0.271 C 
HETATM   12  O2  UNL     1      -3.433   0.804  16.270  1.00  0.00    -0.266 OA
ATOM     13  H2  UNL     1      -5.887   2.435  15.035  1.00  0.00     0.164 HD
BRANCH  11  14
HETATM   14  C14 UNL     1      -5.713   0.608  16.907  1.00  0.00     0.259 C 
BRANCH  14  15
HETATM   15  N3  UNL     1      -6.217   1.466  17.862  1.00  0.00    -0.386 NA
BRANCH  15  16
HETATM   16  C15 UNL     1      -6.707   2.312  18.806  1.00  0.00     0.440 C 
HETATM   17  O3  UNL     1      -6.376   2.676  19.924  1.00  0.00    -0.268 OA
ENDBRANCH  15  16
ENDBRANCH  14  15
ENDBRANCH  11  14
ENDBRANCH   9  10
BRANCH   9  18
HETATM   18  C16 UNL     1      -4.031   2.355  12.880  1.00  0.00     0.260 C 
HETATM   19  N4  UNL     1      -5.115   2.346  12.024  1.00  0.00    -0.060 NA
HETATM   20  O4  UNL     1      -2.931   1.857  12.469  1.00  0.00    -0.274 OA
ENDBRANCH   9  18
ENDBRANCH   6   9
BRANCH   1  21
HETATM   21  C5  UNL     1      -2.439   7.487  14.078  1.00  0.00     0.030 C 
BRANCH  21  22
HETATM   22  C4  UNL     1      -1.347   8.292  14.668  1.00  0.00    -0.009 A 
HETATM   23  C2  UNL     1      -1.851   9.689  15.081  1.00  0.00    -0.014 A 
HETATM   24  C1  UNL     1      -0.964  10.855  14.754  1.00  0.00     0.010 C 
HETATM   25  C3  UNL     1      -1.416   8.777  16.112  1.00  0.00     0.010 A 
ENDBRANCH  21  22
ENDBRANCH   1  21
TORSDOF 9
ENDMDL
MODEL 5
REMARK VINA RESULT: -7.106059808      2.100      3.570
REMARK  9 active torsions:
REMARK  status: ('A' for Active; 'I' for Inactive)
REMARK    1  A    between atoms: C4_4  and  C5_5 
REMARK    2  A    between atoms: C5_5  and  C6_6 
REMARK    3  A    between atoms: C10_11  and  C11_12 
REMARK    4  A    between atoms: C10_11  and  C12_14 
REMARK    5  A    between atoms: C12_14  and  N2_15 
REMARK    6  A    between atoms: C12_14  and  C16_23 
REMARK       I    between atoms: N2_15  and  C13_17 
REMARK    7  A    between atoms: C13_17  and  C14_19 
REMARK    8  A    between atoms: C14_19  and  N3_20 
REMARK    9  A    between atoms: N3_20  and  C15_21 
ROOT
HETATM    1  C6  UNL     1      -2.377   5.844  13.880  1.00  0.00     0.085 C 
HETATM    2  C7  UNL     1      -1.284   6.176  12.771  1.00  0.00     0.027 C 
HETATM    3  C8  UNL     1      -2.221   6.650  11.689  1.00  0.00     0.022 C 
HETATM    4  C9  UNL     1      -3.542   5.998  11.992  1.00  0.00     0.123 C 
HETATM    5  N1  UNL     1      -3.136   5.055  13.053  1.00  0.00    -0.375 N 
HETATM    6  C10 UNL     1      -4.079   4.131  13.379  1.00  0.00     0.077 C 
ENDROOT
BRANCH   6   7
HETATM    7  C11 UNL     1      -5.444   4.433  13.715  1.00  0.00     0.286 C 
HETATM    8  O1  UNL     1      -6.202   3.825  14.443  1.00  0.00    -0.300 OA
ENDBRANCH   6   7
BRANCH   6   9
HETATM    9  C12 UNL     1      -3.918   2.715  12.901  1.00  0.00     0.227 C 
BRANCH   9  10
HETATM   10  N2  UNL     1      -4.271   1.688  13.781  1.00  0.00    -0.337 N 
HETATM   11  C13 UNL     1      -3.957   1.553  15.152  1.00  0.00     0.271 C 
HETATM   12  O2  UNL     1      -3.272   2.381  15.766  1.00  0.00    -0.266 OA
ATOM     13  H2  UNL     1      -4.831   0.936  13.379  1.00  0.00     0.164 HD
BRANCH  11  14
HETATM   14  C14 UNL     1      -4.482   0.341  15.909  1.00  0.00     0.259 C 
BRANCH  14  15
HETATM   15  N3  UNL     1      -5.686   0.561  16.547  1.00  0.00    -0.386 NA
BRANCH  15  16
HETATM   16  C15 UNL     1      -6.868   0.778  17.179  1.00  0.00     0.440 C 
HETATM   17  O3  UNL     1      -7.878   1.432  16.964  1.00  0.00    -0.268 OA
ENDBRANCH  15  16
ENDBRANCH  14  15
ENDBRANCH  11  14
ENDBRANCH   9  10
BRANCH   9  18
HETATM   18  C16 UNL     1      -4.467   2.528  11.537  1.00  0.00     0.260 C 
HETATM   19  N4  UNL     1      -5.707   1.995  11.242  1.00  0.00    -0.060 NA
HETATM   20  O4  UNL     1      -3.715   2.881  10.569  1.00  0.00    -0.274 OA
ENDBRANCH   9  18
ENDBRANCH   6   9
BRANCH   1  21
HETATM   21  C5  UNL     1      -2.627   7.155  14.436  1.00  0.00     0.030 C 
BRANCH  21  22
HETATM   22  C4  UNL     1      -1.507   8.061  14.767  1.00  0.00    -0.009 A 
HETATM   23  C2  UNL     1      -2.014   9.490  15.044  1.00  0.00    -0.014 A 
HETATM   24  C1  UNL     1      -1.222  10.619  14.450  1.00  0.00     0.010 C 
HETATM   25  C3  UNL     1      -1.421   8.744  16.127  1.00  0.00     0.010 A 
ENDBRANCH  21  22
ENDBRANCH   1  21
TORSDOF 9
ENDMDL
