MODEL 1
REMARK VINA RESULT: -6.331986404      0.000      0.000
REMARK  12 active torsions:
REMARK  status: ('A' for Active; 'I' for Inactive)
REMARK    1  A    between atoms: N1_1  and  C1_5 
REMARK    2  A    between atoms: C1_5  and  O1_6 
REMARK    3  A    between atoms: C1_5  and  C2_8 
REMARK    4  A    between atoms: C2_8  and  N2_9 
REMARK    5  A    between atoms: N2_9  and  C3_10 
REMARK    6  A    between atoms: N2_9  and  N3_22 
REMARK    7  A    between atoms: C3_10  and  C4_11 
REMARK    8  A    between atoms: C4_11  and  O2_12 
REMARK    9  A    between atoms: C4_11  and  C5_14 
REMARK   10  A    between atoms: C4_11  and  C10_19 
REMARK   11  A    between atoms: C5_14  and  C6_15 
REMARK   12  A    between atoms: N4_25  and  C15_26 
ROOT
HETATM    1  N2  UNL     1      -4.360   2.838  13.535  1.00  0.00    -0.218 NA
ENDROOT
BRANCH   1   2
HETATM    2  C2  UNL     1      -5.194   2.451  12.371  1.00  0.00     0.174 C 
BRANCH   2   3
HETATM    3  C1  UNL     1      -4.733   1.143  11.790  1.00  0.00     0.331 C 
BRANCH   3   4
HETATM    4  N1  UNL     1      -3.478   0.792  12.456  1.00  0.00    -0.052 N 
ATOM      5  H13 UNL     1      -3.140  -0.134  12.191  1.00  0.00     0.277 HD
ATOM      6  H12 UNL     1      -2.686   1.333  12.110  1.00  0.00     0.277 HD
ATOM      7  H11 UNL     1      -3.609   0.888  13.463  1.00  0.00     0.277 HD
ENDBRANCH   3   4
BRANCH   3   8
HETATM    8  O1  UNL     1      -4.474   1.334  10.427  1.00  0.00    -0.369 OA
ATOM      9  H1  UNL     1      -5.303   1.376   9.965  1.00  0.00     0.212 HD
ENDBRANCH   3   8
ENDBRANCH   2   3
ENDBRANCH   1   2
BRANCH   1  10
HETATM   10  C3  UNL     1      -4.040   4.219  13.449  1.00  0.00     0.152 C 
BRANCH  10  11
HETATM   11  C4  UNL     1      -2.613   4.446  12.885  1.00  0.00     0.075 C 
BRANCH  11  12
HETATM   12  O2  UNL     1      -1.822   3.341  12.951  1.00  0.00    -0.388 OA
ATOM     13  H2  UNL     1      -0.988   3.498  13.378  1.00  0.00     0.210 HD
ENDBRANCH  11  12
BRANCH  11  14
HETATM   14  C5  UNL     1      -2.046   5.433  13.929  1.00  0.00     0.044 C 
BRANCH  14  15
HETATM   15  C6  UNL     1      -2.208   6.859  13.613  1.00  0.00    -0.012 C 
HETATM   16  C7  UNL     1      -1.046   7.797  13.888  1.00  0.00     0.005 C 
HETATM   17  C8  UNL     1      -2.092   8.792  14.385  1.00  0.00     0.001 C 
HETATM   18  C9  UNL     1      -2.884   7.559  14.815  1.00  0.00     0.005 C 
ENDBRANCH  14  15
ENDBRANCH  11  14
BRANCH  11  19
HETATM   19  C10 UNL     1      -2.728   5.158  11.588  1.00  0.00     0.021 A 
HETATM   20  C11 UNL     1      -2.727   4.437  10.249  1.00  0.00     0.008 A 
HETATM   21  C12 UNL     1      -3.908   5.213  10.728  1.00  0.00     0.008 A 
ENDBRANCH  11  19
ENDBRANCH  10  11
ENDBRANCH   1  10
BRANCH   1  22
HETATM   22  N3  UNL     1      -5.201   2.536  14.648  1.00  0.00    -0.260 N 
HETATM   23  C13 UNL     1      -6.259   3.346  15.209  1.00  0.00     0.168 C 
HETATM   24  C14 UNL     1      -6.090   3.087  16.713  1.00  0.00     0.157 C 
HETATM   25  N4  UNL     1      -5.757   1.688  16.739  1.00  0.00    -0.275 N 
HETATM   26  C16 UNL     1      -5.191   1.374  15.477  1.00  0.00     0.341 C 
HETATM   27  O4  UNL     1      -4.745   0.234  15.129  1.00  0.00    -0.245 OA
BRANCH  25  28
HETATM   28  C15 UNL     1      -5.938   0.797  17.823  1.00  0.00     0.359 C 
HETATM   29  O3  UNL     1      -6.275  -0.391  17.635  1.00  0.00    -0.283 OA
ENDBRANCH  25  28
ENDBRANCH   1  22
TORSDOF 12
ENDMDL
MODEL 2
REMARK VINA RESULT: -6.258901137      1.257      1.422
REMARK  12 active torsions:
REMARK  status: ('A' for Active; 'I' for Inactive)
REMARK    1  A    between atoms: N1_1  and  C1_5 
REMARK    2  A    between atoms: C1_5  and  O1_6 
REMARK    3  A    between atoms: C1_5  and  C2_8 
REMARK    4  A    between atoms: C2_8  and  N2_9 
REMARK    5  A    between atoms: N2_9  and  C3_10 
REMARK    6  A    between atoms: N2_9  and  N3_22 
REMARK    7  A    between atoms: C3_10  and  C4_11 
REMARK    8  A    between atoms: C4_11  and  O2_12 
REMARK    9  A    between atoms: C4_11  and  C5_14 
REMARK   10  A    between atoms: C4_11  and  C10_19 
REMARK   11  A    between atoms: C5_14  and  C6_15 
REMARK   12  A    between atoms: N4_25  and  C15_26 
ROOT
HETATM    1  N2  UNL     1      -4.383   3.778  13.780  1.00  0.00    -0.218 NA
ENDROOT
BRANCH   1   2
HETATM    2  C2  UNL     1      -4.869   3.280  12.471  1.00  0.00     0.174 C 
BRANCH   2   3
HETATM    3  C1  UNL     1      -3.918   2.267  11.895  1.00  0.00     0.331 C 
BRANCH   3   4
HETATM    4  N1  UNL     1      -4.555   0.955  12.019  1.00  0.00    -0.052 N 
ATOM      5  H13 UNL     1      -4.117   0.373  12.734  1.00  0.00     0.277 HD
ATOM      6  H12 UNL     1      -5.485   1.009  12.434  1.00  0.00     0.277 HD
ATOM      7  H11 UNL     1      -4.561   0.511  11.101  1.00  0.00     0.277 HD
ENDBRANCH   3   4
BRANCH   3   8
HETATM    8  O1  UNL     1      -2.751   2.269  12.669  1.00  0.00    -0.369 OA
ATOM      9  H1  UNL     1      -2.627   3.140  13.026  1.00  0.00     0.212 HD
ENDBRANCH   3   8
ENDBRANCH   2   3
ENDBRANCH   1   2
BRANCH   1  10
HETATM   10  C3  UNL     1      -4.534   5.189  13.835  1.00  0.00     0.152 C 
BRANCH  10  11
HETATM   11  C4  UNL     1      -3.266   5.926  13.330  1.00  0.00     0.075 C 
BRANCH  11  12
HETATM   12  O2  UNL     1      -2.209   5.098  13.113  1.00  0.00    -0.388 OA
ATOM     13  H2  UNL     1      -1.366   5.518  13.243  1.00  0.00     0.210 HD
ENDBRANCH  11  12
BRANCH  11  14
HETATM   14  C5  UNL     1      -2.901   6.758  14.580  1.00  0.00     0.044 C 
BRANCH  14  15
HETATM   15  C6  UNL     1      -2.364   8.099  14.318  1.00  0.00    -0.012 C 
HETATM   16  C7  UNL     1      -0.876   8.244  14.052  1.00  0.00     0.005 C 
HETATM   17  C8  UNL     1      -0.942   9.504  14.912  1.00  0.00     0.001 C 
HETATM   18  C9  UNL     1      -2.053   8.782  15.671  1.00  0.00     0.005 C 
ENDBRANCH  14  15
ENDBRANCH  11  14
BRANCH  11  19
HETATM   19  C10 UNL     1      -3.666   6.862  12.251  1.00  0.00     0.021 A 
HETATM   20  C11 UNL     1      -3.827   6.429  10.802  1.00  0.00     0.008 A 
HETATM   21  C12 UNL     1      -4.976   6.940  11.607  1.00  0.00     0.008 A 
ENDBRANCH  11  19
ENDBRANCH  10  11
ENDBRANCH   1  10
BRANCH   1  22
HETATM   22  N3  UNL     1      -5.220   3.098  14.716  1.00  0.00    -0.260 N 
HETATM   23  C13 UNL     1      -6.560   3.449  15.129  1.00  0.00     0.168 C 
HETATM   24  C14 UNL     1      -6.529   3.098  16.624  1.00  0.00     0.157 C 
HETATM   25  N4  UNL     1      -5.746   1.893  16.631  1.00  0.00    -0.275 N 
HETATM   26  C16 UNL     1      -4.932   1.921  15.470  1.00  0.00     0.341 C 
HETATM   27  O4  UNL     1      -4.079   1.036  15.143  1.00  0.00    -0.245 OA
BRANCH  25  28
HETATM   28  C15 UNL     1      -5.764   0.879  17.618  1.00  0.00     0.359 C 
HETATM   29  O3  UNL     1      -6.136  -0.282  17.347  1.00  0.00    -0.283 OA
ENDBRANCH  25  28
ENDBRANCH   1  22
TORSDOF 12
ENDMDL
MODEL 3
REMARK VINA RESULT: -6.215570391      1.314      1.599
REMARK  12 active torsions:
REMARK  status: ('A' for Active; 'I' for Inactive)
REMARK    1  A    between atoms: N1_1  and  C1_5 
REMARK    2  A    between atoms: C1_5  and  O1_6 
REMARK    3  A    between atoms: C1_5  and  C2_8 
REMARK    4  A    between atoms: C2_8  and  N2_9 
REMARK    5  A    between atoms: N2_9  and  C3_10 
REMARK    6  A    between atoms: N2_9  and  N3_22 
REMARK    7  A    between atoms: C3_10  and  C4_11 
REMARK    8  A    between atoms: C4_11  and  O2_12 
REMARK    9  A    between atoms: C4_11  and  C5_14 
REMARK   10  A    between atoms: C4_11  and  C10_19 
REMARK   11  A    between atoms: C5_14  and  C6_15 
REMARK   12  A    between atoms: N4_25  and  C15_26 
ROOT
HETATM    1  N2  UNL     1      -3.354   2.879  13.875  1.00  0.00    -0.218 NA
ENDROOT
BRANCH   1   2
HETATM    2  C2  UNL     1      -3.378   1.926  12.740  1.00  0.00     0.174 C 
BRANCH   2   3
HETATM    3  C1  UNL     1      -4.368   2.360  11.694  1.00  0.00     0.331 C 
BRANCH   3   4
HETATM    4  N1  UNL     1      -5.226   1.210  11.405  1.00  0.00    -0.052 N 
ATOM      5  H13 UNL     1      -5.893   1.398  10.657  1.00  0.00     0.277 HD
ATOM      6  H12 UNL     1      -4.720   0.448  10.953  1.00  0.00     0.277 HD
ATOM      7  H11 UNL     1      -5.679   0.920  12.272  1.00  0.00     0.277 HD
ENDBRANCH   3   4
BRANCH   3   8
HETATM    8  O1  UNL     1      -3.661   2.690  10.531  1.00  0.00    -0.369 OA
ATOM      9  H1  UNL     1      -3.469   3.621  10.549  1.00  0.00     0.212 HD
ENDBRANCH   3   8
ENDBRANCH   2   3
ENDBRANCH   1   2
BRANCH   1  10
HETATM   10  C3  UNL     1      -3.500   4.204  13.383  1.00  0.00     0.152 C 
BRANCH  10  11
HETATM   11  C4  UNL     1      -2.185   5.017  13.513  1.00  0.00     0.075 C 
BRANCH  11  12
HETATM   12  O2  UNL     1      -1.422   4.646  14.578  1.00  0.00    -0.388 OA
ATOM     13  H2  UNL     1      -1.529   5.211  15.334  1.00  0.00     0.210 HD
ENDBRANCH  11  12
BRANCH  11  14
HETATM   14  C5  UNL     1      -2.745   6.414  13.861  1.00  0.00     0.044 C 
BRANCH  14  15
HETATM   15  C6  UNL     1      -1.814   7.321  14.544  1.00  0.00    -0.012 C 
HETATM   16  C7  UNL     1      -2.381   8.356  15.500  1.00  0.00     0.005 C 
HETATM   17  C8  UNL     1      -1.356   9.322  14.912  1.00  0.00     0.001 C 
HETATM   18  C9  UNL     1      -1.528   8.528  13.619  1.00  0.00     0.005 C 
ENDBRANCH  14  15
ENDBRANCH  11  14
BRANCH  11  19
HETATM   19  C10 UNL     1      -1.546   5.093  12.177  1.00  0.00     0.021 A 
HETATM   20  C11 UNL     1      -0.080   5.448  11.983  1.00  0.00     0.008 A 
HETATM   21  C12 UNL     1      -0.629   4.115  11.594  1.00  0.00     0.008 A 
ENDBRANCH  11  19
ENDBRANCH  10  11
ENDBRANCH   1  10
BRANCH   1  22
HETATM   22  N3  UNL     1      -4.463   2.462  14.672  1.00  0.00    -0.260 N 
HETATM   23  C13 UNL     1      -5.828   2.934  14.611  1.00  0.00     0.168 C 
HETATM   24  C14 UNL     1      -6.221   2.950  16.096  1.00  0.00     0.157 C 
HETATM   25  N4  UNL     1      -5.576   1.764  16.588  1.00  0.00    -0.275 N 
HETATM   26  C16 UNL     1      -4.487   1.494  15.719  1.00  0.00     0.341 C 
HETATM   27  O4  UNL     1      -3.658   0.537  15.847  1.00  0.00    -0.245 OA
BRANCH  25  28
HETATM   28  C15 UNL     1      -5.940   1.017  17.733  1.00  0.00     0.359 C 
HETATM   29  O3  UNL     1      -6.222  -0.198  17.651  1.00  0.00    -0.283 OA
ENDBRANCH  25  28
ENDBRANCH   1  22
TORSDOF 12
ENDMDL
MODEL 4
REMARK VINA RESULT: -6.182553081      0.831      1.015
REMARK  12 active torsions:
REMARK  status: ('A' for Active; 'I' for Inactive)
REMARK    1  A    between atoms: N1_1  and  C1_5 
REMARK    2  A    between atoms: C1_5  and  O1_6 
REMARK    3  A    between atoms: C1_5  and  C2_8 
REMARK    4  A    between atoms: C2_8  and  N2_9 
REMARK    5  A    between atoms: N2_9  and  C3_10 
REMARK    6  A    between atoms: N2_9  and  N3_22 
REMARK    7  A    between atoms: C3_10  and  C4_11 
REMARK    8  A    between atoms: C4_11  and  O2_12 
REMARK    9  A    between atoms: C4_11  and  C5_14 
REMARK   10  A    between atoms: C4_11  and  C10_19 
REMARK   11  A    between atoms: C5_14  and  C6_15 
REMARK   12  A    between atoms: N4_25  and  C15_26 
ROOT
HETATM    1  N2  UNL     1      -4.423   2.882  13.473  1.00  0.00    -0.218 NA
ENDROOT
BRANCH   1   2
HETATM    2  C2  UNL     1      -5.226   2.428  12.312  1.00  0.00     0.174 C 
BRANCH   2   3
HETATM    3  C1  UNL     1      -4.722   1.111  11.792  1.00  0.00     0.331 C 
BRANCH   3   4
HETATM    4  N1  UNL     1      -3.435   0.853  12.439  1.00  0.00    -0.052 N 
ATOM      5  H13 UNL     1      -3.417  -0.039  12.933  1.00  0.00     0.277 HD
ATOM      6  H12 UNL     1      -2.692   0.656  11.769  1.00  0.00     0.277 HD
ATOM      7  H11 UNL     1      -3.215   1.642  13.047  1.00  0.00     0.277 HD
ENDBRANCH   3   4
BRANCH   3   8
HETATM    8  O1  UNL     1      -4.508   1.235  10.413  1.00  0.00    -0.369 OA
ATOM      9  H1  UNL     1      -4.730   0.410   9.998  1.00  0.00     0.212 HD
ENDBRANCH   3   8
ENDBRANCH   2   3
ENDBRANCH   1   2
BRANCH   1  10
HETATM   10  C3  UNL     1      -4.152   4.271  13.347  1.00  0.00     0.152 C 
BRANCH  10  11
HETATM   11  C4  UNL     1      -2.708   4.620  13.792  1.00  0.00     0.075 C 
BRANCH  11  12
HETATM   12  O2  UNL     1      -2.226   3.797  14.763  1.00  0.00    -0.388 OA
ATOM     13  H2  UNL     1      -2.426   2.880  14.615  1.00  0.00     0.210 HD
ENDBRANCH  11  12
BRANCH  11  14
HETATM   14  C5  UNL     1      -2.940   5.987  14.474  1.00  0.00     0.044 C 
BRANCH  14  15
HETATM   15  C6  UNL     1      -2.006   7.055  14.095  1.00  0.00    -0.012 C 
HETATM   16  C7  UNL     1      -1.805   8.214  15.056  1.00  0.00     0.005 C 
HETATM   17  C8  UNL     1      -1.801   9.112  13.821  1.00  0.00     0.001 C 
HETATM   18  C9  UNL     1      -2.759   8.085  13.221  1.00  0.00     0.005 C 
ENDBRANCH  14  15
ENDBRANCH  11  14
BRANCH  11  19
HETATM   19  C10 UNL     1      -1.883   4.841  12.579  1.00  0.00     0.021 A 
HETATM   20  C11 UNL     1      -0.942   3.786  12.018  1.00  0.00     0.008 A 
HETATM   21  C12 UNL     1      -2.122   4.282  11.250  1.00  0.00     0.008 A 
ENDBRANCH  11  19
ENDBRANCH  10  11
ENDBRANCH   1  10
BRANCH   1  22
HETATM   22  N3  UNL     1      -5.266   2.585  14.586  1.00  0.00    -0.260 N 
HETATM   23  C13 UNL     1      -6.347   3.383  15.121  1.00  0.00     0.168 C 
HETATM   24  C14 UNL     1      -6.184   3.158  16.631  1.00  0.00     0.157 C 
HETATM   25  N4  UNL     1      -5.822   1.768  16.689  1.00  0.00    -0.275 N 
HETATM   26  C16 UNL     1      -5.238   1.441  15.438  1.00  0.00     0.341 C 
HETATM   27  O4  UNL     1      -4.765   0.304  15.117  1.00  0.00    -0.245 OA
BRANCH  25  28
HETATM   28  C15 UNL     1      -5.992   0.894  17.789  1.00  0.00     0.359 C 
HETATM   29  O3  UNL     1      -6.285  -0.309  17.621  1.00  0.00    -0.283 OA
ENDBRANCH  25  28
ENDBRANCH   1  22
TORSDOF 12
ENDMDL
MODEL 5
REMARK VINA RESULT: -6.035183521      1.609      1.981
REMARK  12 active torsions:
REMARK  status: ('A' for Active; 'I' for Inactive)
REMARK    1  A    between atoms: N1_1  and  C1_5 
REMARK    2  A    between atoms: C1_5  and  O1_6 
REMARK    3  A    between atoms: C1_5  and  C2_8 
REMARK    4  A    between atoms: C2_8  and  N2_9 
REMARK    5  A    between atoms: N2_9  and  C3_10 
REMARK    6  A    between atoms: N2_9  and  N3_22 
REMARK    7  A    between atoms: C3_10  and  C4_11 
REMARK    8  A    between atoms: C4_11  and  O2_12 
REMARK    9  A    between atoms: C4_11  and  C5_14 
REMARK   10  A    between atoms: C4_11  and  C10_19 
REMARK   11  A    between atoms: C5_14  and  C6_15 
REMARK   12  A    between atoms: N4_25  and  C15_26 
ROOT
HETATM    1  N2  UNL     1      -3.774   3.829  13.924  1.00  0.00    -0.218 NA
ENDROOT
BRANCH   1   2
HETATM    2  C2  UNL     1      -4.604   3.312  12.809  1.00  0.00     0.174 C 
BRANCH   2   3
HETATM    3  C1  UNL     1      -3.872   2.242  12.047  1.00  0.00     0.331 C 
BRANCH   3   4
HETATM    4  N1  UNL     1      -4.432   0.955  12.462  1.00  0.00    -0.052 N 
ATOM      5  H13 UNL     1      -3.715   0.241  12.594  1.00  0.00     0.277 HD
ATOM      6  H12 UNL     1      -4.789   0.973  13.417  1.00  0.00     0.277 HD
ATOM      7  H11 UNL     1      -5.142   0.677  11.783  1.00  0.00     0.277 HD
ENDBRANCH   3   4
BRANCH   3   8
HETATM    8  O1  UNL     1      -2.522   2.280  12.419  1.00  0.00    -0.369 OA
ATOM      9  H1  UNL     1      -2.280   3.184  12.582  1.00  0.00     0.212 HD
ENDBRANCH   3   8
ENDBRANCH   2   3
ENDBRANCH   1   2
BRANCH   1  10
HETATM   10  C3  UNL     1      -3.951   5.235  14.032  1.00  0.00     0.152 C 
BRANCH  10  11
HETATM   11  C4  UNL     1      -2.926   6.014  13.167  1.00  0.00     0.075 C 
BRANCH  11  12
HETATM   12  O2  UNL     1      -2.053   5.207  12.504  1.00  0.00    -0.388 OA
ATOM     13  H2  UNL     1      -2.073   5.323  11.561  1.00  0.00     0.210 HD
ENDBRANCH  11  12
BRANCH  11  14
HETATM   14  C5  UNL     1      -2.100   6.718  14.266  1.00  0.00     0.044 C 
BRANCH  14  15
HETATM   15  C6  UNL     1      -2.201   8.183  14.300  1.00  0.00    -0.012 C 
HETATM   16  C7  UNL     1      -0.934   9.000  14.121  1.00  0.00     0.005 C 
HETATM   17  C8  UNL     1      -1.483   9.913  15.215  1.00  0.00     0.001 C 
HETATM   18  C9  UNL     1      -2.136   8.651  15.773  1.00  0.00     0.005 C 
ENDBRANCH  14  15
ENDBRANCH  11  14
BRANCH  11  19
HETATM   19  C10 UNL     1      -3.654   7.052  12.397  1.00  0.00     0.021 A 
HETATM   20  C11 UNL     1      -4.095   6.852  10.955  1.00  0.00     0.008 A 
HETATM   21  C12 UNL     1      -5.077   7.049  12.062  1.00  0.00     0.008 A 
ENDBRANCH  11  19
ENDBRANCH  10  11
ENDBRANCH   1  10
BRANCH   1  22
HETATM   22  N3  UNL     1      -4.278   3.122  15.057  1.00  0.00    -0.260 N 
HETATM   23  C13 UNL     1      -3.552   2.259  15.962  1.00  0.00     0.168 C 
HETATM   24  C14 UNL     1      -4.583   1.153  16.235  1.00  0.00     0.157 C 
HETATM   25  N4  UNL     1      -5.810   1.900  16.306  1.00  0.00    -0.275 N 
HETATM   26  C16 UNL     1      -5.614   3.090  15.559  1.00  0.00     0.341 C 
HETATM   27  O4  UNL     1      -6.488   3.994  15.365  1.00  0.00    -0.245 OA
BRANCH  25  28
HETATM   28  C15 UNL     1      -6.996   1.514  16.974  1.00  0.00     0.359 C 
HETATM   29  O3  UNL     1      -7.375   0.324  16.987  1.00  0.00    -0.283 OA
ENDBRANCH  25  28
ENDBRANCH   1  22
TORSDOF 12
ENDMDL
