MODEL 1
REMARK VINA RESULT: -6.378956241      0.000      0.000
REMARK  12 active torsions:
REMARK  status: ('A' for Active; 'I' for Inactive)
REMARK    1  A    between atoms: C2_2  and  C4_4 
REMARK    2  A    between atoms: C4_4  and  C5_5 
REMARK    3  A    between atoms: C4_4  and  N1_8 
REMARK    4  A    between atoms: C5_5  and  O1_6 
REMARK       I    between atoms: N1_8  and  C6_10 
REMARK    5  A    between atoms: C6_10  and  C7_12 
REMARK    6  A    between atoms: C7_12  and  C8_13 
REMARK    7  A    between atoms: C7_12  and  N2_17 
REMARK    8  A    between atoms: C8_13  and  C9_14 
REMARK       I    between atoms: N2_17  and  C12_19 
REMARK    9  A    between atoms: C12_19  and  C13_21 
REMARK   10  A    between atoms: C13_21  and  C14_23 
REMARK   11  A    between atoms: C14_23  and  N3_24 
REMARK   12  A    between atoms: N3_24  and  C16_26 
ROOT
HETATM    1  C7  UNL     1      -5.326   3.668  15.592  1.00  0.00     0.100 C 
ENDROOT
BRANCH   1   2
HETATM    2  C6  UNL     1      -4.670   4.892  15.066  1.00  0.00     0.268 C 
HETATM    3  N1  UNL     1      -3.617   4.708  14.123  1.00  0.00    -0.349 N 
ATOM      4  H1  UNL     1      -3.362   3.758  13.853  1.00  0.00     0.163 HD
HETATM    5  O2  UNL     1      -4.965   6.058  15.384  1.00  0.00    -0.266 OA
BRANCH   3   6
HETATM    6  C4  UNL     1      -2.897   5.810  13.536  1.00  0.00     0.111 C 
BRANCH   6   7
HETATM    7  C2  UNL     1      -3.462   6.188  12.182  1.00  0.00     0.002 C 
HETATM    8  C1  UNL     1      -2.544   5.862  11.042  1.00  0.00     0.011 C 
HETATM    9  C3  UNL     1      -3.834   7.656  12.139  1.00  0.00     0.011 C 
ENDBRANCH   6   7
BRANCH   6  10
HETATM   10  C5  UNL     1      -1.434   5.527  13.489  1.00  0.00     0.189 C 
BRANCH  10  11
HETATM   11  O1  UNL     1      -1.095   4.255  13.879  1.00  0.00    -0.399 OA
ATOM     12  H1  UNL     1      -1.183   4.099  14.812  1.00  0.00     0.209 HD
ENDBRANCH  10  11
ENDBRANCH   6  10
ENDBRANCH   3   6
ENDBRANCH   1   2
BRANCH   1  13
HETATM   13  C8  UNL     1      -6.621   3.875  16.255  1.00  0.00     0.013 C 
BRANCH  13  14
HETATM   14  C9  UNL     1      -7.130   2.955  17.273  1.00  0.00     0.010 A 
HETATM   15  C10 UNL     1      -6.332   2.039  18.110  1.00  0.00     0.009 A 
HETATM   16  C11 UNL     1      -7.389   1.509  17.095  1.00  0.00     0.009 A 
ENDBRANCH  13  14
ENDBRANCH   1  13
BRANCH   1  17
HETATM   17  N2  UNL     1      -5.226   2.553  14.693  1.00  0.00    -0.316 N 
HETATM   18  C12 UNL     1      -4.384   1.429  14.930  1.00  0.00     0.293 C 
HETATM   19  O3  UNL     1      -3.662   1.371  15.984  1.00  0.00    -0.264 OA
ATOM     20  H2  UNL     1      -5.787   2.567  13.841  1.00  0.00     0.169 HD
BRANCH  18  21
HETATM   21  C13 UNL     1      -4.300   0.315  14.007  1.00  0.00     0.234 C 
HETATM   22  O4  UNL     1      -4.741  -0.807  14.331  1.00  0.00    -0.285 OA
BRANCH  21  23
HETATM   23  C14 UNL     1      -3.694   0.501  12.677  1.00  0.00     0.213 C 
BRANCH  23  24
HETATM   24  N3  UNL     1      -4.652   0.618  11.623  1.00  0.00    -0.356 N 
HETATM   25  C15 UNL     1      -4.971  -0.555  10.837  1.00  0.00     0.152 C 
BRANCH  24  26
HETATM   26  C16 UNL     1      -5.268   1.880  11.369  1.00  0.00     0.350 C 
HETATM   27  O5  UNL     1      -4.729   2.918  11.789  1.00  0.00    -0.284 OA
ENDBRANCH  24  26
ENDBRANCH  23  24
ENDBRANCH  21  23
ENDBRANCH  18  21
ENDBRANCH   1  17
TORSDOF 12
ENDMDL
MODEL 2
REMARK VINA RESULT: -6.302619616      2.523      5.153
REMARK  12 active torsions:
REMARK  status: ('A' for Active; 'I' for Inactive)
REMARK    1  A    between atoms: C2_2  and  C4_4 
REMARK    2  A    between atoms: C4_4  and  C5_5 
REMARK    3  A    between atoms: C4_4  and  N1_8 
REMARK    4  A    between atoms: C5_5  and  O1_6 
REMARK       I    between atoms: N1_8  and  C6_10 
REMARK    5  A    between atoms: C6_10  and  C7_12 
REMARK    6  A    between atoms: C7_12  and  C8_13 
REMARK    7  A    between atoms: C7_12  and  N2_17 
REMARK    8  A    between atoms: C8_13  and  C9_14 
REMARK       I    between atoms: N2_17  and  C12_19 
REMARK    9  A    between atoms: C12_19  and  C13_21 
REMARK   10  A    between atoms: C13_21  and  C14_23 
REMARK   11  A    between atoms: C14_23  and  N3_24 
REMARK   12  A    between atoms: N3_24  and  C16_26 
ROOT
HETATM    1  C7  UNL     1      -3.965   5.627  13.848  1.00  0.00     0.100 C 
ENDROOT
BRANCH   1   2
HETATM    2  C6  UNL     1      -4.688   5.885  12.576  1.00  0.00     0.268 C 
HETATM    3  N1  UNL     1      -5.194   7.203  12.374  1.00  0.00    -0.349 N 
ATOM      4  H1  UNL     1      -5.042   7.902  13.101  1.00  0.00     0.163 HD
HETATM    5  O2  UNL     1      -4.884   5.046  11.679  1.00  0.00    -0.266 OA
BRANCH   3   6
HETATM    6  C4  UNL     1      -5.913   7.586  11.185  1.00  0.00     0.111 C 
BRANCH   6   7
HETATM    7  C2  UNL     1      -5.252   8.754  10.485  1.00  0.00     0.002 C 
HETATM    8  C1  UNL     1      -3.883   9.067  11.012  1.00  0.00     0.011 C 
HETATM    9  C3  UNL     1      -6.123   9.992  10.551  1.00  0.00     0.011 C 
ENDBRANCH   6   7
BRANCH   6  10
HETATM   10  C5  UNL     1      -7.352   7.837  11.489  1.00  0.00     0.189 C 
BRANCH  10  11
HETATM   11  O1  UNL     1      -7.809   7.193  12.612  1.00  0.00    -0.399 OA
ATOM     12  H1  UNL     1      -8.748   7.260  12.743  1.00  0.00     0.209 HD
ENDBRANCH  10  11
ENDBRANCH   6  10
ENDBRANCH   3   6
ENDBRANCH   1   2
BRANCH   1  13
HETATM   13  C8  UNL     1      -3.702   6.808  14.680  1.00  0.00     0.013 C 
BRANCH  13  14
HETATM   14  C9  UNL     1      -2.392   7.462  14.712  1.00  0.00     0.010 A 
HETATM   15  C10 UNL     1      -1.987   8.578  15.588  1.00  0.00     0.009 A 
HETATM   16  C11 UNL     1      -2.028   8.727  14.036  1.00  0.00     0.009 A 
ENDBRANCH  13  14
ENDBRANCH   1  13
BRANCH   1  17
HETATM   17  N2  UNL     1      -4.429   4.447  14.521  1.00  0.00    -0.316 N 
HETATM   18  C12 UNL     1      -3.558   3.433  15.014  1.00  0.00     0.293 C 
HETATM   19  O3  UNL     1      -2.291   3.540  14.870  1.00  0.00    -0.264 OA
ATOM     20  H2  UNL     1      -5.434   4.327  14.652  1.00  0.00     0.169 HD
BRANCH  18  21
HETATM   21  C13 UNL     1      -4.050   2.250  15.690  1.00  0.00     0.234 C 
HETATM   22  O4  UNL     1      -3.310   1.616  16.471  1.00  0.00    -0.285 OA
BRANCH  21  23
HETATM   23  C14 UNL     1      -5.429   1.788  15.461  1.00  0.00     0.213 C 
BRANCH  23  24
HETATM   24  N3  UNL     1      -6.280   1.937  16.598  1.00  0.00    -0.356 N 
HETATM   25  C15 UNL     1      -6.853   3.238  16.876  1.00  0.00     0.152 C 
BRANCH  24  26
HETATM   26  C16 UNL     1      -6.546   0.810  17.432  1.00  0.00     0.350 C 
HETATM   27  O5  UNL     1      -6.032  -0.287  17.156  1.00  0.00    -0.284 OA
ENDBRANCH  24  26
ENDBRANCH  23  24
ENDBRANCH  21  23
ENDBRANCH  18  21
ENDBRANCH   1  17
TORSDOF 12
ENDMDL
MODEL 3
REMARK VINA RESULT: -6.226467007      2.432      5.863
REMARK  12 active torsions:
REMARK  status: ('A' for Active; 'I' for Inactive)
REMARK    1  A    between atoms: C2_2  and  C4_4 
REMARK    2  A    between atoms: C4_4  and  C5_5 
REMARK    3  A    between atoms: C4_4  and  N1_8 
REMARK    4  A    between atoms: C5_5  and  O1_6 
REMARK       I    between atoms: N1_8  and  C6_10 
REMARK    5  A    between atoms: C6_10  and  C7_12 
REMARK    6  A    between atoms: C7_12  and  C8_13 
REMARK    7  A    between atoms: C7_12  and  N2_17 
REMARK    8  A    between atoms: C8_13  and  C9_14 
REMARK       I    between atoms: N2_17  and  C12_19 
REMARK    9  A    between atoms: C12_19  and  C13_21 
REMARK   10  A    between atoms: C13_21  and  C14_23 
REMARK   11  A    between atoms: C14_23  and  N3_24 
REMARK   12  A    between atoms: N3_24  and  C16_26 
ROOT
HETATM    1  C7  UNL     1      -4.207   4.986  13.611  1.00  0.00     0.100 C 
ENDROOT
BRANCH   1   2
HETATM    2  C6  UNL     1      -4.914   3.734  13.986  1.00  0.00     0.268 C 
HETATM    3  N1  UNL     1      -4.815   3.316  15.345  1.00  0.00    -0.349 N 
ATOM      4  H1  UNL     1      -4.271   3.885  15.994  1.00  0.00     0.163 HD
HETATM    5  O2  UNL     1      -5.581   3.028  13.210  1.00  0.00    -0.266 OA
BRANCH   3   6
HETATM    6  C4  UNL     1      -5.452   2.122  15.839  1.00  0.00     0.111 C 
BRANCH   6   7
HETATM    7  C2  UNL     1      -6.330   2.412  17.038  1.00  0.00     0.002 C 
HETATM    8  C1  UNL     1      -7.339   1.336  17.312  1.00  0.00     0.011 C 
HETATM    9  C3  UNL     1      -7.032   3.747  16.888  1.00  0.00     0.011 C 
ENDBRANCH   6   7
BRANCH   6  10
HETATM   10  C5  UNL     1      -4.446   1.053  16.109  1.00  0.00     0.189 C 
BRANCH  10  11
HETATM   11  O1  UNL     1      -3.166   1.517  16.278  1.00  0.00    -0.399 OA
ATOM     12  H1  UNL     1      -2.513   0.832  16.362  1.00  0.00     0.209 HD
ENDBRANCH  10  11
ENDBRANCH   6  10
ENDBRANCH   3   6
ENDBRANCH   1   2
BRANCH   1  13
HETATM   13  C8  UNL     1      -4.050   5.974  14.686  1.00  0.00     0.013 C 
BRANCH  13  14
HETATM   14  C9  UNL     1      -3.306   7.220  14.496  1.00  0.00     0.010 A 
HETATM   15  C10 UNL     1      -1.844   7.396  14.593  1.00  0.00     0.009 A 
HETATM   16  C11 UNL     1      -2.823   8.125  15.563  1.00  0.00     0.009 A 
ENDBRANCH  13  14
ENDBRANCH   1  13
BRANCH   1  17
HETATM   17  N2  UNL     1      -3.066   4.750  12.772  1.00  0.00    -0.316 N 
HETATM   18  C12 UNL     1      -1.874   4.118  13.231  1.00  0.00     0.293 C 
HETATM   19  O3  UNL     1      -1.773   3.728  14.445  1.00  0.00    -0.264 OA
ATOM     20  H2  UNL     1      -3.110   5.050  11.799  1.00  0.00     0.169 HD
BRANCH  18  21
HETATM   21  C13 UNL     1      -0.735   3.891  12.365  1.00  0.00     0.234 C 
HETATM   22  O4  UNL     1      -0.416   2.730  12.033  1.00  0.00    -0.285 OA
BRANCH  21  23
HETATM   23  C14 UNL     1       0.056   5.030  11.869  1.00  0.00     0.213 C 
BRANCH  23  24
HETATM   24  N3  UNL     1       0.573   4.838  10.552  1.00  0.00    -0.356 N 
HETATM   25  C15 UNL     1      -0.311   5.022   9.420  1.00  0.00     0.152 C 
BRANCH  24  26
HETATM   26  C16 UNL     1       1.942   4.469  10.380  1.00  0.00     0.350 C 
HETATM   27  O5  UNL     1       2.660   4.305  11.380  1.00  0.00    -0.284 OA
ENDBRANCH  24  26
ENDBRANCH  23  24
ENDBRANCH  21  23
ENDBRANCH  18  21
ENDBRANCH   1  17
TORSDOF 12
ENDMDL
MODEL 4
REMARK VINA RESULT: -6.221869071      2.311      5.949
REMARK  12 active torsions:
REMARK  status: ('A' for Active; 'I' for Inactive)
REMARK    1  A    between atoms: C2_2  and  C4_4 
REMARK    2  A    between atoms: C4_4  and  C5_5 
REMARK    3  A    between atoms: C4_4  and  N1_8 
REMARK    4  A    between atoms: C5_5  and  O1_6 
REMARK       I    between atoms: N1_8  and  C6_10 
REMARK    5  A    between atoms: C6_10  and  C7_12 
REMARK    6  A    between atoms: C7_12  and  C8_13 
REMARK    7  A    between atoms: C7_12  and  N2_17 
REMARK    8  A    between atoms: C8_13  and  C9_14 
REMARK       I    between atoms: N2_17  and  C12_19 
REMARK    9  A    between atoms: C12_19  and  C13_21 
REMARK   10  A    between atoms: C13_21  and  C14_23 
REMARK   11  A    between atoms: C14_23  and  N3_24 
REMARK   12  A    between atoms: N3_24  and  C16_26 
ROOT
HETATM    1  C7  UNL     1      -4.334   4.786  13.501  1.00  0.00     0.100 C 
ENDROOT
BRANCH   1   2
HETATM    2  C6  UNL     1      -4.958   3.492  13.878  1.00  0.00     0.268 C 
HETATM    3  N1  UNL     1      -4.928   3.137  15.258  1.00  0.00    -0.349 N 
ATOM      4  H1  UNL     1      -4.485   3.776  15.919  1.00  0.00     0.163 HD
HETATM    5  O2  UNL     1      -5.502   2.700  13.088  1.00  0.00    -0.266 OA
BRANCH   3   6
HETATM    6  C4  UNL     1      -5.497   1.911  15.758  1.00  0.00     0.111 C 
BRANCH   6   7
HETATM    7  C2  UNL     1      -6.290   2.140  17.028  1.00  0.00     0.002 C 
HETATM    8  C1  UNL     1      -7.281   1.051  17.316  1.00  0.00     0.011 C 
HETATM    9  C3  UNL     1      -6.996   3.481  16.994  1.00  0.00     0.011 C 
ENDBRANCH   6   7
BRANCH   6  10
HETATM   10  C5  UNL     1      -4.449   0.862  15.917  1.00  0.00     0.189 C 
BRANCH  10  11
HETATM   11  O1  UNL     1      -4.767  -0.342  15.339  1.00  0.00    -0.399 OA
ATOM     12  H1  UNL     1      -4.122  -0.657  14.717  1.00  0.00     0.209 HD
ENDBRANCH  10  11
ENDBRANCH   6  10
ENDBRANCH   3   6
ENDBRANCH   1   2
BRANCH   1  13
HETATM   13  C8  UNL     1      -4.026   5.693  14.614  1.00  0.00     0.013 C 
BRANCH  13  14
HETATM   14  C9  UNL     1      -3.405   7.002  14.403  1.00  0.00     0.010 A 
HETATM   15  C10 UNL     1      -1.958   7.294  14.365  1.00  0.00     0.009 A 
HETATM   16  C11 UNL     1      -2.890   7.907  15.454  1.00  0.00     0.009 A 
ENDBRANCH  13  14
ENDBRANCH   1  13
BRANCH   1  17
HETATM   17  N2  UNL     1      -3.332   4.643  12.481  1.00  0.00    -0.316 N 
HETATM   18  C12 UNL     1      -3.602   4.799  11.091  1.00  0.00     0.293 C 
HETATM   19  O3  UNL     1      -4.783   5.079  10.687  1.00  0.00    -0.264 OA
ATOM     20  H2  UNL     1      -2.379   4.419  12.767  1.00  0.00     0.169 HD
BRANCH  18  21
HETATM   21  C13 UNL     1      -2.575   4.651  10.080  1.00  0.00     0.234 C 
HETATM   22  O4  UNL     1      -2.737   3.860   9.127  1.00  0.00    -0.285 OA
BRANCH  21  23
HETATM   23  C14 UNL     1      -1.331   5.433  10.171  1.00  0.00     0.213 C 
BRANCH  23  24
HETATM   24  N3  UNL     1      -0.173   4.640  10.437  1.00  0.00    -0.356 N 
HETATM   25  C15 UNL     1       0.787   4.427   9.375  1.00  0.00     0.152 C 
BRANCH  24  26
HETATM   26  C16 UNL     1       0.011   4.077  11.736  1.00  0.00     0.350 C 
HETATM   27  O5  UNL     1      -0.574   3.022  12.033  1.00  0.00    -0.284 OA
ENDBRANCH  24  26
ENDBRANCH  23  24
ENDBRANCH  21  23
ENDBRANCH  18  21
ENDBRANCH   1  17
TORSDOF 12
ENDMDL
MODEL 5
REMARK VINA RESULT: -6.219640204      2.339      5.586
REMARK  12 active torsions:
REMARK  status: ('A' for Active; 'I' for Inactive)
REMARK    1  A    between atoms: C2_2  and  C4_4 
REMARK    2  A    between atoms: C4_4  and  C5_5 
REMARK    3  A    between atoms: C4_4  and  N1_8 
REMARK    4  A    between atoms: C5_5  and  O1_6 
REMARK       I    between atoms: N1_8  and  C6_10 
REMARK    5  A    between atoms: C6_10  and  C7_12 
REMARK    6  A    between atoms: C7_12  and  C8_13 
REMARK    7  A    between atoms: C7_12  and  N2_17 
REMARK    8  A    between atoms: C8_13  and  C9_14 
REMARK       I    between atoms: N2_17  and  C12_19 
REMARK    9  A    between atoms: C12_19  and  C13_21 
REMARK   10  A    between atoms: C13_21  and  C14_23 
REMARK   11  A    between atoms: C14_23  and  N3_24 
REMARK   12  A    between atoms: N3_24  and  C16_26 
ROOT
HETATM    1  C7  UNL     1      -4.235   5.003  13.524  1.00  0.00     0.100 C 
ENDROOT
BRANCH   1   2
HETATM    2  C6  UNL     1      -4.893   3.713  13.858  1.00  0.00     0.268 C 
HETATM    3  N1  UNL     1      -4.801   3.270  15.210  1.00  0.00    -0.349 N 
ATOM      4  H1  UNL     1      -4.295   3.848  15.881  1.00  0.00     0.163 HD
HETATM    5  O2  UNL     1      -5.513   2.995  13.054  1.00  0.00    -0.266 OA
BRANCH   3   6
HETATM    6  C4  UNL     1      -5.394   2.039  15.666  1.00  0.00     0.111 C 
BRANCH   6   7
HETATM    7  C2  UNL     1      -6.183   2.238  16.944  1.00  0.00     0.002 C 
HETATM    8  C1  UNL     1      -7.071   1.078  17.281  1.00  0.00     0.011 C 
HETATM    9  C3  UNL     1      -7.001   3.512  16.884  1.00  0.00     0.011 C 
ENDBRANCH   6   7
BRANCH   6  10
HETATM   10  C5  UNL     1      -4.366   0.964  15.787  1.00  0.00     0.189 C 
BRANCH  10  11
HETATM   11  O1  UNL     1      -3.221   1.353  16.438  1.00  0.00    -0.399 OA
ATOM     12  H1  UNL     1      -2.592   0.653  16.567  1.00  0.00     0.209 HD
ENDBRANCH  10  11
ENDBRANCH   6  10
ENDBRANCH   3   6
ENDBRANCH   1   2
BRANCH   1  13
HETATM   13  C8  UNL     1      -4.013   5.915  14.653  1.00  0.00     0.013 C 
BRANCH  13  14
HETATM   14  C9  UNL     1      -3.342   7.206  14.491  1.00  0.00     0.010 A 
HETATM   15  C10 UNL     1      -1.886   7.447  14.500  1.00  0.00     0.009 A 
HETATM   16  C11 UNL     1      -2.826   8.068  15.577  1.00  0.00     0.009 A 
ENDBRANCH  13  14
ENDBRANCH   1  13
BRANCH   1  17
HETATM   17  N2  UNL     1      -3.156   4.850  12.589  1.00  0.00    -0.316 N 
HETATM   18  C12 UNL     1      -1.932   4.192  12.905  1.00  0.00     0.293 C 
HETATM   19  O3  UNL     1      -1.744   3.699  14.071  1.00  0.00    -0.264 OA
ATOM     20  H2  UNL     1      -3.271   5.233  11.651  1.00  0.00     0.169 HD
BRANCH  18  21
HETATM   21  C13 UNL     1      -0.857   4.050  11.944  1.00  0.00     0.234 C 
HETATM   22  O4  UNL     1      -0.219   2.980  11.865  1.00  0.00    -0.285 OA
BRANCH  21  23
HETATM   23  C14 UNL     1      -0.511   5.170  11.052  1.00  0.00     0.213 C 
BRANCH  23  24
HETATM   24  N3  UNL     1      -0.795   4.914   9.676  1.00  0.00    -0.356 N 
HETATM   25  C15 UNL     1       0.310   4.717   8.760  1.00  0.00     0.152 C 
BRANCH  24  26
HETATM   26  C16 UNL     1      -2.151   4.860   9.235  1.00  0.00     0.350 C 
HETATM   27  O5  UNL     1      -2.821   3.835   9.447  1.00  0.00    -0.284 OA
ENDBRANCH  24  26
ENDBRANCH  23  24
ENDBRANCH  21  23
ENDBRANCH  18  21
ENDBRANCH   1  17
TORSDOF 12
ENDMDL
