MODEL 1
REMARK VINA RESULT: -6.783341898      0.000      0.000
REMARK  14 active torsions:
REMARK  status: ('A' for Active; 'I' for Inactive)
REMARK    1  A    between atoms: C4_4  and  C5_5 
REMARK    2  A    between atoms: C5_5  and  N1_6 
REMARK    3  A    between atoms: C5_5  and  C7_10 
REMARK    4  A    between atoms: N1_6  and  C6_8 
REMARK       I    between atoms: C7_10  and  N2_12 
REMARK    5  A    between atoms: N2_12  and  C8_14 
REMARK    6  A    between atoms: C8_14  and  C9_15 
REMARK    7  A    between atoms: C8_14  and  C10_17 
REMARK       I    between atoms: C10_17  and  N3_19 
REMARK    8  A    between atoms: C14_23  and  C15_24 
REMARK       I    between atoms: C15_24  and  N4_26 
REMARK    9  A    between atoms: N4_26  and  C16_28 
REMARK   10  A    between atoms: C16_28  and  C17_29 
REMARK   11  A    between atoms: C16_28  and  C21_33 
REMARK   12  A    between atoms: C17_29  and  C18_30 
REMARK   13  A    between atoms: C18_30  and  C19_31 
REMARK       I    between atoms: C21_33  and  N5_35 
REMARK   14  A    between atoms: N5_35  and  C22_37 
ROOT
HETATM    1  C1  UNL     1      -9.073   7.956   8.725  1.00  0.00     0.017 C 
HETATM    2  C2  UNL     1      -7.954   8.328   8.416  1.00  0.00    -0.090 C 
HETATM    3  C3  UNL     1      -6.616   8.786   8.083  1.00  0.00     0.062 C 
HETATM    4  C4  UNL     1      -5.622   8.396   8.834  1.00  0.00     0.016 C 
ENDROOT
BRANCH   4   5
HETATM    5  C5  UNL     1      -4.195   8.756   8.646  1.00  0.00     0.200 C 
BRANCH   5   6
HETATM    6  N1  UNL     1      -3.884  10.040   9.149  1.00  0.00    -0.352 N 
ATOM      7  H1  UNL     1      -3.556  10.759   8.503  1.00  0.00     0.163 HD
BRANCH   6   8
HETATM    8  C6  UNL     1      -4.015  10.363  10.544  1.00  0.00     0.349 C 
HETATM    9  O1  UNL     1      -4.614  11.404  10.905  1.00  0.00    -0.284 OA
ENDBRANCH   6   8
ENDBRANCH   5   6
BRANCH   5  10
HETATM   10  C7  UNL     1      -3.321   7.640   9.100  1.00  0.00     0.245 C 
HETATM   11  O2  UNL     1      -2.156   7.544   8.748  1.00  0.00    -0.271 OA
HETATM   12  N2  UNL     1      -3.848   6.646   9.973  1.00  0.00    -0.340 N 
ATOM     13  H2  UNL     1      -4.817   6.739  10.279  1.00  0.00     0.163 HD
BRANCH  12  14
HETATM   14  C8  UNL     1      -3.090   5.516  10.450  1.00  0.00     0.238 C 
BRANCH  14  15
HETATM   15  C9  UNL     1      -3.402   4.319   9.642  1.00  0.00     0.266 C 
HETATM   16  O3  UNL     1      -2.656   4.011   8.677  1.00  0.00    -0.304 OA
ENDBRANCH  14  15
BRANCH  14  17
HETATM   17  C10 UNL     1      -3.511   5.237  11.876  1.00  0.00     0.250 C 
HETATM   18  O4  UNL     1      -4.339   4.310  12.038  1.00  0.00    -0.271 OA
HETATM   19  N3  UNL     1      -3.037   5.946  13.003  1.00  0.00    -0.337 N 
HETATM   20  C11 UNL     1      -2.091   7.023  12.928  1.00  0.00     0.127 C 
HETATM   21  C14 UNL     1      -3.413   5.743  14.357  1.00  0.00     0.179 C 
HETATM   22  C12 UNL     1      -2.486   7.922  14.083  1.00  0.00     0.022 C 
HETATM   23  C13 UNL     1      -2.699   6.847  15.156  1.00  0.00     0.037 C 
BRANCH  21  24
HETATM   24  C15 UNL     1      -3.172   4.429  14.944  1.00  0.00     0.241 C 
HETATM   25  O5  UNL     1      -2.056   4.075  15.352  1.00  0.00    -0.271 OA
HETATM   26  N4  UNL     1      -4.228   3.491  15.070  1.00  0.00    -0.346 N 
ATOM     27  H4  UNL     1      -5.162   3.766  14.765  1.00  0.00     0.163 HD
BRANCH  26  28
HETATM   28  C16 UNL     1      -4.039   2.137  15.621  1.00  0.00     0.176 C 
BRANCH  28  29
HETATM   29  C17 UNL     1      -5.096   2.016  16.739  1.00  0.00     0.035 C 
BRANCH  29  30
HETATM   30  C18 UNL     1      -6.298   2.856  16.493  1.00  0.00     0.002 C 
BRANCH  30  31
HETATM   31  C19 UNL     1      -7.584   2.195  16.964  1.00  0.00    -0.004 C 
HETATM   32  C20 UNL     1      -7.229   0.786  17.374  1.00  0.00     0.005 C 
ENDBRANCH  30  31
ENDBRANCH  29  30
ENDBRANCH  28  29
BRANCH  28  33
HETATM   33  C21 UNL     1      -4.389   1.188  14.562  1.00  0.00     0.240 C 
HETATM   34  O6  UNL     1      -4.928   0.071  14.884  1.00  0.00    -0.271 OA
HETATM   35  N5  UNL     1      -4.187   1.377  13.162  1.00  0.00    -0.355 N 
ATOM     36  H5  UNL     1      -3.778   2.250  12.827  1.00  0.00     0.162 HD
BRANCH  35  37
HETATM   37  C22 UNL     1      -4.553   0.346  12.207  1.00  0.00     0.076 C 
HETATM   38  C23 UNL     1      -4.854   0.966  10.889  1.00  0.00     0.032 C 
HETATM   39  C24 UNL     1      -3.409  -0.645  12.152  1.00  0.00     0.032 C 
ENDBRANCH  35  37
ENDBRANCH  28  33
ENDBRANCH  26  28
ENDBRANCH  21  24
ENDBRANCH  14  17
ENDBRANCH  12  14
ENDBRANCH   5  10
ENDBRANCH   4   5
TORSDOF 14
ENDMDL
MODEL 2
REMARK VINA RESULT: -6.668909853      2.105      8.799
REMARK  14 active torsions:
REMARK  status: ('A' for Active; 'I' for Inactive)
REMARK    1  A    between atoms: C4_4  and  C5_5 
REMARK    2  A    between atoms: C5_5  and  N1_6 
REMARK    3  A    between atoms: C5_5  and  C7_10 
REMARK    4  A    between atoms: N1_6  and  C6_8 
REMARK       I    between atoms: C7_10  and  N2_12 
REMARK    5  A    between atoms: N2_12  and  C8_14 
REMARK    6  A    between atoms: C8_14  and  C9_15 
REMARK    7  A    between atoms: C8_14  and  C10_17 
REMARK       I    between atoms: C10_17  and  N3_19 
REMARK    8  A    between atoms: C14_23  and  C15_24 
REMARK       I    between atoms: C15_24  and  N4_26 
REMARK    9  A    between atoms: N4_26  and  C16_28 
REMARK   10  A    between atoms: C16_28  and  C17_29 
REMARK   11  A    between atoms: C16_28  and  C21_33 
REMARK   12  A    between atoms: C17_29  and  C18_30 
REMARK   13  A    between atoms: C18_30  and  C19_31 
REMARK       I    between atoms: C21_33  and  N5_35 
REMARK   14  A    between atoms: N5_35  and  C22_37 
ROOT
HETATM    1  C1  UNL     1      -6.450   2.335  17.173  1.00  0.00     0.017 C 
HETATM    2  C2  UNL     1      -5.583   1.947  16.410  1.00  0.00    -0.090 C 
HETATM    3  C3  UNL     1      -4.577   1.471  15.476  1.00  0.00     0.062 C 
HETATM    4  C4  UNL     1      -4.614   1.911  14.247  1.00  0.00     0.016 C 
ENDROOT
BRANCH   4   5
HETATM    5  C5  UNL     1      -3.671   1.543  13.161  1.00  0.00     0.200 C 
BRANCH   5   6
HETATM    6  N1  UNL     1      -4.193   0.554  12.297  1.00  0.00    -0.352 N 
ATOM      7  H1  UNL     1      -4.028  -0.430  12.513  1.00  0.00     0.163 HD
BRANCH   6   8
HETATM    8  C6  UNL     1      -4.950   0.892  11.122  1.00  0.00     0.349 C 
HETATM    9  O1  UNL     1      -4.575   0.510   9.988  1.00  0.00    -0.284 OA
ENDBRANCH   6   8
ENDBRANCH   5   6
BRANCH   5  10
HETATM   10  C7  UNL     1      -3.133   2.770  12.512  1.00  0.00     0.245 C 
HETATM   11  O2  UNL     1      -2.101   2.759  11.861  1.00  0.00    -0.271 OA
HETATM   12  N2  UNL     1      -3.836   4.001  12.647  1.00  0.00    -0.340 N 
ATOM     13  H2  UNL     1      -4.707   4.003  13.177  1.00  0.00     0.163 HD
BRANCH  12  14
HETATM   14  C8  UNL     1      -3.386   5.246  12.075  1.00  0.00     0.238 C 
BRANCH  14  15
HETATM   15  C9  UNL     1      -3.750   6.371  12.960  1.00  0.00     0.266 C 
HETATM   16  O3  UNL     1      -4.164   6.135  14.125  1.00  0.00    -0.304 OA
ENDBRANCH  14  15
BRANCH  14  17
HETATM   17  C10 UNL     1      -4.101   5.442  10.757  1.00  0.00     0.250 C 
HETATM   18  O4  UNL     1      -5.345   5.583  10.816  1.00  0.00    -0.271 OA
HETATM   19  N3  UNL     1      -3.460   5.472   9.496  1.00  0.00    -0.337 N 
HETATM   20  C11 UNL     1      -2.045   5.318   9.318  1.00  0.00     0.127 C 
HETATM   21  C14 UNL     1      -4.081   5.629   8.229  1.00  0.00     0.179 C 
HETATM   22  C12 UNL     1      -1.930   4.635   7.970  1.00  0.00     0.022 C 
HETATM   23  C13 UNL     1      -2.955   5.472   7.194  1.00  0.00     0.037 C 
BRANCH  21  24
HETATM   24  C15 UNL     1      -4.850   6.846   7.991  1.00  0.00     0.241 C 
HETATM   25  O5  UNL     1      -4.375   7.830   7.403  1.00  0.00    -0.271 OA
HETATM   26  N4  UNL     1      -6.192   6.949   8.434  1.00  0.00    -0.346 N 
ATOM     27  H4  UNL     1      -6.615   6.145   8.898  1.00  0.00     0.163 HD
BRANCH  26  28
HETATM   28  C16 UNL     1      -7.007   8.164   8.254  1.00  0.00     0.176 C 
BRANCH  28  29
HETATM   29  C17 UNL     1      -8.466   7.688   8.417  1.00  0.00     0.035 C 
BRANCH  29  30
HETATM   30  C18 UNL     1      -9.450   8.801   8.346  1.00  0.00     0.002 C 
BRANCH  30  31
HETATM   31  C19 UNL     1      -9.212   9.721   7.159  1.00  0.00    -0.004 C 
HETATM   32  C20 UNL     1      -9.522  11.124   7.622  1.00  0.00     0.005 C 
ENDBRANCH  30  31
ENDBRANCH  29  30
ENDBRANCH  28  29
BRANCH  28  33
HETATM   33  C21 UNL     1      -6.696   9.061   9.369  1.00  0.00     0.240 C 
HETATM   34  O6  UNL     1      -6.785   8.616  10.566  1.00  0.00    -0.271 OA
HETATM   35  N5  UNL     1      -6.292  10.426   9.263  1.00  0.00    -0.355 N 
ATOM     36  H5  UNL     1      -6.183  10.847   8.340  1.00  0.00     0.162 HD
BRANCH  35  37
HETATM   37  C22 UNL     1      -6.036  11.225  10.449  1.00  0.00     0.076 C 
HETATM   38  C23 UNL     1      -4.574  11.449  10.597  1.00  0.00     0.032 C 
HETATM   39  C24 UNL     1      -6.825  12.510  10.306  1.00  0.00     0.032 C 
ENDBRANCH  35  37
ENDBRANCH  28  33
ENDBRANCH  26  28
ENDBRANCH  21  24
ENDBRANCH  14  17
ENDBRANCH  12  14
ENDBRANCH   5  10
ENDBRANCH   4   5
TORSDOF 14
ENDMDL
MODEL 3
REMARK VINA RESULT: -6.657074111      2.100      2.811
REMARK  14 active torsions:
REMARK  status: ('A' for Active; 'I' for Inactive)
REMARK    1  A    between atoms: C4_4  and  C5_5 
REMARK    2  A    between atoms: C5_5  and  N1_6 
REMARK    3  A    between atoms: C5_5  and  C7_10 
REMARK    4  A    between atoms: N1_6  and  C6_8 
REMARK       I    between atoms: C7_10  and  N2_12 
REMARK    5  A    between atoms: N2_12  and  C8_14 
REMARK    6  A    between atoms: C8_14  and  C9_15 
REMARK    7  A    between atoms: C8_14  and  C10_17 
REMARK       I    between atoms: C10_17  and  N3_19 
REMARK    8  A    between atoms: C14_23  and  C15_24 
REMARK       I    between atoms: C15_24  and  N4_26 
REMARK    9  A    between atoms: N4_26  and  C16_28 
REMARK   10  A    between atoms: C16_28  and  C17_29 
REMARK   11  A    between atoms: C16_28  and  C21_33 
REMARK   12  A    between atoms: C17_29  and  C18_30 
REMARK   13  A    between atoms: C18_30  and  C19_31 
REMARK       I    between atoms: C21_33  and  N5_35 
REMARK   14  A    between atoms: N5_35  and  C22_37 
ROOT
HETATM    1  C1  UNL     1      -5.834  14.902  11.348  1.00  0.00     0.017 C 
HETATM    2  C2  UNL     1      -6.302  13.844  10.965  1.00  0.00    -0.090 C 
HETATM    3  C3  UNL     1      -6.829  12.579  10.484  1.00  0.00     0.062 C 
HETATM    4  C4  UNL     1      -6.081  11.514  10.591  1.00  0.00     0.016 C 
ENDROOT
BRANCH   4   5
HETATM    5  C5  UNL     1      -6.451  10.142  10.163  1.00  0.00     0.200 C 
BRANCH   5   6
HETATM    6  N1  UNL     1      -7.180  10.126   8.951  1.00  0.00    -0.352 N 
ATOM      7  H1  UNL     1      -7.087  10.912   8.307  1.00  0.00     0.163 HD
BRANCH   6   8
HETATM    8  C6  UNL     1      -8.047   9.035   8.599  1.00  0.00     0.349 C 
HETATM    9  O1  UNL     1      -8.294   8.123   9.423  1.00  0.00    -0.284 OA
ENDBRANCH   6   8
ENDBRANCH   5   6
BRANCH   5  10
HETATM   10  C7  UNL     1      -5.265   9.246  10.232  1.00  0.00     0.245 C 
HETATM   11  O2  UNL     1      -4.148   9.624   9.914  1.00  0.00    -0.271 OA
HETATM   12  N2  UNL     1      -5.423   7.905  10.684  1.00  0.00    -0.340 N 
ATOM     13  H2  UNL     1      -6.354   7.599  10.966  1.00  0.00     0.163 HD
BRANCH  12  14
HETATM   14  C8  UNL     1      -4.341   6.956  10.765  1.00  0.00     0.238 C 
BRANCH  14  15
HETATM   15  C9  UNL     1      -4.608   5.805   9.878  1.00  0.00     0.266 C 
HETATM   16  O3  UNL     1      -5.260   5.980   8.816  1.00  0.00    -0.304 OA
ENDBRANCH  14  15
BRANCH  14  17
HETATM   17  C10 UNL     1      -4.275   6.440  12.186  1.00  0.00     0.250 C 
HETATM   18  O4  UNL     1      -5.163   5.621  12.520  1.00  0.00    -0.271 OA
HETATM   19  N3  UNL     1      -3.296   6.824  13.131  1.00  0.00    -0.337 N 
HETATM   20  C11 UNL     1      -2.239   7.754  12.852  1.00  0.00     0.127 C 
HETATM   21  C14 UNL     1      -3.199   6.392  14.480  1.00  0.00     0.179 C 
HETATM   22  C12 UNL     1      -2.004   8.433  14.186  1.00  0.00     0.022 C 
HETATM   23  C13 UNL     1      -2.037   7.194  15.090  1.00  0.00     0.037 C 
BRANCH  21  24
HETATM   24  C15 UNL     1      -3.041   4.963  14.730  1.00  0.00     0.241 C 
HETATM   25  O5  UNL     1      -1.935   4.400  14.707  1.00  0.00    -0.271 OA
HETATM   26  N4  UNL     1      -4.168   4.152  15.014  1.00  0.00    -0.346 N 
ATOM     27  H4  UNL     1      -5.086   4.594  15.064  1.00  0.00     0.163 HD
BRANCH  26  28
HETATM   28  C16 UNL     1      -4.076   2.698  15.240  1.00  0.00     0.176 C 
BRANCH  28  29
HETATM   29  C17 UNL     1      -5.035   2.421  16.417  1.00  0.00     0.035 C 
BRANCH  29  30
HETATM   30  C18 UNL     1      -5.115   0.979  16.771  1.00  0.00     0.002 C 
BRANCH  30  31
HETATM   31  C19 UNL     1      -6.444   0.603  17.409  1.00  0.00    -0.004 C 
HETATM   32  C20 UNL     1      -7.430   1.684  17.037  1.00  0.00     0.005 C 
ENDBRANCH  30  31
ENDBRANCH  29  30
ENDBRANCH  28  29
BRANCH  28  33
HETATM   33  C21 UNL     1      -4.618   2.040  14.049  1.00  0.00     0.240 C 
HETATM   34  O6  UNL     1      -5.760   2.409  13.603  1.00  0.00    -0.271 OA
HETATM   35  N5  UNL     1      -3.990   0.996  13.306  1.00  0.00    -0.355 N 
ATOM     36  H5  UNL     1      -3.069   0.660  13.590  1.00  0.00     0.162 HD
BRANCH  35  37
HETATM   37  C22 UNL     1      -4.642   0.403  12.151  1.00  0.00     0.076 C 
HETATM   38  C23 UNL     1      -4.607   1.355  11.010  1.00  0.00     0.032 C 
HETATM   39  C24 UNL     1      -3.938  -0.906  11.858  1.00  0.00     0.032 C 
ENDBRANCH  35  37
ENDBRANCH  28  33
ENDBRANCH  26  28
ENDBRANCH  21  24
ENDBRANCH  14  17
ENDBRANCH  12  14
ENDBRANCH   5  10
ENDBRANCH   4   5
TORSDOF 14
ENDMDL
MODEL 4
REMARK VINA RESULT: -6.445495766      3.635      8.229
REMARK  14 active torsions:
REMARK  status: ('A' for Active; 'I' for Inactive)
REMARK    1  A    between atoms: C4_4  and  C5_5 
REMARK    2  A    between atoms: C5_5  and  N1_6 
REMARK    3  A    between atoms: C5_5  and  C7_10 
REMARK    4  A    between atoms: N1_6  and  C6_8 
REMARK       I    between atoms: C7_10  and  N2_12 
REMARK    5  A    between atoms: N2_12  and  C8_14 
REMARK    6  A    between atoms: C8_14  and  C9_15 
REMARK    7  A    between atoms: C8_14  and  C10_17 
REMARK       I    between atoms: C10_17  and  N3_19 
REMARK    8  A    between atoms: C14_23  and  C15_24 
REMARK       I    between atoms: C15_24  and  N4_26 
REMARK    9  A    between atoms: N4_26  and  C16_28 
REMARK   10  A    between atoms: C16_28  and  C17_29 
REMARK   11  A    between atoms: C16_28  and  C21_33 
REMARK   12  A    between atoms: C17_29  and  C18_30 
REMARK   13  A    between atoms: C18_30  and  C19_31 
REMARK       I    between atoms: C21_33  and  N5_35 
REMARK   14  A    between atoms: N5_35  and  C22_37 
ROOT
HETATM    1  C1  UNL     1      -6.398   1.985  18.233  1.00  0.00     0.017 C 
HETATM    2  C2  UNL     1      -5.565   1.940  17.345  1.00  0.00    -0.090 C 
HETATM    3  C3  UNL     1      -4.592   1.856  16.270  1.00  0.00     0.062 C 
HETATM    4  C4  UNL     1      -5.013   1.983  15.041  1.00  0.00     0.016 C 
ENDROOT
BRANCH   4   5
HETATM    5  C5  UNL     1      -4.170   1.931  13.821  1.00  0.00     0.200 C 
BRANCH   5   6
HETATM    6  N1  UNL     1      -4.436   0.796  13.020  1.00  0.00    -0.352 N 
ATOM      7  H1  UNL     1      -4.582  -0.106  13.473  1.00  0.00     0.163 HD
BRANCH   6   8
HETATM    8  C6  UNL     1      -4.507   0.876  11.587  1.00  0.00     0.349 C 
HETATM    9  O1  UNL     1      -5.572   1.214  11.017  1.00  0.00    -0.284 OA
ENDBRANCH   6   8
ENDBRANCH   5   6
BRANCH   5  10
HETATM   10  C7  UNL     1      -4.190   3.248  13.128  1.00  0.00     0.245 C 
HETATM   11  O2  UNL     1      -5.166   3.982  13.159  1.00  0.00    -0.271 OA
HETATM   12  N2  UNL     1      -3.043   3.678  12.402  1.00  0.00    -0.340 N 
ATOM     13  H2  UNL     1      -2.224   3.070  12.393  1.00  0.00     0.163 HD
BRANCH  12  14
HETATM   14  C8  UNL     1      -2.973   4.924  11.681  1.00  0.00     0.238 C 
BRANCH  14  15
HETATM   15  C9  UNL     1      -2.728   4.666  10.247  1.00  0.00     0.266 C 
HETATM   16  O3  UNL     1      -3.138   3.594   9.731  1.00  0.00    -0.304 OA
ENDBRANCH  14  15
BRANCH  14  17
HETATM   17  C10 UNL     1      -1.798   5.712  12.217  1.00  0.00     0.250 C 
HETATM   18  O4  UNL     1      -0.670   5.399  11.770  1.00  0.00    -0.271 OA
HETATM   19  N3  UNL     1      -1.901   6.750  13.172  1.00  0.00    -0.337 N 
HETATM   20  C11 UNL     1      -3.142   7.184  13.748  1.00  0.00     0.127 C 
HETATM   21  C14 UNL     1      -0.835   7.505  13.727  1.00  0.00     0.179 C 
HETATM   22  C12 UNL     1      -2.748   7.628  15.143  1.00  0.00     0.022 C 
HETATM   23  C13 UNL     1      -1.478   8.412  14.790  1.00  0.00     0.037 C 
BRANCH  21  24
HETATM   24  C15 UNL     1       0.004   8.276  12.815  1.00  0.00     0.241 C 
HETATM   25  O5  UNL     1      -0.376   9.336  12.294  1.00  0.00    -0.271 OA
HETATM   26  N4  UNL     1       1.309   7.830  12.485  1.00  0.00    -0.346 N 
ATOM     27  H4  UNL     1       1.655   6.975  12.919  1.00  0.00     0.163 HD
BRANCH  26  28
HETATM   28  C16 UNL     1       2.189   8.546  11.543  1.00  0.00     0.176 C 
BRANCH  28  29
HETATM   29  C17 UNL     1       3.544   8.653  12.274  1.00  0.00     0.035 C 
BRANCH  29  30
HETATM   30  C18 UNL     1       3.693   7.654  13.365  1.00  0.00     0.002 C 
BRANCH  30  31
HETATM   31  C19 UNL     1       4.804   6.651  13.096  1.00  0.00    -0.004 C 
HETATM   32  C20 UNL     1       4.153   5.294  12.979  1.00  0.00     0.005 C 
ENDBRANCH  30  31
ENDBRANCH  29  30
ENDBRANCH  28  29
BRANCH  28  33
HETATM   33  C21 UNL     1       2.369   7.680  10.376  1.00  0.00     0.240 C 
HETATM   34  O6  UNL     1       3.052   8.111   9.383  1.00  0.00    -0.271 OA
HETATM   35  N5  UNL     1       1.847   6.360  10.221  1.00  0.00    -0.355 N 
ATOM     36  H5  UNL     1       1.307   5.941  10.977  1.00  0.00     0.162 HD
BRANCH  35  37
HETATM   37  C22 UNL     1       2.073   5.606   9.000  1.00  0.00     0.076 C 
HETATM   38  C23 UNL     1       2.988   4.467   9.275  1.00  0.00     0.032 C 
HETATM   39  C24 UNL     1       0.718   5.170   8.481  1.00  0.00     0.032 C 
ENDBRANCH  35  37
ENDBRANCH  28  33
ENDBRANCH  26  28
ENDBRANCH  21  24
ENDBRANCH  14  17
ENDBRANCH  12  14
ENDBRANCH   5  10
ENDBRANCH   4   5
TORSDOF 14
ENDMDL
MODEL 5
REMARK VINA RESULT: -6.436476434      2.470      7.855
REMARK  14 active torsions:
REMARK  status: ('A' for Active; 'I' for Inactive)
REMARK    1  A    between atoms: C4_4  and  C5_5 
REMARK    2  A    between atoms: C5_5  and  N1_6 
REMARK    3  A    between atoms: C5_5  and  C7_10 
REMARK    4  A    between atoms: N1_6  and  C6_8 
REMARK       I    between atoms: C7_10  and  N2_12 
REMARK    5  A    between atoms: N2_12  and  C8_14 
REMARK    6  A    between atoms: C8_14  and  C9_15 
REMARK    7  A    between atoms: C8_14  and  C10_17 
REMARK       I    between atoms: C10_17  and  N3_19 
REMARK    8  A    between atoms: C14_23  and  C15_24 
REMARK       I    between atoms: C15_24  and  N4_26 
REMARK    9  A    between atoms: N4_26  and  C16_28 
REMARK   10  A    between atoms: C16_28  and  C17_29 
REMARK   11  A    between atoms: C16_28  and  C21_33 
REMARK   12  A    between atoms: C17_29  and  C18_30 
REMARK   13  A    between atoms: C18_30  and  C19_31 
REMARK       I    between atoms: C21_33  and  N5_35 
REMARK   14  A    between atoms: N5_35  and  C22_37 
ROOT
HETATM    1  C1  UNL     1      -6.377   2.107  18.129  1.00  0.00     0.017 C 
HETATM    2  C2  UNL     1      -5.704   1.696  17.200  1.00  0.00    -0.090 C 
HETATM    3  C3  UNL     1      -4.935   1.206  16.069  1.00  0.00     0.062 C 
HETATM    4  C4  UNL     1      -4.941   1.903  14.966  1.00  0.00     0.016 C 
ENDROOT
BRANCH   4   5
HETATM    5  C5  UNL     1      -4.214   1.564  13.717  1.00  0.00     0.200 C 
BRANCH   5   6
HETATM    6  N1  UNL     1      -4.221   0.178  13.439  1.00  0.00    -0.352 N 
ATOM      7  H1  UNL     1      -4.291  -0.482  14.215  1.00  0.00     0.163 HD
BRANCH   6   8
HETATM    8  C6  UNL     1      -4.133  -0.331  12.098  1.00  0.00     0.349 C 
HETATM    9  O1  UNL     1      -3.882  -1.541  11.888  1.00  0.00    -0.284 OA
ENDBRANCH   6   8
ENDBRANCH   5   6
BRANCH   5  10
HETATM   10  C7  UNL     1      -4.650   2.461  12.611  1.00  0.00     0.245 C 
HETATM   11  O2  UNL     1      -5.745   2.352  12.083  1.00  0.00    -0.271 OA
HETATM   12  N2  UNL     1      -3.772   3.482  12.147  1.00  0.00    -0.340 N 
ATOM     13  H2  UNL     1      -2.866   3.580  12.604  1.00  0.00     0.163 HD
BRANCH  12  14
HETATM   14  C8  UNL     1      -4.093   4.384  11.070  1.00  0.00     0.238 C 
BRANCH  14  15
HETATM   15  C9  UNL     1      -3.165   4.175   9.940  1.00  0.00     0.266 C 
HETATM   16  O3  UNL     1      -3.594   4.264   8.761  1.00  0.00    -0.304 OA
ENDBRANCH  14  15
BRANCH  14  17
HETATM   17  C10 UNL     1      -3.903   5.799  11.570  1.00  0.00     0.250 C 
HETATM   18  O4  UNL     1      -2.956   5.981  12.371  1.00  0.00    -0.271 OA
HETATM   19  N3  UNL     1      -4.715   6.895  11.197  1.00  0.00    -0.337 N 
HETATM   20  C11 UNL     1      -5.824   6.794  10.292  1.00  0.00     0.127 C 
HETATM   21  C14 UNL     1      -4.599   8.235  11.652  1.00  0.00     0.179 C 
HETATM   22  C12 UNL     1      -6.789   7.849  10.794  1.00  0.00     0.022 C 
HETATM   23  C13 UNL     1      -5.789   8.987  11.033  1.00  0.00     0.037 C 
BRANCH  21  24
HETATM   24  C15 UNL     1      -3.344   8.935  11.398  1.00  0.00     0.241 C 
HETATM   25  O5  UNL     1      -3.108   9.514  10.327  1.00  0.00    -0.271 OA
HETATM   26  N4  UNL     1      -2.330   8.979  12.388  1.00  0.00    -0.346 N 
ATOM     27  H4  UNL     1      -2.509   8.532  13.287  1.00  0.00     0.163 HD
BRANCH  26  28
HETATM   28  C16 UNL     1      -1.029   9.640  12.177  1.00  0.00     0.176 C 
BRANCH  28  29
HETATM   29  C17 UNL     1      -0.771  10.424  13.481  1.00  0.00     0.035 C 
BRANCH  29  30
HETATM   30  C18 UNL     1      -1.846  10.239  14.491  1.00  0.00     0.002 C 
BRANCH  30  31
HETATM   31  C19 UNL     1      -1.392   9.422  15.690  1.00  0.00    -0.004 C 
HETATM   32  C20 UNL     1      -2.390   8.302  15.863  1.00  0.00     0.005 C 
ENDBRANCH  30  31
ENDBRANCH  29  30
ENDBRANCH  28  29
BRANCH  28  33
HETATM   33  C21 UNL     1      -0.020   8.583  12.076  1.00  0.00     0.240 C 
HETATM   34  O6  UNL     1       1.143   8.788  12.571  1.00  0.00    -0.271 OA
HETATM   35  N5  UNL     1      -0.197   7.307  11.463  1.00  0.00    -0.355 N 
ATOM     36  H5  UNL     1      -1.103   7.063  11.062  1.00  0.00     0.162 HD
BRANCH  35  37
HETATM   37  C22 UNL     1       0.893   6.348  11.402  1.00  0.00     0.076 C 
HETATM   38  C23 UNL     1       0.394   4.996  11.765  1.00  0.00     0.032 C 
HETATM   39  C24 UNL     1       1.474   6.414  10.004  1.00  0.00     0.032 C 
ENDBRANCH  35  37
ENDBRANCH  28  33
ENDBRANCH  26  28
ENDBRANCH  21  24
ENDBRANCH  14  17
ENDBRANCH  12  14
ENDBRANCH   5  10
ENDBRANCH   4   5
TORSDOF 14
ENDMDL
