MODEL 1
REMARK VINA RESULT: -8.047499061      0.000      0.000
REMARK  14 active torsions:
REMARK  status: ('A' for Active; 'I' for Inactive)
REMARK    1  A    between atoms: C2_2  and  C3_3 
REMARK       I    between atoms: C3_3  and  N1_5 
REMARK    2  A    between atoms: N1_5  and  C4_7 
REMARK    3  A    between atoms: C4_7  and  C5_8 
REMARK    4  A    between atoms: C4_7  and  C8_13 
REMARK    5  A    between atoms: C5_8  and  C6_9 
REMARK    6  A    between atoms: C6_9  and  C7_10 
REMARK    7  A    between atoms: C8_13  and  C9_14 
REMARK    8  A    between atoms: C8_13  and  N4_17 
REMARK    9  A    between atoms: C13_21  and  C14_22 
REMARK       I    between atoms: C14_22  and  N5_24 
REMARK   10  A    between atoms: N5_24  and  C15_26 
REMARK   11  A    between atoms: C15_26  and  C16_27 
REMARK   12  A    between atoms: C15_26  and  C17_29 
REMARK       I    between atoms: C17_29  and  N6_31 
REMARK   13  A    between atoms: C18_33  and  C19_34 
REMARK   14  A    between atoms: C19_34  and  C21_36 
ROOT
HETATM    1  N4  UNL     1      -3.438   3.625  11.900  1.00  0.00     0.117 N 
HETATM    2  C10 UNL     1      -2.197   2.941  11.776  1.00  0.00     0.275 C 
HETATM    3  C11 UNL     1      -1.286   4.107  11.345  1.00  0.00     0.033 C 
HETATM    4  C12 UNL     1      -2.218   4.789  10.343  1.00  0.00     0.047 C 
HETATM    5  C13 UNL     1      -3.620   4.217  10.635  1.00  0.00     0.315 C 
ENDROOT
BRANCH   1   6
HETATM    6  C8  UNL     1      -4.514   2.948  12.517  1.00  0.00     0.334 C 
BRANCH   6   7
HETATM    7  C4  UNL     1      -4.348   3.075  14.034  1.00  0.00     0.127 C 
BRANCH   7   8
HETATM    8  N1  UNL     1      -4.075   4.509  14.229  1.00  0.00    -0.350 N 
HETATM    9  C3  UNL     1      -2.917   5.065  14.775  1.00  0.00     0.240 C 
HETATM   10  O1  UNL     1      -1.983   4.311  15.157  1.00  0.00    -0.269 OA
ATOM     11  H1  UNL     1      -4.804   5.159  13.936  1.00  0.00     0.163 HD
BRANCH   9  12
HETATM   12  C2  UNL     1      -2.680   6.489  14.950  1.00  0.00     0.064 C 
HETATM   13  C1  UNL     1      -2.918   7.335  13.976  1.00  0.00     0.017 C 
ENDBRANCH   9  12
ENDBRANCH   7   8
BRANCH   7  14
HETATM   14  C5  UNL     1      -5.671   2.854  14.736  1.00  0.00     0.036 C 
BRANCH  14  15
HETATM   15  C6  UNL     1      -5.517   2.203  16.084  1.00  0.00     0.101 C 
BRANCH  15  16
HETATM   16  C7  UNL     1      -4.585   1.082  16.141  1.00  0.00     0.231 C 
HETATM   17  N2  UNL     1      -4.971  -0.222  15.757  1.00  0.00    -0.062 NA
HETATM   18  O2  UNL     1      -3.404   1.241  16.534  1.00  0.00    -0.277 OA
ENDBRANCH  15  16
ENDBRANCH  14  15
ENDBRANCH   7  14
ENDBRANCH   6   7
BRANCH   6  19
HETATM   19  C9  UNL     1      -4.729   1.584  12.041  1.00  0.00     0.267 C 
HETATM   20  N3  UNL     1      -4.118   0.431  12.590  1.00  0.00    -0.060 NA
HETATM   21  O3  UNL     1      -5.519   1.327  11.058  1.00  0.00    -0.274 OA
ENDBRANCH   6  19
ENDBRANCH   1   6
BRANCH   5  22
HETATM   22  C14 UNL     1      -4.579   5.322  10.539  1.00  0.00     0.252 C 
HETATM   23  O4  UNL     1      -5.132   5.862  11.514  1.00  0.00    -0.271 OA
HETATM   24  N5  UNL     1      -4.940   5.854   9.250  1.00  0.00    -0.340 N 
ATOM     25  H5  UNL     1      -4.509   5.443   8.422  1.00  0.00     0.163 HD
BRANCH  24  26
HETATM   26  C15 UNL     1      -5.874   6.929   9.065  1.00  0.00     0.238 C 
BRANCH  26  27
HETATM   27  C16 UNL     1      -5.174   8.239   9.313  1.00  0.00     0.266 C 
HETATM   28  O5  UNL     1      -4.523   8.817   8.467  1.00  0.00    -0.304 OA
ENDBRANCH  26  27
BRANCH  26  29
HETATM   29  C17 UNL     1      -6.505   6.909   7.729  1.00  0.00     0.251 C 
HETATM   30  O6  UNL     1      -6.424   5.868   7.017  1.00  0.00    -0.270 OA
HETATM   31  N6  UNL     1      -7.210   8.012   7.190  1.00  0.00    -0.338 N 
HETATM   32  C18 UNL     1      -8.115   8.655   7.817  1.00  0.00     0.068 C 
ATOM     33  H6  UNL     1      -6.981   8.311   6.241  1.00  0.00     0.167 HD
BRANCH  32  34
HETATM   34  C19 UNL     1      -8.870   9.797   7.309  1.00  0.00     0.019 C 
HETATM   35  C20 UNL     1      -8.392  11.123   7.862  1.00  0.00     0.015 C 
BRANCH  34  36
HETATM   36  C21 UNL     1     -10.353   9.714   7.597  1.00  0.00     0.005 C 
HETATM   37  C22 UNL     1     -11.025  10.825   6.804  1.00  0.00     0.006 C 
ENDBRANCH  34  36
ENDBRANCH  32  34
ENDBRANCH  26  29
ENDBRANCH  24  26
ENDBRANCH   5  22
TORSDOF 14
ENDMDL
MODEL 2
REMARK VINA RESULT: -7.734263049      1.854      2.692
REMARK  14 active torsions:
REMARK  status: ('A' for Active; 'I' for Inactive)
REMARK    1  A    between atoms: C2_2  and  C3_3 
REMARK       I    between atoms: C3_3  and  N1_5 
REMARK    2  A    between atoms: N1_5  and  C4_7 
REMARK    3  A    between atoms: C4_7  and  C5_8 
REMARK    4  A    between atoms: C4_7  and  C8_13 
REMARK    5  A    between atoms: C5_8  and  C6_9 
REMARK    6  A    between atoms: C6_9  and  C7_10 
REMARK    7  A    between atoms: C8_13  and  C9_14 
REMARK    8  A    between atoms: C8_13  and  N4_17 
REMARK    9  A    between atoms: C13_21  and  C14_22 
REMARK       I    between atoms: C14_22  and  N5_24 
REMARK   10  A    between atoms: N5_24  and  C15_26 
REMARK   11  A    between atoms: C15_26  and  C16_27 
REMARK   12  A    between atoms: C15_26  and  C17_29 
REMARK       I    between atoms: C17_29  and  N6_31 
REMARK   13  A    between atoms: C18_33  and  C19_34 
REMARK   14  A    between atoms: C19_34  and  C21_36 
ROOT
HETATM    1  N4  UNL     1      -3.057   3.748  12.040  1.00  0.00     0.117 N 
HETATM    2  C10 UNL     1      -1.995   2.802  12.103  1.00  0.00     0.275 C 
HETATM    3  C11 UNL     1      -0.804   3.707  11.729  1.00  0.00     0.033 C 
HETATM    4  C12 UNL     1      -1.445   4.498  10.588  1.00  0.00     0.047 C 
HETATM    5  C13 UNL     1      -2.963   4.268  10.733  1.00  0.00     0.315 C 
ENDROOT
BRANCH   1   6
HETATM    6  C8  UNL     1      -4.318   3.369  12.552  1.00  0.00     0.334 C 
BRANCH   6   7
HETATM    7  C4  UNL     1      -4.272   3.507  14.077  1.00  0.00     0.127 C 
BRANCH   7   8
HETATM    8  N1  UNL     1      -4.225   4.964  14.286  1.00  0.00    -0.350 N 
HETATM    9  C3  UNL     1      -3.129   5.701  14.740  1.00  0.00     0.240 C 
HETATM   10  O1  UNL     1      -2.051   5.110  15.014  1.00  0.00    -0.269 OA
ATOM     11  H1  UNL     1      -5.076   5.487  14.078  1.00  0.00     0.163 HD
BRANCH   9  12
HETATM   12  C2  UNL     1      -3.117   7.142  14.932  1.00  0.00     0.064 C 
HETATM   13  C1  UNL     1      -1.984   7.797  15.032  1.00  0.00     0.017 C 
ENDBRANCH   9  12
ENDBRANCH   7   8
BRANCH   7  14
HETATM   14  C5  UNL     1      -5.592   3.091  14.691  1.00  0.00     0.036 C 
BRANCH  14  15
HETATM   15  C6  UNL     1      -5.436   2.494  16.063  1.00  0.00     0.101 C 
BRANCH  15  16
HETATM   16  C7  UNL     1      -4.623   1.285  16.137  1.00  0.00     0.231 C 
HETATM   17  N2  UNL     1      -5.149   0.017  15.800  1.00  0.00    -0.062 NA
HETATM   18  O2  UNL     1      -3.424   1.333  16.504  1.00  0.00    -0.277 OA
ENDBRANCH  15  16
ENDBRANCH  14  15
ENDBRANCH   7  14
ENDBRANCH   6   7
BRANCH   6  19
HETATM   19  C9  UNL     1      -4.809   2.079  12.073  1.00  0.00     0.267 C 
HETATM   20  N3  UNL     1      -4.318   0.821  12.497  1.00  0.00    -0.060 NA
HETATM   21  O3  UNL     1      -5.756   1.995  11.207  1.00  0.00    -0.274 OA
ENDBRANCH   6  19
ENDBRANCH   1   6
BRANCH   5  22
HETATM   22  C14 UNL     1      -3.633   5.544  10.467  1.00  0.00     0.252 C 
HETATM   23  O4  UNL     1      -3.073   6.655  10.498  1.00  0.00    -0.271 OA
HETATM   24  N5  UNL     1      -5.037   5.567  10.142  1.00  0.00    -0.340 N 
ATOM     25  H5  UNL     1      -5.536   4.679  10.102  1.00  0.00     0.163 HD
BRANCH  24  26
HETATM   26  C15 UNL     1      -5.772   6.770   9.873  1.00  0.00     0.238 C 
BRANCH  26  27
HETATM   27  C16 UNL     1      -6.972   6.438   9.026  1.00  0.00     0.266 C 
HETATM   28  O5  UNL     1      -7.895   7.205   8.849  1.00  0.00    -0.304 OA
ENDBRANCH  26  27
BRANCH  26  29
HETATM   29  C17 UNL     1      -6.173   7.479  11.106  1.00  0.00     0.251 C 
HETATM   30  O6  UNL     1      -6.196   6.853  12.205  1.00  0.00    -0.270 OA
HETATM   31  N6  UNL     1      -6.540   8.846  11.130  1.00  0.00    -0.338 N 
HETATM   32  C18 UNL     1      -5.854   9.777  10.591  1.00  0.00     0.068 C 
ATOM     33  H6  UNL     1      -7.405   9.103  11.606  1.00  0.00     0.167 HD
BRANCH  32  34
HETATM   34  C19 UNL     1      -6.187  11.199  10.586  1.00  0.00     0.019 C 
HETATM   35  C20 UNL     1      -6.969  11.624   9.360  1.00  0.00     0.015 C 
BRANCH  34  36
HETATM   36  C21 UNL     1      -4.975  12.101  10.664  1.00  0.00     0.005 C 
HETATM   37  C22 UNL     1      -3.790  11.225  11.042  1.00  0.00     0.006 C 
ENDBRANCH  34  36
ENDBRANCH  32  34
ENDBRANCH  26  29
ENDBRANCH  24  26
ENDBRANCH   5  22
TORSDOF 14
ENDMDL
MODEL 3
REMARK VINA RESULT: -7.665601157      1.225      1.646
REMARK  14 active torsions:
REMARK  status: ('A' for Active; 'I' for Inactive)
REMARK    1  A    between atoms: C2_2  and  C3_3 
REMARK       I    between atoms: C3_3  and  N1_5 
REMARK    2  A    between atoms: N1_5  and  C4_7 
REMARK    3  A    between atoms: C4_7  and  C5_8 
REMARK    4  A    between atoms: C4_7  and  C8_13 
REMARK    5  A    between atoms: C5_8  and  C6_9 
REMARK    6  A    between atoms: C6_9  and  C7_10 
REMARK    7  A    between atoms: C8_13  and  C9_14 
REMARK    8  A    between atoms: C8_13  and  N4_17 
REMARK    9  A    between atoms: C13_21  and  C14_22 
REMARK       I    between atoms: C14_22  and  N5_24 
REMARK   10  A    between atoms: N5_24  and  C15_26 
REMARK   11  A    between atoms: C15_26  and  C16_27 
REMARK   12  A    between atoms: C15_26  and  C17_29 
REMARK       I    between atoms: C17_29  and  N6_31 
REMARK   13  A    between atoms: C18_33  and  C19_34 
REMARK   14  A    between atoms: C19_34  and  C21_36 
ROOT
HETATM    1  N4  UNL     1      -3.315   3.781  12.119  1.00  0.00     0.117 N 
HETATM    2  C10 UNL     1      -2.168   2.942  12.049  1.00  0.00     0.275 C 
HETATM    3  C11 UNL     1      -1.111   3.965  11.590  1.00  0.00     0.033 C 
HETATM    4  C12 UNL     1      -1.934   4.715  10.542  1.00  0.00     0.047 C 
HETATM    5  C13 UNL     1      -3.401   4.336  10.826  1.00  0.00     0.315 C 
ENDROOT
BRANCH   1   6
HETATM    6  C8  UNL     1      -4.477   3.270  12.739  1.00  0.00     0.334 C 
BRANCH   6   7
HETATM    7  C4  UNL     1      -4.298   3.390  14.256  1.00  0.00     0.127 C 
BRANCH   7   8
HETATM    8  N1  UNL     1      -4.208   4.844  14.474  1.00  0.00    -0.350 N 
HETATM    9  C3  UNL     1      -3.063   5.559  14.827  1.00  0.00     0.240 C 
HETATM   10  O1  UNL     1      -1.973   4.950  14.990  1.00  0.00    -0.269 OA
ATOM     11  H1  UNL     1      -5.068   5.381  14.355  1.00  0.00     0.163 HD
BRANCH   9  12
HETATM   12  C2  UNL     1      -3.010   6.998  15.033  1.00  0.00     0.064 C 
HETATM   13  C1  UNL     1      -2.006   7.706  14.573  1.00  0.00     0.017 C 
ENDBRANCH   9  12
ENDBRANCH   7   8
BRANCH   7  14
HETATM   14  C5  UNL     1      -5.568   2.989  14.977  1.00  0.00     0.036 C 
BRANCH  14  15
HETATM   15  C6  UNL     1      -5.317   2.515  16.382  1.00  0.00     0.101 C 
BRANCH  15  16
HETATM   16  C7  UNL     1      -4.935   1.114  16.519  1.00  0.00     0.231 C 
HETATM   17  N2  UNL     1      -5.897   0.104  16.748  1.00  0.00    -0.062 NA
HETATM   18  O2  UNL     1      -3.735   0.758  16.435  1.00  0.00    -0.277 OA
ENDBRANCH  15  16
ENDBRANCH  14  15
ENDBRANCH   7  14
ENDBRANCH   6   7
BRANCH   6  19
HETATM   19  C9  UNL     1      -4.883   1.945  12.278  1.00  0.00     0.267 C 
HETATM   20  N3  UNL     1      -4.458   0.724  12.855  1.00  0.00    -0.060 NA
HETATM   21  O3  UNL     1      -5.684   1.790  11.284  1.00  0.00    -0.274 OA
ENDBRANCH   6  19
ENDBRANCH   1   6
BRANCH   5  22
HETATM   22  C14 UNL     1      -4.212   5.547  10.666  1.00  0.00     0.252 C 
HETATM   23  O4  UNL     1      -5.431   5.552  10.422  1.00  0.00    -0.271 OA
HETATM   24  N5  UNL     1      -3.599   6.846  10.791  1.00  0.00    -0.340 N 
ATOM     25  H5  UNL     1      -2.601   6.890  10.994  1.00  0.00     0.163 HD
BRANCH  24  26
HETATM   26  C15 UNL     1      -4.316   8.081  10.644  1.00  0.00     0.238 C 
BRANCH  26  27
HETATM   27  C16 UNL     1      -3.595   9.165  11.400  1.00  0.00     0.266 C 
HETATM   28  O5  UNL     1      -3.719  10.346  11.151  1.00  0.00    -0.304 OA
ENDBRANCH  26  27
BRANCH  26  29
HETATM   29  C17 UNL     1      -4.510   8.460   9.228  1.00  0.00     0.251 C 
HETATM   30  O6  UNL     1      -3.573   8.273   8.400  1.00  0.00    -0.270 OA
HETATM   31  N6  UNL     1      -5.708   9.032   8.737  1.00  0.00    -0.338 N 
HETATM   32  C18 UNL     1      -6.870   8.559   8.966  1.00  0.00     0.068 C 
ATOM     33  H6  UNL     1      -5.638   9.874   8.164  1.00  0.00     0.167 HD
BRANCH  32  34
HETATM   34  C19 UNL     1      -8.134   9.109   8.485  1.00  0.00     0.019 C 
HETATM   35  C20 UNL     1      -9.290   8.138   8.598  1.00  0.00     0.015 C 
BRANCH  34  36
HETATM   36  C21 UNL     1      -8.083   9.560   7.041  1.00  0.00     0.005 C 
HETATM   37  C22 UNL     1      -9.382  10.297   6.758  1.00  0.00     0.006 C 
ENDBRANCH  34  36
ENDBRANCH  32  34
ENDBRANCH  26  29
ENDBRANCH  24  26
ENDBRANCH   5  22
TORSDOF 14
ENDMDL
MODEL 4
REMARK VINA RESULT: -7.628247014      1.414      1.907
REMARK  14 active torsions:
REMARK  status: ('A' for Active; 'I' for Inactive)
REMARK    1  A    between atoms: C2_2  and  C3_3 
REMARK       I    between atoms: C3_3  and  N1_5 
REMARK    2  A    between atoms: N1_5  and  C4_7 
REMARK    3  A    between atoms: C4_7  and  C5_8 
REMARK    4  A    between atoms: C4_7  and  C8_13 
REMARK    5  A    between atoms: C5_8  and  C6_9 
REMARK    6  A    between atoms: C6_9  and  C7_10 
REMARK    7  A    between atoms: C8_13  and  C9_14 
REMARK    8  A    between atoms: C8_13  and  N4_17 
REMARK    9  A    between atoms: C13_21  and  C14_22 
REMARK       I    between atoms: C14_22  and  N5_24 
REMARK   10  A    between atoms: N5_24  and  C15_26 
REMARK   11  A    between atoms: C15_26  and  C16_27 
REMARK   12  A    between atoms: C15_26  and  C17_29 
REMARK       I    between atoms: C17_29  and  N6_31 
REMARK   13  A    between atoms: C18_33  and  C19_34 
REMARK   14  A    between atoms: C19_34  and  C21_36 
ROOT
HETATM    1  N4  UNL     1      -3.004   3.743  11.736  1.00  0.00     0.117 N 
HETATM    2  C10 UNL     1      -1.687   3.227  11.885  1.00  0.00     0.275 C 
HETATM    3  C11 UNL     1      -0.863   4.464  11.476  1.00  0.00     0.033 C 
HETATM    4  C12 UNL     1      -1.687   4.921  10.272  1.00  0.00     0.047 C 
HETATM    5  C13 UNL     1      -3.039   4.190  10.400  1.00  0.00     0.315 C 
ENDROOT
BRANCH   1   6
HETATM    6  C8  UNL     1      -4.080   2.981  12.246  1.00  0.00     0.334 C 
BRANCH   6   7
HETATM    7  C4  UNL     1      -4.057   3.090  13.774  1.00  0.00     0.127 C 
BRANCH   7   8
HETATM    8  N1  UNL     1      -3.846   4.528  14.010  1.00  0.00    -0.350 N 
HETATM    9  C3  UNL     1      -2.796   5.106  14.725  1.00  0.00     0.240 C 
HETATM   10  O1  UNL     1      -1.915   4.369  15.243  1.00  0.00    -0.269 OA
ATOM     11  H1  UNL     1      -4.536   5.165  13.611  1.00  0.00     0.163 HD
BRANCH   9  12
HETATM   12  C2  UNL     1      -2.618   6.533  14.937  1.00  0.00     0.064 C 
HETATM   13  C1  UNL     1      -2.939   7.397  14.003  1.00  0.00     0.017 C 
ENDBRANCH   9  12
ENDBRANCH   7   8
BRANCH   7  14
HETATM   14  C5  UNL     1      -5.431   2.820  14.350  1.00  0.00     0.036 C 
BRANCH  14  15
HETATM   15  C6  UNL     1      -5.380   2.266  15.747  1.00  0.00     0.101 C 
BRANCH  15  16
HETATM   16  C7  UNL     1      -4.531   1.095  15.933  1.00  0.00     0.231 C 
HETATM   17  N2  UNL     1      -4.935  -0.189  15.501  1.00  0.00    -0.062 NA
HETATM   18  O2  UNL     1      -3.407   1.190  16.483  1.00  0.00    -0.277 OA
ENDBRANCH  15  16
ENDBRANCH  14  15
ENDBRANCH   7  14
ENDBRANCH   6   7
BRANCH   6  19
HETATM   19  C9  UNL     1      -4.157   1.615  11.735  1.00  0.00     0.267 C 
HETATM   20  N3  UNL     1      -4.713   1.250  10.486  1.00  0.00    -0.060 NA
HETATM   21  O3  UNL     1      -3.705   0.616  12.407  1.00  0.00    -0.274 OA
ENDBRANCH   6  19
ENDBRANCH   1   6
BRANCH   5  22
HETATM   22  C14 UNL     1      -4.094   5.140  10.035  1.00  0.00     0.252 C 
HETATM   23  O4  UNL     1      -4.631   5.202   8.914  1.00  0.00    -0.271 OA
HETATM   24  N5  UNL     1      -4.576   6.090  11.006  1.00  0.00    -0.340 N 
ATOM     25  H5  UNL     1      -4.166   6.074  11.939  1.00  0.00     0.163 HD
BRANCH  24  26
HETATM   26  C15 UNL     1      -5.601   7.057  10.731  1.00  0.00     0.238 C 
BRANCH  26  27
HETATM   27  C16 UNL     1      -6.373   7.331  11.995  1.00  0.00     0.266 C 
HETATM   28  O5  UNL     1      -7.403   7.972  12.019  1.00  0.00    -0.304 OA
ENDBRANCH  26  27
BRANCH  26  29
HETATM   29  C17 UNL     1      -5.061   8.308  10.157  1.00  0.00     0.251 C 
HETATM   30  O6  UNL     1      -3.825   8.554  10.250  1.00  0.00    -0.270 OA
HETATM   31  N6  UNL     1      -5.866   9.267   9.496  1.00  0.00    -0.338 N 
HETATM   32  C18 UNL     1      -6.703   8.982   8.576  1.00  0.00     0.068 C 
ATOM     33  H6  UNL     1      -5.772  10.245   9.771  1.00  0.00     0.167 HD
BRANCH  32  34
HETATM   34  C19 UNL     1      -7.556   9.930   7.865  1.00  0.00     0.019 C 
HETATM   35  C20 UNL     1      -7.591  11.301   8.508  1.00  0.00     0.015 C 
BRANCH  34  36
HETATM   36  C21 UNL     1      -8.992   9.470   7.740  1.00  0.00     0.005 C 
HETATM   37  C22 UNL     1      -9.143   8.234   8.614  1.00  0.00     0.006 C 
ENDBRANCH  34  36
ENDBRANCH  32  34
ENDBRANCH  26  29
ENDBRANCH  24  26
ENDBRANCH   5  22
TORSDOF 14
ENDMDL
MODEL 5
REMARK VINA RESULT: -7.491261251      2.764      7.316
REMARK  14 active torsions:
REMARK  status: ('A' for Active; 'I' for Inactive)
REMARK    1  A    between atoms: C2_2  and  C3_3 
REMARK       I    between atoms: C3_3  and  N1_5 
REMARK    2  A    between atoms: N1_5  and  C4_7 
REMARK    3  A    between atoms: C4_7  and  C5_8 
REMARK    4  A    between atoms: C4_7  and  C8_13 
REMARK    5  A    between atoms: C5_8  and  C6_9 
REMARK    6  A    between atoms: C6_9  and  C7_10 
REMARK    7  A    between atoms: C8_13  and  C9_14 
REMARK    8  A    between atoms: C8_13  and  N4_17 
REMARK    9  A    between atoms: C13_21  and  C14_22 
REMARK       I    between atoms: C14_22  and  N5_24 
REMARK   10  A    between atoms: N5_24  and  C15_26 
REMARK   11  A    between atoms: C15_26  and  C16_27 
REMARK   12  A    between atoms: C15_26  and  C17_29 
REMARK       I    between atoms: C17_29  and  N6_31 
REMARK   13  A    between atoms: C18_33  and  C19_34 
REMARK   14  A    between atoms: C19_34  and  C21_36 
ROOT
HETATM    1  N4  UNL     1      -3.355   6.765   9.775  1.00  0.00     0.117 N 
HETATM    2  C10 UNL     1      -3.286   7.383   8.495  1.00  0.00     0.275 C 
HETATM    3  C11 UNL     1      -4.700   7.073   7.967  1.00  0.00     0.033 C 
HETATM    4  C12 UNL     1      -4.823   5.621   8.432  1.00  0.00     0.047 C 
HETATM    5  C13 UNL     1      -3.711   5.433   9.483  1.00  0.00     0.315 C 
ENDROOT
BRANCH   1   6
HETATM    6  C8  UNL     1      -2.317   7.025  10.698  1.00  0.00     0.334 C 
BRANCH   6   7
HETATM    7  C4  UNL     1      -2.816   8.083  11.688  1.00  0.00     0.127 C 
BRANCH   7   8
HETATM    8  N1  UNL     1      -4.282   7.954  11.615  1.00  0.00    -0.350 N 
HETATM    9  C3  UNL     1      -5.178   8.928  11.174  1.00  0.00     0.240 C 
HETATM   10  O1  UNL     1      -4.743  10.048  10.791  1.00  0.00    -0.269 OA
ATOM     11  H1  UNL     1      -4.681   7.065  11.916  1.00  0.00     0.163 HD
BRANCH   9  12
HETATM   12  C2  UNL     1      -6.621   8.766  11.112  1.00  0.00     0.064 C 
HETATM   13  C1  UNL     1      -7.233   7.892  11.877  1.00  0.00     0.017 C 
ENDBRANCH   9  12
ENDBRANCH   7   8
BRANCH   7  14
HETATM   14  C5  UNL     1      -2.483   7.682  13.110  1.00  0.00     0.036 C 
BRANCH  14  15
HETATM   15  C6  UNL     1      -2.028   6.253  13.223  1.00  0.00     0.101 C 
BRANCH  15  16
HETATM   16  C7  UNL     1      -2.566   5.506  14.355  1.00  0.00     0.231 C 
HETATM   17  N2  UNL     1      -1.880   4.399  14.905  1.00  0.00    -0.062 NA
HETATM   18  O2  UNL     1      -3.660   5.824  14.881  1.00  0.00    -0.277 OA
ENDBRANCH  15  16
ENDBRANCH  14  15
ENDBRANCH   7  14
ENDBRANCH   6   7
BRANCH   6  19
HETATM   19  C9  UNL     1      -1.022   7.322  10.093  1.00  0.00     0.267 C 
HETATM   20  N3  UNL     1      -0.158   6.359   9.520  1.00  0.00    -0.060 NA
HETATM   21  O3  UNL     1      -0.563   8.523  10.033  1.00  0.00    -0.274 OA
ENDBRANCH   6  19
ENDBRANCH   1   6
BRANCH   5  22
HETATM   22  C14 UNL     1      -4.266   4.629  10.577  1.00  0.00     0.252 C 
HETATM   23  O4  UNL     1      -4.898   5.092  11.543  1.00  0.00    -0.271 OA
HETATM   24  N5  UNL     1      -4.093   3.198  10.579  1.00  0.00    -0.340 N 
ATOM     25  H5  UNL     1      -3.583   2.774   9.804  1.00  0.00     0.163 HD
BRANCH  24  26
HETATM   26  C15 UNL     1      -4.597   2.337  11.611  1.00  0.00     0.238 C 
BRANCH  26  27
HETATM   27  C16 UNL     1      -5.068   1.048  10.992  1.00  0.00     0.266 C 
HETATM   28  O5  UNL     1      -4.732   0.678   9.886  1.00  0.00    -0.304 OA
ENDBRANCH  26  27
BRANCH  26  29
HETATM   29  C17 UNL     1      -3.603   2.084  12.674  1.00  0.00     0.251 C 
HETATM   30  O6  UNL     1      -2.371   2.101  12.393  1.00  0.00    -0.270 OA
HETATM   31  N6  UNL     1      -3.958   1.817  14.019  1.00  0.00    -0.338 N 
HETATM   32  C18 UNL     1      -4.780   2.523  14.692  1.00  0.00     0.068 C 
ATOM     33  H6  UNL     1      -3.531   1.011  14.477  1.00  0.00     0.167 HD
BRANCH  32  34
HETATM   34  C19 UNL     1      -5.180   2.291  16.077  1.00  0.00     0.019 C 
HETATM   35  C20 UNL     1      -5.009   0.851  16.515  1.00  0.00     0.015 C 
BRANCH  34  36
HETATM   36  C21 UNL     1      -6.620   2.664  16.357  1.00  0.00     0.005 C 
HETATM   37  C22 UNL     1      -7.238   1.507  17.128  1.00  0.00     0.006 C 
ENDBRANCH  34  36
ENDBRANCH  32  34
ENDBRANCH  26  29
ENDBRANCH  24  26
ENDBRANCH   5  22
TORSDOF 14
ENDMDL
