MODEL 1
REMARK VINA RESULT: -6.789782263      0.000      0.000
REMARK  15 active torsions:
REMARK  status: ('A' for Active; 'I' for Inactive)
REMARK    1  A    between atoms: C2_2  and  C3_3 
REMARK    2  A    between atoms: C3_3  and  N4_24 
REMARK    3  A    between atoms: C4_4  and  O1_5 
REMARK    4  A    between atoms: C4_4  and  N1_7 
REMARK    5  A    between atoms: C8_11  and  C9_12 
REMARK       I    between atoms: C9_12  and  N2_14 
REMARK    6  A    between atoms: N2_14  and  C10_16 
REMARK    7  A    between atoms: C10_16  and  C11_17 
REMARK    8  A    between atoms: C10_16  and  C12_19 
REMARK    9  A    between atoms: C12_19  and  C13_20 
REMARK   10  A    between atoms: C13_20  and  C14_21 
REMARK       I    between atoms: N4_24  and  C15_25 
REMARK   11  A    between atoms: N4_24  and  C20_34 
REMARK   12  A    between atoms: C15_25  and  C16_27 
REMARK   13  A    between atoms: C16_27  and  N5_28 
REMARK   14  A    between atoms: N5_28  and  C18_30 
REMARK   15  A    between atoms: C18_30  and  C19_31 
ROOT
HETATM    1  C3  UNL     1      -5.506   7.197  10.417  1.00  0.00     0.065 C 
HETATM    2  C4  UNL     1      -5.077   5.985  11.035  1.00  0.00     0.162 C 
ENDROOT
BRANCH   2   3
HETATM    3  O1  UNL     1      -5.134   4.892  10.238  1.00  0.00    -0.345 OA
ATOM      4  H1  UNL     1      -5.387   4.090  10.681  1.00  0.00     0.219 HD
ENDBRANCH   2   3
BRANCH   2   5
HETATM    5  N1  UNL     1      -4.602   5.642  12.274  1.00  0.00    -0.347 N 
HETATM    6  C5  UNL     1      -3.172   5.261  12.494  1.00  0.00     0.126 C 
HETATM    7  C6  UNL     1      -2.884   5.497  13.938  1.00  0.00     0.022 C 
HETATM    8  C7  UNL     1      -4.073   6.361  14.377  1.00  0.00     0.037 C 
HETATM    9  C8  UNL     1      -5.166   5.591  13.564  1.00  0.00     0.178 C 
BRANCH   9  10
HETATM   10  C9  UNL     1      -5.198   4.274  14.241  1.00  0.00     0.241 C 
HETATM   11  O2  UNL     1      -5.935   4.249  15.291  1.00  0.00    -0.271 OA
HETATM   12  N2  UNL     1      -4.547   3.103  13.879  1.00  0.00    -0.348 N 
ATOM     13  H2  UNL     1      -3.962   3.106  13.044  1.00  0.00     0.163 HD
BRANCH  12  14
HETATM   14  C10 UNL     1      -4.666   1.878  14.638  1.00  0.00     0.146 C 
BRANCH  14  15
HETATM   15  C11 UNL     1      -3.801   1.884  15.823  1.00  0.00     0.256 C 
HETATM   16  O3  UNL     1      -3.679   0.881  16.531  1.00  0.00    -0.305 OA
ENDBRANCH  14  15
BRANCH  14  17
HETATM   17  C12 UNL     1      -4.469   0.655  13.768  1.00  0.00     0.041 C 
BRANCH  17  18
HETATM   18  C13 UNL     1      -3.872   1.043  12.439  1.00  0.00     0.102 C 
BRANCH  18  19
HETATM   19  C14 UNL     1      -4.911   1.168  11.385  1.00  0.00     0.231 C 
HETATM   20  N3  UNL     1      -4.973   0.238  10.313  1.00  0.00    -0.062 NA
HETATM   21  O4  UNL     1      -5.765   2.110  11.420  1.00  0.00    -0.277 OA
ENDBRANCH  18  19
ENDBRANCH  17  18
ENDBRANCH  14  17
ENDBRANCH  12  14
ENDBRANCH   9  10
ENDBRANCH   2   5
BRANCH   1  22
HETATM   22  C2  UNL     1      -5.765   8.427  11.191  1.00  0.00     0.057 C 
HETATM   23  C1  UNL     1      -7.210   8.409  11.704  1.00  0.00     0.011 C 
ENDBRANCH   1  22
BRANCH   1  24
HETATM   24  N4  UNL     1      -4.888   7.501   9.146  1.00  0.00    -0.312 N 
HETATM   25  C15 UNL     1      -3.504   7.643   8.905  1.00  0.00     0.253 C 
HETATM   26  O5  UNL     1      -3.146   7.931   7.711  1.00  0.00    -0.271 OA
BRANCH  25  27
HETATM   27  C16 UNL     1      -2.493   7.469   9.973  1.00  0.00     0.375 C 
BRANCH  27  28
HETATM   28  N5  UNL     1      -1.251   7.005   9.360  1.00  0.00     0.103 N 
HETATM   29  C17 UNL     1      -0.120   7.771   9.851  1.00  0.00     0.311 C 
BRANCH  28  30
HETATM   30  C18 UNL     1      -1.037   5.630   9.798  1.00  0.00     0.385 C 
BRANCH  30  31
HETATM   31  C19 UNL     1      -1.690   4.703   8.855  1.00  0.00     0.202 C 
HETATM   32  O6  UNL     1      -1.311   4.649   7.654  1.00  0.00    -0.647 OA
HETATM   33  O7  UNL     1      -2.726   3.863   9.225  1.00  0.00    -0.647 OA
ENDBRANCH  30  31
ENDBRANCH  28  30
ENDBRANCH  27  28
ENDBRANCH  25  27
BRANCH  24  34
HETATM   34  C20 UNL     1      -5.763   7.685   7.985  1.00  0.00     0.085 C 
HETATM   35  C21 UNL     1      -6.978   6.792   8.083  1.00  0.00     0.032 C 
HETATM   36  C22 UNL     1      -6.267   9.126   7.943  1.00  0.00     0.032 C 
ENDBRANCH  24  34
ENDBRANCH   1  24
TORSDOF 15
ENDMDL
MODEL 2
REMARK VINA RESULT: -6.742378421      1.819      2.558
REMARK  15 active torsions:
REMARK  status: ('A' for Active; 'I' for Inactive)
REMARK    1  A    between atoms: C2_2  and  C3_3 
REMARK    2  A    between atoms: C3_3  and  N4_24 
REMARK    3  A    between atoms: C4_4  and  O1_5 
REMARK    4  A    between atoms: C4_4  and  N1_7 
REMARK    5  A    between atoms: C8_11  and  C9_12 
REMARK       I    between atoms: C9_12  and  N2_14 
REMARK    6  A    between atoms: N2_14  and  C10_16 
REMARK    7  A    between atoms: C10_16  and  C11_17 
REMARK    8  A    between atoms: C10_16  and  C12_19 
REMARK    9  A    between atoms: C12_19  and  C13_20 
REMARK   10  A    between atoms: C13_20  and  C14_21 
REMARK       I    between atoms: N4_24  and  C15_25 
REMARK   11  A    between atoms: N4_24  and  C20_34 
REMARK   12  A    between atoms: C15_25  and  C16_27 
REMARK   13  A    between atoms: C16_27  and  N5_28 
REMARK   14  A    between atoms: N5_28  and  C18_30 
REMARK   15  A    between atoms: C18_30  and  C19_31 
ROOT
HETATM    1  C3  UNL     1      -5.911   7.165  10.135  1.00  0.00     0.065 C 
HETATM    2  C4  UNL     1      -5.106   6.095  10.628  1.00  0.00     0.162 C 
ENDROOT
BRANCH   2   3
HETATM    3  O1  UNL     1      -5.123   4.976   9.864  1.00  0.00    -0.345 OA
ATOM      4  H1  UNL     1      -4.383   4.394   9.997  1.00  0.00     0.219 HD
ENDBRANCH   2   3
BRANCH   2   5
HETATM    5  N1  UNL     1      -4.291   5.913  11.714  1.00  0.00    -0.347 N 
HETATM    6  C5  UNL     1      -2.973   5.214  11.605  1.00  0.00     0.126 C 
HETATM    7  C6  UNL     1      -2.149   5.670  12.761  1.00  0.00     0.022 C 
HETATM    8  C7  UNL     1      -2.923   6.899  13.256  1.00  0.00     0.037 C 
HETATM    9  C8  UNL     1      -4.356   6.298  13.068  1.00  0.00     0.178 C 
BRANCH   9  10
HETATM   10  C9  UNL     1      -4.385   5.219  14.082  1.00  0.00     0.241 C 
HETATM   11  O2  UNL     1      -3.791   5.522  15.178  1.00  0.00    -0.271 OA
HETATM   12  N2  UNL     1      -4.964   3.962  13.986  1.00  0.00    -0.348 N 
ATOM     13  H2  UNL     1      -5.444   3.708  13.123  1.00  0.00     0.163 HD
BRANCH  12  14
HETATM   14  C10 UNL     1      -4.915   2.997  15.062  1.00  0.00     0.146 C 
BRANCH  14  15
HETATM   15  C11 UNL     1      -4.515   1.668  14.587  1.00  0.00     0.256 C 
HETATM   16  O3  UNL     1      -4.385   1.432  13.382  1.00  0.00    -0.305 OA
ENDBRANCH  14  15
BRANCH  14  17
HETATM   17  C12 UNL     1      -6.203   2.977  15.859  1.00  0.00     0.041 C 
BRANCH  17  18
HETATM   18  C13 UNL     1      -6.003   2.255  17.168  1.00  0.00     0.102 C 
BRANCH  18  19
HETATM   19  C14 UNL     1      -6.666   0.926  17.170  1.00  0.00     0.231 C 
HETATM   20  N3  UNL     1      -5.920  -0.256  17.421  1.00  0.00    -0.062 NA
HETATM   21  O4  UNL     1      -7.914   0.820  16.948  1.00  0.00    -0.277 OA
ENDBRANCH  18  19
ENDBRANCH  17  18
ENDBRANCH  14  17
ENDBRANCH  12  14
ENDBRANCH   9  10
ENDBRANCH   2   5
BRANCH   1  22
HETATM   22  C2  UNL     1      -6.227   8.352  10.954  1.00  0.00     0.057 C 
HETATM   23  C1  UNL     1      -7.437   8.046  11.845  1.00  0.00     0.011 C 
ENDBRANCH   1  22
BRANCH   1  24
HETATM   24  N4  UNL     1      -5.687   7.528   8.754  1.00  0.00    -0.312 N 
HETATM   25  C15 UNL     1      -4.454   7.906   8.181  1.00  0.00     0.253 C 
HETATM   26  O5  UNL     1      -4.456   8.209   6.938  1.00  0.00    -0.271 OA
BRANCH  25  27
HETATM   27  C16 UNL     1      -3.198   7.954   8.965  1.00  0.00     0.375 C 
BRANCH  27  28
HETATM   28  N5  UNL     1      -2.087   7.623   8.076  1.00  0.00     0.103 N 
HETATM   29  C17 UNL     1      -1.036   8.619   8.176  1.00  0.00     0.311 C 
BRANCH  28  30
HETATM   30  C18 UNL     1      -1.511   6.368   8.549  1.00  0.00     0.385 C 
BRANCH  30  31
HETATM   31  C19 UNL     1      -2.163   5.236   7.865  1.00  0.00     0.202 C 
HETATM   32  O6  UNL     1      -2.440   5.311   6.639  1.00  0.00    -0.647 OA
HETATM   33  O7  UNL     1      -2.497   4.059   8.515  1.00  0.00    -0.647 OA
ENDBRANCH  30  31
ENDBRANCH  28  30
ENDBRANCH  27  28
ENDBRANCH  25  27
BRANCH  24  34
HETATM   34  C20 UNL     1      -6.838   7.510   7.847  1.00  0.00     0.085 C 
HETATM   35  C21 UNL     1      -7.797   6.404   8.220  1.00  0.00     0.032 C 
HETATM   36  C22 UNL     1      -7.604   8.826   7.960  1.00  0.00     0.032 C 
ENDBRANCH  24  34
ENDBRANCH   1  24
TORSDOF 15
ENDMDL
MODEL 3
REMARK VINA RESULT: -6.677654032      3.334      5.299
REMARK  15 active torsions:
REMARK  status: ('A' for Active; 'I' for Inactive)
REMARK    1  A    between atoms: C2_2  and  C3_3 
REMARK    2  A    between atoms: C3_3  and  N4_24 
REMARK    3  A    between atoms: C4_4  and  O1_5 
REMARK    4  A    between atoms: C4_4  and  N1_7 
REMARK    5  A    between atoms: C8_11  and  C9_12 
REMARK       I    between atoms: C9_12  and  N2_14 
REMARK    6  A    between atoms: N2_14  and  C10_16 
REMARK    7  A    between atoms: C10_16  and  C11_17 
REMARK    8  A    between atoms: C10_16  and  C12_19 
REMARK    9  A    between atoms: C12_19  and  C13_20 
REMARK   10  A    between atoms: C13_20  and  C14_21 
REMARK       I    between atoms: N4_24  and  C15_25 
REMARK   11  A    between atoms: N4_24  and  C20_34 
REMARK   12  A    between atoms: C15_25  and  C16_27 
REMARK   13  A    between atoms: C16_27  and  N5_28 
REMARK   14  A    between atoms: N5_28  and  C18_30 
REMARK   15  A    between atoms: C18_30  and  C19_31 
ROOT
HETATM    1  C3  UNL     1      -2.217   7.292  13.615  1.00  0.00     0.065 C 
HETATM    2  C4  UNL     1      -2.982   7.421  12.418  1.00  0.00     0.162 C 
ENDROOT
BRANCH   2   3
HETATM    3  O1  UNL     1      -3.303   8.695  12.086  1.00  0.00    -0.345 OA
ATOM      4  H1  UNL     1      -4.153   8.795  11.673  1.00  0.00     0.219 HD
ENDBRANCH   2   3
BRANCH   2   5
HETATM    5  N1  UNL     1      -3.487   6.550  11.489  1.00  0.00    -0.347 N 
HETATM    6  C5  UNL     1      -4.958   6.401  11.261  1.00  0.00     0.126 C 
HETATM    7  C6  UNL     1      -5.126   5.847   9.888  1.00  0.00     0.022 C 
HETATM    8  C7  UNL     1      -3.739   6.066   9.270  1.00  0.00     0.037 C 
HETATM    9  C8  UNL     1      -2.911   5.680  10.541  1.00  0.00     0.178 C 
BRANCH   9  10
HETATM   10  C9  UNL     1      -3.198   4.234  10.682  1.00  0.00     0.241 C 
HETATM   11  O2  UNL     1      -3.094   3.576   9.585  1.00  0.00    -0.271 OA
HETATM   12  N2  UNL     1      -3.552   3.533  11.826  1.00  0.00    -0.348 N 
ATOM     13  H2  UNL     1      -3.634   4.042  12.706  1.00  0.00     0.163 HD
BRANCH  12  14
HETATM   14  C10 UNL     1      -3.808   2.110  11.820  1.00  0.00     0.146 C 
BRANCH  14  15
HETATM   15  C11 UNL     1      -5.172   1.802  11.378  1.00  0.00     0.256 C 
HETATM   16  O3  UNL     1      -5.404   0.843  10.636  1.00  0.00    -0.305 OA
ENDBRANCH  14  15
BRANCH  14  17
HETATM   17  C12 UNL     1      -3.457   1.470  13.146  1.00  0.00     0.041 C 
BRANCH  17  18
HETATM   18  C13 UNL     1      -4.547   1.721  14.159  1.00  0.00     0.102 C 
BRANCH  18  19
HETATM   19  C14 UNL     1      -4.316   0.962  15.414  1.00  0.00     0.231 C 
HETATM   20  N3  UNL     1      -4.914  -0.311  15.613  1.00  0.00    -0.062 NA
HETATM   21  O4  UNL     1      -3.578   1.435  16.336  1.00  0.00    -0.277 OA
ENDBRANCH  18  19
ENDBRANCH  17  18
ENDBRANCH  14  17
ENDBRANCH  12  14
ENDBRANCH   9  10
ENDBRANCH   2   5
BRANCH   1  22
HETATM   22  C2  UNL     1      -2.001   5.988  14.273  1.00  0.00     0.057 C 
HETATM   23  C1  UNL     1      -3.340   5.459  14.802  1.00  0.00     0.011 C 
ENDBRANCH   1  22
BRANCH   1  24
HETATM   24  N4  UNL     1      -1.031   8.116  13.688  1.00  0.00    -0.312 N 
HETATM   25  C15 UNL     1       0.097   8.029  12.845  1.00  0.00     0.253 C 
HETATM   26  O5  UNL     1       1.062   8.838  13.075  1.00  0.00    -0.271 OA
BRANCH  25  27
HETATM   27  C16 UNL     1       0.182   7.055  11.733  1.00  0.00     0.375 C 
BRANCH  27  28
HETATM   28  N5  UNL     1       0.988   5.919  12.175  1.00  0.00     0.103 N 
HETATM   29  C17 UNL     1       0.403   4.670  11.724  1.00  0.00     0.311 C 
BRANCH  28  30
HETATM   30  C18 UNL     1       2.287   6.026  11.521  1.00  0.00     0.385 C 
BRANCH  30  31
HETATM   31  C19 UNL     1       3.360   5.896  12.524  1.00  0.00     0.202 C 
HETATM   32  O6  UNL     1       3.746   6.905  13.172  1.00  0.00    -0.647 OA
HETATM   33  O7  UNL     1       3.984   4.692  12.804  1.00  0.00    -0.647 OA
ENDBRANCH  30  31
ENDBRANCH  28  30
ENDBRANCH  27  28
ENDBRANCH  25  27
BRANCH  24  34
HETATM   34  C20 UNL     1      -0.975   9.143  14.732  1.00  0.00     0.085 C 
HETATM   35  C21 UNL     1      -1.539  10.451  14.227  1.00  0.00     0.032 C 
HETATM   36  C22 UNL     1      -1.830   8.716  15.922  1.00  0.00     0.032 C 
ENDBRANCH  24  34
ENDBRANCH   1  24
TORSDOF 15
ENDMDL
MODEL 4
REMARK VINA RESULT: -6.523536229      1.764      2.379
REMARK  15 active torsions:
REMARK  status: ('A' for Active; 'I' for Inactive)
REMARK    1  A    between atoms: C2_2  and  C3_3 
REMARK    2  A    between atoms: C3_3  and  N4_24 
REMARK    3  A    between atoms: C4_4  and  O1_5 
REMARK    4  A    between atoms: C4_4  and  N1_7 
REMARK    5  A    between atoms: C8_11  and  C9_12 
REMARK       I    between atoms: C9_12  and  N2_14 
REMARK    6  A    between atoms: N2_14  and  C10_16 
REMARK    7  A    between atoms: C10_16  and  C11_17 
REMARK    8  A    between atoms: C10_16  and  C12_19 
REMARK    9  A    between atoms: C12_19  and  C13_20 
REMARK   10  A    between atoms: C13_20  and  C14_21 
REMARK       I    between atoms: N4_24  and  C15_25 
REMARK   11  A    between atoms: N4_24  and  C20_34 
REMARK   12  A    between atoms: C15_25  and  C16_27 
REMARK   13  A    between atoms: C16_27  and  N5_28 
REMARK   14  A    between atoms: N5_28  and  C18_30 
REMARK   15  A    between atoms: C18_30  and  C19_31 
ROOT
HETATM    1  C3  UNL     1      -3.322   6.744  10.327  1.00  0.00     0.065 C 
HETATM    2  C4  UNL     1      -4.019   5.838  11.180  1.00  0.00     0.162 C 
ENDROOT
BRANCH   2   3
HETATM    3  O1  UNL     1      -4.937   5.064  10.554  1.00  0.00    -0.345 OA
ATOM      4  H1  UNL     1      -5.752   4.952  11.030  1.00  0.00     0.219 HD
ENDBRANCH   2   3
BRANCH   2   5
HETATM    5  N1  UNL     1      -3.986   5.544  12.518  1.00  0.00    -0.347 N 
HETATM    6  C5  UNL     1      -2.705   5.245  13.230  1.00  0.00     0.126 C 
HETATM    7  C6  UNL     1      -2.943   5.522  14.675  1.00  0.00     0.022 C 
HETATM    8  C7  UNL     1      -4.249   6.327  14.648  1.00  0.00     0.037 C 
HETATM    9  C8  UNL     1      -4.958   5.485  13.536  1.00  0.00     0.178 C 
BRANCH   9  10
HETATM   10  C9  UNL     1      -5.163   4.180  14.207  1.00  0.00     0.241 C 
HETATM   11  O2  UNL     1      -6.136   4.174  15.043  1.00  0.00    -0.271 OA
HETATM   12  N2  UNL     1      -4.449   3.002  14.037  1.00  0.00    -0.348 N 
ATOM     13  H2  UNL     1      -3.675   2.990  13.372  1.00  0.00     0.163 HD
BRANCH  12  14
HETATM   14  C10 UNL     1      -4.757   1.792  14.764  1.00  0.00     0.146 C 
BRANCH  14  15
HETATM   15  C11 UNL     1      -4.080   1.748  16.065  1.00  0.00     0.256 C 
HETATM   16  O3  UNL     1      -3.634   0.691  16.520  1.00  0.00    -0.305 OA
ENDBRANCH  14  15
BRANCH  14  17
HETATM   17  C12 UNL     1      -4.511   0.554  13.928  1.00  0.00     0.041 C 
BRANCH  17  18
HETATM   18  C13 UNL     1      -3.853   0.921  12.622  1.00  0.00     0.102 C 
BRANCH  18  19
HETATM   19  C14 UNL     1      -4.840   1.008  11.515  1.00  0.00     0.231 C 
HETATM   20  N3  UNL     1      -5.641   2.169  11.347  1.00  0.00    -0.062 NA
HETATM   21  O4  UNL     1      -4.989   0.045  10.697  1.00  0.00    -0.277 OA
ENDBRANCH  18  19
ENDBRANCH  17  18
ENDBRANCH  14  17
ENDBRANCH  12  14
ENDBRANCH   9  10
ENDBRANCH   2   5
BRANCH   1  22
HETATM   22  C2  UNL     1      -2.486   7.840  10.858  1.00  0.00     0.057 C 
HETATM   23  C1  UNL     1      -3.374   8.837  11.611  1.00  0.00     0.011 C 
ENDBRANCH   1  22
BRANCH   1  24
HETATM   24  N4  UNL     1      -2.725   6.157   9.148  1.00  0.00    -0.312 N 
HETATM   25  C15 UNL     1      -1.647   5.246   9.125  1.00  0.00     0.253 C 
HETATM   26  O5  UNL     1      -1.245   4.846   7.978  1.00  0.00    -0.271 OA
BRANCH  25  27
HETATM   27  C16 UNL     1      -0.997   4.759  10.363  1.00  0.00     0.375 C 
BRANCH  27  28
HETATM   28  N5  UNL     1       0.367   5.281  10.403  1.00  0.00     0.103 N 
HETATM   29  C17 UNL     1       0.567   6.100  11.585  1.00  0.00     0.311 C 
BRANCH  28  30
HETATM   30  C18 UNL     1       1.267   4.140  10.536  1.00  0.00     0.385 C 
BRANCH  30  31
HETATM   31  C19 UNL     1       2.098   4.021   9.324  1.00  0.00     0.202 C 
HETATM   32  O6  UNL     1       2.723   2.953   9.086  1.00  0.00    -0.647 OA
HETATM   33  O7  UNL     1       2.235   5.048   8.405  1.00  0.00    -0.647 OA
ENDBRANCH  30  31
ENDBRANCH  28  30
ENDBRANCH  27  28
ENDBRANCH  25  27
BRANCH  24  34
HETATM   34  C20 UNL     1      -3.277   6.532   7.843  1.00  0.00     0.085 C 
HETATM   35  C21 UNL     1      -4.158   5.431   7.298  1.00  0.00     0.032 C 
HETATM   36  C22 UNL     1      -4.150   7.775   7.990  1.00  0.00     0.032 C 
ENDBRANCH  24  34
ENDBRANCH   1  24
TORSDOF 15
ENDMDL
MODEL 5
REMARK VINA RESULT: -6.483723489      2.925      4.356
REMARK  15 active torsions:
REMARK  status: ('A' for Active; 'I' for Inactive)
REMARK    1  A    between atoms: C2_2  and  C3_3 
REMARK    2  A    between atoms: C3_3  and  N4_24 
REMARK    3  A    between atoms: C4_4  and  O1_5 
REMARK    4  A    between atoms: C4_4  and  N1_7 
REMARK    5  A    between atoms: C8_11  and  C9_12 
REMARK       I    between atoms: C9_12  and  N2_14 
REMARK    6  A    between atoms: N2_14  and  C10_16 
REMARK    7  A    between atoms: C10_16  and  C11_17 
REMARK    8  A    between atoms: C10_16  and  C12_19 
REMARK    9  A    between atoms: C12_19  and  C13_20 
REMARK   10  A    between atoms: C13_20  and  C14_21 
REMARK       I    between atoms: N4_24  and  C15_25 
REMARK   11  A    between atoms: N4_24  and  C20_34 
REMARK   12  A    between atoms: C15_25  and  C16_27 
REMARK   13  A    between atoms: C16_27  and  N5_28 
REMARK   14  A    between atoms: N5_28  and  C18_30 
REMARK   15  A    between atoms: C18_30  and  C19_31 
ROOT
HETATM    1  C3  UNL     1      -1.877   8.254  13.493  1.00  0.00     0.065 C 
HETATM    2  C4  UNL     1      -3.069   7.547  13.155  1.00  0.00     0.162 C 
ENDROOT
BRANCH   2   3
HETATM    3  O1  UNL     1      -3.623   7.903  11.972  1.00  0.00    -0.345 OA
ATOM      4  H1  UNL     1      -4.573   7.930  11.971  1.00  0.00     0.219 HD
ENDBRANCH   2   3
BRANCH   2   5
HETATM    5  N1  UNL     1      -3.814   6.561  13.748  1.00  0.00    -0.347 N 
HETATM    6  C5  UNL     1      -4.205   6.625  15.191  1.00  0.00     0.126 C 
HETATM    7  C6  UNL     1      -5.407   5.758  15.348  1.00  0.00     0.022 C 
HETATM    8  C7  UNL     1      -5.855   5.545  13.896  1.00  0.00     0.037 C 
HETATM    9  C8  UNL     1      -4.423   5.377  13.287  1.00  0.00     0.178 C 
BRANCH   9  10
HETATM   10  C9  UNL     1      -3.969   4.101  13.886  1.00  0.00     0.241 C 
HETATM   11  O2  UNL     1      -2.722   4.084  14.185  1.00  0.00    -0.271 OA
HETATM   12  N2  UNL     1      -4.715   2.962  14.156  1.00  0.00    -0.348 N 
ATOM     13  H2  UNL     1      -5.709   2.962  13.928  1.00  0.00     0.163 HD
BRANCH  12  14
HETATM   14  C10 UNL     1      -4.139   1.775  14.747  1.00  0.00     0.146 C 
BRANCH  14  15
HETATM   15  C11 UNL     1      -4.539   0.559  14.031  1.00  0.00     0.256 C 
HETATM   16  O3  UNL     1      -4.623  -0.528  14.611  1.00  0.00    -0.305 OA
ENDBRANCH  14  15
BRANCH  14  17
HETATM   17  C12 UNL     1      -4.407   1.700  16.235  1.00  0.00     0.041 C 
BRANCH  17  18
HETATM   18  C13 UNL     1      -5.803   2.179  16.545  1.00  0.00     0.102 C 
BRANCH  18  19
HETATM   19  C14 UNL     1      -6.666   1.074  17.037  1.00  0.00     0.231 C 
HETATM   20  N3  UNL     1      -6.097  -0.151  17.476  1.00  0.00    -0.062 NA
HETATM   21  O4  UNL     1      -7.931   1.203  17.075  1.00  0.00    -0.277 OA
ENDBRANCH  18  19
ENDBRANCH  17  18
ENDBRANCH  14  17
ENDBRANCH  12  14
ENDBRANCH   9  10
ENDBRANCH   2   5
BRANCH   1  22
HETATM   22  C2  UNL     1      -1.283   8.196  14.844  1.00  0.00     0.057 C 
HETATM   23  C1  UNL     1      -1.709   9.436  15.638  1.00  0.00     0.011 C 
ENDBRANCH   1  22
BRANCH   1  24
HETATM   24  N4  UNL     1      -0.852   8.271  12.473  1.00  0.00    -0.312 N 
HETATM   25  C15 UNL     1      -0.210   7.143  11.918  1.00  0.00     0.253 C 
HETATM   26  O5  UNL     1       0.688   7.359  11.032  1.00  0.00    -0.271 OA
BRANCH  25  27
HETATM   27  C16 UNL     1      -0.547   5.760  12.326  1.00  0.00     0.375 C 
BRANCH  27  28
HETATM   28  N5  UNL     1      -0.465   4.899  11.148  1.00  0.00     0.103 N 
HETATM   29  C17 UNL     1       0.518   3.850  11.347  1.00  0.00     0.311 C 
BRANCH  28  30
HETATM   30  C18 UNL     1      -1.755   4.232  11.006  1.00  0.00     0.385 C 
BRANCH  30  31
HETATM   31  C19 UNL     1      -2.445   4.740   9.806  1.00  0.00     0.202 C 
HETATM   32  O6  UNL     1      -3.130   5.796   9.867  1.00  0.00    -0.647 OA
HETATM   33  O7  UNL     1      -2.382   4.103   8.578  1.00  0.00    -0.647 OA
ENDBRANCH  30  31
ENDBRANCH  28  30
ENDBRANCH  27  28
ENDBRANCH  25  27
BRANCH  24  34
HETATM   34  C20 UNL     1      -0.424   9.573  11.954  1.00  0.00     0.085 C 
HETATM   35  C21 UNL     1      -1.552  10.576  12.027  1.00  0.00     0.032 C 
HETATM   36  C22 UNL     1       0.717  10.118  12.810  1.00  0.00     0.032 C 
ENDBRANCH  24  34
ENDBRANCH   1  24
TORSDOF 15
ENDMDL
