MODEL 1
REMARK VINA RESULT: -7.225082336      0.000      0.000
REMARK  15 active torsions:
REMARK  status: ('A' for Active; 'I' for Inactive)
REMARK       I    between atoms: C2_2  and  N1_4 
REMARK    1  A    between atoms: N1_4  and  C3_6 
REMARK    2  A    between atoms: C3_6  and  C4_7 
REMARK    3  A    between atoms: C3_6  and  C7_10 
REMARK    4  A    between atoms: C7_10  and  C8_11 
REMARK    5  A    between atoms: C7_10  and  N4_30 
REMARK    6  A    between atoms: C8_11  and  C9_12 
REMARK       I    between atoms: C9_12  and  N2_14 
REMARK    7  A    between atoms: N2_14  and  C10_16 
REMARK    8  A    between atoms: C10_16  and  C11_17 
REMARK    9  A    between atoms: C10_16  and  C15_21 
REMARK   10  A    between atoms: C11_17  and  C12_18 
REMARK       I    between atoms: C15_21  and  N3_23 
REMARK   11  A    between atoms: C19_27  and  C20_28 
REMARK   12  A    between atoms: N4_30  and  C21_32 
REMARK   13  A    between atoms: C21_32  and  C22_33 
REMARK   14  A    between atoms: C21_32  and  C23_35 
REMARK   15  A    between atoms: C23_35  and  C24_36 
ROOT
HETATM    1  C8  UNL     1      -3.828   5.398  14.500  1.00  0.00     0.105 C 
ENDROOT
BRANCH   1   2
HETATM    2  C7  UNL     1      -3.034   6.033  13.396  1.00  0.00     0.057 C 
BRANCH   2   3
HETATM    3  C3  UNL     1      -1.694   6.518  13.667  1.00  0.00     0.042 C 
BRANCH   3   4
HETATM    4  N1  UNL     1      -0.639   5.836  12.983  1.00  0.00    -0.329 N 
HETATM    5  C2  UNL     1       0.064   6.077  11.815  1.00  0.00     0.217 C 
HETATM    6  C1  UNL     1       1.165   5.093  11.421  1.00  0.00     0.117 C 
HETATM    7  O1  UNL     1      -0.087   7.015  11.020  1.00  0.00    -0.274 OA
ATOM      8  H1  UNL     1      -0.338   4.988  13.462  1.00  0.00     0.168 HD
ENDBRANCH   3   4
BRANCH   3   9
HETATM    9  C4  UNL     1      -1.543   8.018  13.732  1.00  0.00     0.030 C 
HETATM   10  C5  UNL     1      -1.610   8.537  15.141  1.00  0.00     0.016 C 
HETATM   11  C6  UNL     1      -2.380   8.841  12.851  1.00  0.00     0.016 C 
ENDBRANCH   3   9
ENDBRANCH   2   3
BRANCH   2  12
HETATM   12  N4  UNL     1      -3.388   5.475  12.136  1.00  0.00    -0.377 N 
ATOM     13  H4  UNL     1      -2.804   4.705  11.815  1.00  0.00     0.160 HD
BRANCH  12  14
HETATM   14  C21 UNL     1      -4.399   5.831  11.307  1.00  0.00     0.149 C 
BRANCH  14  15
HETATM   15  C22 UNL     1      -5.342   6.914  11.480  1.00  0.00     0.256 C 
HETATM   16  O5  UNL     1      -6.381   6.919  12.045  1.00  0.00    -0.305 OA
ENDBRANCH  14  15
BRANCH  14  17
HETATM   17  C23 UNL     1      -3.731   6.094   9.898  1.00  0.00     0.101 C 
BRANCH  17  18
HETATM   18  C24 UNL     1      -2.706   5.031   9.760  1.00  0.00     0.233 C 
HETATM   19  O6  UNL     1      -3.025   3.952   9.254  1.00  0.00    -0.307 OA
ENDBRANCH  17  18
ENDBRANCH  14  17
ENDBRANCH  12  14
ENDBRANCH   2  12
ENDBRANCH   1   2
BRANCH   1  20
HETATM   20  C9  UNL     1      -3.517   4.126  15.063  1.00  0.00     0.244 C 
HETATM   21  O2  UNL     1      -2.401   3.736  15.443  1.00  0.00    -0.269 OA
HETATM   22  N2  UNL     1      -4.573   3.166  15.227  1.00  0.00    -0.344 N 
ATOM     23  H2  UNL     1      -5.512   3.436  14.932  1.00  0.00     0.163 HD
BRANCH  22  24
HETATM   24  C10 UNL     1      -4.395   1.847  15.778  1.00  0.00     0.177 C 
BRANCH  24  25
HETATM   25  C11 UNL     1      -5.313   1.605  16.955  1.00  0.00     0.038 C 
BRANCH  25  26
HETATM   26  C12 UNL     1      -6.683   2.164  16.512  1.00  0.00    -0.020 C 
HETATM   27  C13 UNL     1      -6.935   3.438  17.305  1.00  0.00     0.009 C 
HETATM   28  C14 UNL     1      -7.714   1.155  16.990  1.00  0.00     0.009 C 
ENDBRANCH  25  26
ENDBRANCH  24  25
BRANCH  24  29
HETATM   29  C15 UNL     1      -4.403   0.804  14.754  1.00  0.00     0.243 C 
HETATM   30  O3  UNL     1      -4.699  -0.379  15.173  1.00  0.00    -0.271 OA
HETATM   31  N3  UNL     1      -4.139   0.908  13.386  1.00  0.00    -0.339 N 
HETATM   32  C16 UNL     1      -4.152  -0.214  12.423  1.00  0.00     0.127 C 
HETATM   33  C19 UNL     1      -3.818   2.029  12.529  1.00  0.00     0.148 C 
HETATM   34  C17 UNL     1      -5.067   0.362  11.358  1.00  0.00     0.022 C 
HETATM   35  C18 UNL     1      -4.648   1.792  11.258  1.00  0.00     0.034 C 
BRANCH  33  36
HETATM   36  C20 UNL     1      -2.405   1.917  12.097  1.00  0.00     0.256 C 
HETATM   37  O4  UNL     1      -1.584   2.808  12.217  1.00  0.00    -0.305 OA
ENDBRANCH  33  36
ENDBRANCH  24  29
ENDBRANCH  22  24
ENDBRANCH   1  20
TORSDOF 15
ENDMDL
MODEL 2
REMARK VINA RESULT: -6.923472245      1.536      4.008
REMARK  15 active torsions:
REMARK  status: ('A' for Active; 'I' for Inactive)
REMARK       I    between atoms: C2_2  and  N1_4 
REMARK    1  A    between atoms: N1_4  and  C3_6 
REMARK    2  A    between atoms: C3_6  and  C4_7 
REMARK    3  A    between atoms: C3_6  and  C7_10 
REMARK    4  A    between atoms: C7_10  and  C8_11 
REMARK    5  A    between atoms: C7_10  and  N4_30 
REMARK    6  A    between atoms: C8_11  and  C9_12 
REMARK       I    between atoms: C9_12  and  N2_14 
REMARK    7  A    between atoms: N2_14  and  C10_16 
REMARK    8  A    between atoms: C10_16  and  C11_17 
REMARK    9  A    between atoms: C10_16  and  C15_21 
REMARK   10  A    between atoms: C11_17  and  C12_18 
REMARK       I    between atoms: C15_21  and  N3_23 
REMARK   11  A    between atoms: C19_27  and  C20_28 
REMARK   12  A    between atoms: N4_30  and  C21_32 
REMARK   13  A    between atoms: C21_32  and  C22_33 
REMARK   14  A    between atoms: C21_32  and  C23_35 
REMARK   15  A    between atoms: C23_35  and  C24_36 
ROOT
HETATM    1  C8  UNL     1      -4.482   5.260  14.729  1.00  0.00     0.105 C 
ENDROOT
BRANCH   1   2
HETATM    2  C7  UNL     1      -3.780   6.143  13.738  1.00  0.00     0.057 C 
BRANCH   2   3
HETATM    3  C3  UNL     1      -4.278   6.228  12.378  1.00  0.00     0.042 C 
BRANCH   3   4
HETATM    4  N1  UNL     1      -5.300   7.203  12.153  1.00  0.00    -0.329 N 
HETATM    5  C2  UNL     1      -6.327   7.325  11.232  1.00  0.00     0.217 C 
HETATM    6  C1  UNL     1      -7.246   8.542  11.336  1.00  0.00     0.117 C 
HETATM    7  O1  UNL     1      -6.608   6.554  10.305  1.00  0.00    -0.274 OA
ATOM      8  H1  UNL     1      -5.263   7.978  12.815  1.00  0.00     0.168 HD
ENDBRANCH   3   4
BRANCH   3   9
HETATM    9  C4  UNL     1      -3.233   6.140  11.294  1.00  0.00     0.030 C 
HETATM   10  C5  UNL     1      -2.923   7.481  10.691  1.00  0.00     0.016 C 
HETATM   11  C6  UNL     1      -3.412   5.140  10.235  1.00  0.00     0.016 C 
ENDBRANCH   3   9
ENDBRANCH   2   3
BRANCH   2  12
HETATM   12  N4  UNL     1      -3.189   7.260  14.391  1.00  0.00    -0.377 N 
ATOM     13  H4  UNL     1      -3.839   7.972  14.724  1.00  0.00     0.160 HD
BRANCH  12  14
HETATM   14  C21 UNL     1      -1.878   7.505  14.629  1.00  0.00     0.149 C 
BRANCH  14  15
HETATM   15  C22 UNL     1      -0.882   7.966  13.687  1.00  0.00     0.256 C 
HETATM   16  O5  UNL     1      -0.245   7.347  12.907  1.00  0.00    -0.305 OA
ENDBRANCH  14  15
BRANCH  14  17
HETATM   17  C23 UNL     1      -1.841   8.557  15.809  1.00  0.00     0.101 C 
BRANCH  17  18
HETATM   18  C24 UNL     1      -1.401   9.823  15.175  1.00  0.00     0.233 C 
HETATM   19  O6  UNL     1      -0.621  10.560  15.785  1.00  0.00    -0.307 OA
ENDBRANCH  17  18
ENDBRANCH  14  17
ENDBRANCH  12  14
ENDBRANCH   2  12
ENDBRANCH   1   2
BRANCH   1  20
HETATM   20  C9  UNL     1      -3.969   4.005  15.167  1.00  0.00     0.244 C 
HETATM   21  O2  UNL     1      -2.783   3.735  15.421  1.00  0.00    -0.269 OA
HETATM   22  N2  UNL     1      -4.882   2.910  15.347  1.00  0.00    -0.344 N 
ATOM     23  H2  UNL     1      -5.870   3.078  15.154  1.00  0.00     0.163 HD
BRANCH  22  24
HETATM   24  C10 UNL     1      -4.496   1.592  15.782  1.00  0.00     0.177 C 
BRANCH  24  25
HETATM   25  C11 UNL     1      -5.295   1.144  16.985  1.00  0.00     0.038 C 
BRANCH  25  26
HETATM   26  C12 UNL     1      -6.473   2.139  17.073  1.00  0.00    -0.020 C 
HETATM   27  C13 UNL     1      -6.450   2.751  18.467  1.00  0.00     0.009 C 
HETATM   28  C14 UNL     1      -7.733   1.294  17.001  1.00  0.00     0.009 C 
ENDBRANCH  25  26
ENDBRANCH  24  25
BRANCH  24  29
HETATM   29  C15 UNL     1      -4.434   0.632  14.680  1.00  0.00     0.243 C 
HETATM   30  O3  UNL     1      -4.668  -0.594  15.002  1.00  0.00    -0.271 OA
HETATM   31  N3  UNL     1      -4.161   0.857  13.329  1.00  0.00    -0.339 N 
HETATM   32  C16 UNL     1      -4.101  -0.185  12.282  1.00  0.00     0.127 C 
HETATM   33  C19 UNL     1      -3.895   2.058  12.566  1.00  0.00     0.148 C 
HETATM   34  C17 UNL     1      -5.035   0.420  11.250  1.00  0.00     0.022 C 
HETATM   35  C18 UNL     1      -4.697   1.875  11.267  1.00  0.00     0.034 C 
BRANCH  33  36
HETATM   36  C20 UNL     1      -2.473   2.058  12.148  1.00  0.00     0.256 C 
HETATM   37  O4  UNL     1      -1.675   2.925  12.453  1.00  0.00    -0.305 OA
ENDBRANCH  33  36
ENDBRANCH  24  29
ENDBRANCH  22  24
ENDBRANCH   1  20
TORSDOF 15
ENDMDL
MODEL 3
REMARK VINA RESULT: -6.850539846      2.600      7.288
REMARK  15 active torsions:
REMARK  status: ('A' for Active; 'I' for Inactive)
REMARK       I    between atoms: C2_2  and  N1_4 
REMARK    1  A    between atoms: N1_4  and  C3_6 
REMARK    2  A    between atoms: C3_6  and  C4_7 
REMARK    3  A    between atoms: C3_6  and  C7_10 
REMARK    4  A    between atoms: C7_10  and  C8_11 
REMARK    5  A    between atoms: C7_10  and  N4_30 
REMARK    6  A    between atoms: C8_11  and  C9_12 
REMARK       I    between atoms: C9_12  and  N2_14 
REMARK    7  A    between atoms: N2_14  and  C10_16 
REMARK    8  A    between atoms: C10_16  and  C11_17 
REMARK    9  A    between atoms: C10_16  and  C15_21 
REMARK   10  A    between atoms: C11_17  and  C12_18 
REMARK       I    between atoms: C15_21  and  N3_23 
REMARK   11  A    between atoms: C19_27  and  C20_28 
REMARK   12  A    between atoms: N4_30  and  C21_32 
REMARK   13  A    between atoms: C21_32  and  C22_33 
REMARK   14  A    between atoms: C21_32  and  C23_35 
REMARK   15  A    between atoms: C23_35  and  C24_36 
ROOT
HETATM    1  C8  UNL     1      -5.541   5.334  14.770  1.00  0.00     0.105 C 
ENDROOT
BRANCH   1   2
HETATM    2  C7  UNL     1      -5.275   3.863  14.632  1.00  0.00     0.057 C 
BRANCH   2   3
HETATM    3  C3  UNL     1      -4.114   3.414  13.886  1.00  0.00     0.042 C 
BRANCH   3   4
HETATM    4  N1  UNL     1      -4.392   2.705  12.676  1.00  0.00    -0.329 N 
HETATM    5  C2  UNL     1      -4.556   1.366  12.361  1.00  0.00     0.217 C 
HETATM    6  C1  UNL     1      -4.871   1.001  10.910  1.00  0.00     0.117 C 
HETATM    7  O1  UNL     1      -4.478   0.394  13.124  1.00  0.00    -0.274 OA
ATOM      8  H1  UNL     1      -4.491   3.319  11.869  1.00  0.00     0.168 HD
ENDBRANCH   3   4
BRANCH   3   9
HETATM    9  C4  UNL     1      -2.973   4.397  13.799  1.00  0.00     0.030 C 
HETATM   10  C5  UNL     1      -2.161   4.218  12.548  1.00  0.00     0.016 C 
HETATM   11  C6  UNL     1      -2.086   4.538  14.960  1.00  0.00     0.016 C 
ENDBRANCH   3   9
ENDBRANCH   2   3
BRANCH   2  12
HETATM   12  N4  UNL     1      -5.754   3.156  15.770  1.00  0.00    -0.377 N 
ATOM     13  H4  UNL     1      -6.172   3.730  16.501  1.00  0.00     0.160 HD
BRANCH  12  14
HETATM   14  C21 UNL     1      -5.729   1.824  16.011  1.00  0.00     0.149 C 
BRANCH  14  15
HETATM   15  C22 UNL     1      -4.619   1.039  16.508  1.00  0.00     0.256 C 
HETATM   16  O5  UNL     1      -3.458   1.244  16.420  1.00  0.00    -0.305 OA
ENDBRANCH  14  15
BRANCH  14  17
HETATM   17  C23 UNL     1      -6.911   1.543  17.022  1.00  0.00     0.101 C 
BRANCH  17  18
HETATM   18  C24 UNL     1      -6.310   1.715  18.366  1.00  0.00     0.233 C 
HETATM   19  O6  UNL     1      -6.385   2.816  18.920  1.00  0.00    -0.307 OA
ENDBRANCH  17  18
ENDBRANCH  14  17
ENDBRANCH  12  14
ENDBRANCH   2  12
ENDBRANCH   1   2
BRANCH   1  20
HETATM   20  C9  UNL     1      -5.940   6.167  13.685  1.00  0.00     0.244 C 
HETATM   21  O2  UNL     1      -7.100   6.502  13.393  1.00  0.00    -0.269 OA
HETATM   22  N2  UNL     1      -4.929   6.697  12.813  1.00  0.00    -0.344 N 
ATOM     23  H2  UNL     1      -3.957   6.455  13.008  1.00  0.00     0.163 HD
BRANCH  22  24
HETATM   24  C10 UNL     1      -5.195   7.547  11.680  1.00  0.00     0.177 C 
BRANCH  24  25
HETATM   25  C11 UNL     1      -4.118   8.593  11.501  1.00  0.00     0.038 C 
BRANCH  25  26
HETATM   26  C12 UNL     1      -2.854   7.976  12.140  1.00  0.00    -0.020 C 
HETATM   27  C13 UNL     1      -2.158   9.075  12.930  1.00  0.00     0.009 C 
HETATM   28  C14 UNL     1      -1.932   7.635  10.983  1.00  0.00     0.009 C 
ENDBRANCH  25  26
ENDBRANCH  24  25
BRANCH  24  29
HETATM   29  C15 UNL     1      -5.538   6.790  10.477  1.00  0.00     0.243 C 
HETATM   30  O3  UNL     1      -5.107   5.575  10.449  1.00  0.00    -0.271 OA
HETATM   31  N3  UNL     1      -6.267   7.196   9.357  1.00  0.00    -0.339 N 
HETATM   32  C16 UNL     1      -6.549   6.360   8.170  1.00  0.00     0.127 C 
HETATM   33  C19 UNL     1      -6.944   8.429   9.018  1.00  0.00     0.148 C 
HETATM   34  C17 UNL     1      -8.054   6.535   8.075  1.00  0.00     0.022 C 
HETATM   35  C18 UNL     1      -8.270   7.980   8.385  1.00  0.00     0.034 C 
BRANCH  33  36
HETATM   36  C20 UNL     1      -6.200   9.102   7.927  1.00  0.00     0.256 C 
HETATM   37  O4  UNL     1      -6.721   9.809   7.084  1.00  0.00    -0.305 OA
ENDBRANCH  33  36
ENDBRANCH  24  29
ENDBRANCH  22  24
ENDBRANCH   1  20
TORSDOF 15
ENDMDL
MODEL 4
REMARK VINA RESULT: -6.823144343      1.317      1.737
REMARK  15 active torsions:
REMARK  status: ('A' for Active; 'I' for Inactive)
REMARK       I    between atoms: C2_2  and  N1_4 
REMARK    1  A    between atoms: N1_4  and  C3_6 
REMARK    2  A    between atoms: C3_6  and  C4_7 
REMARK    3  A    between atoms: C3_6  and  C7_10 
REMARK    4  A    between atoms: C7_10  and  C8_11 
REMARK    5  A    between atoms: C7_10  and  N4_30 
REMARK    6  A    between atoms: C8_11  and  C9_12 
REMARK       I    between atoms: C9_12  and  N2_14 
REMARK    7  A    between atoms: N2_14  and  C10_16 
REMARK    8  A    between atoms: C10_16  and  C11_17 
REMARK    9  A    between atoms: C10_16  and  C15_21 
REMARK   10  A    between atoms: C11_17  and  C12_18 
REMARK       I    between atoms: C15_21  and  N3_23 
REMARK   11  A    between atoms: C19_27  and  C20_28 
REMARK   12  A    between atoms: N4_30  and  C21_32 
REMARK   13  A    between atoms: C21_32  and  C22_33 
REMARK   14  A    between atoms: C21_32  and  C23_35 
REMARK   15  A    between atoms: C23_35  and  C24_36 
ROOT
HETATM    1  C8  UNL     1      -4.888   5.329  14.495  1.00  0.00     0.105 C 
ENDROOT
BRANCH   1   2
HETATM    2  C7  UNL     1      -4.234   6.337  13.597  1.00  0.00     0.057 C 
BRANCH   2   3
HETATM    3  C3  UNL     1      -2.786   6.382  13.509  1.00  0.00     0.042 C 
BRANCH   3   4
HETATM    4  N1  UNL     1      -2.232   6.025  12.240  1.00  0.00    -0.329 N 
HETATM    5  C2  UNL     1      -0.942   5.842  11.770  1.00  0.00     0.217 C 
HETATM    6  C1  UNL     1      -0.759   5.431  10.309  1.00  0.00     0.117 C 
HETATM    7  O1  UNL     1       0.117   5.972  12.398  1.00  0.00    -0.274 OA
ATOM      8  H1  UNL     1      -2.942   5.871  11.524  1.00  0.00     0.168 HD
ENDBRANCH   3   4
BRANCH   3   9
HETATM    9  C4  UNL     1      -2.127   7.562  14.180  1.00  0.00     0.030 C 
HETATM   10  C5  UNL     1      -2.671   7.810  15.558  1.00  0.00     0.016 C 
HETATM   11  C6  UNL     1      -2.039   8.825  13.437  1.00  0.00     0.016 C 
ENDBRANCH   3   9
ENDBRANCH   2   3
BRANCH   2  12
HETATM   12  N4  UNL     1      -5.062   6.626  12.477  1.00  0.00    -0.377 N 
ATOM     13  H4  UNL     1      -5.568   5.832  12.086  1.00  0.00     0.160 HD
BRANCH  12  14
HETATM   14  C21 UNL     1      -5.267   7.814  11.860  1.00  0.00     0.149 C 
BRANCH  14  15
HETATM   15  C22 UNL     1      -4.546   8.357  10.730  1.00  0.00     0.256 C 
HETATM   16  O5  UNL     1      -3.536   7.988  10.239  1.00  0.00    -0.305 OA
ENDBRANCH  14  15
BRANCH  14  17
HETATM   17  C23 UNL     1      -6.784   7.815  11.415  1.00  0.00     0.101 C 
BRANCH  17  18
HETATM   18  C24 UNL     1      -6.770   7.310  10.021  1.00  0.00     0.233 C 
HETATM   19  O6  UNL     1      -6.609   6.103   9.822  1.00  0.00    -0.307 OA
ENDBRANCH  17  18
ENDBRANCH  14  17
ENDBRANCH  12  14
ENDBRANCH   2  12
ENDBRANCH   1   2
BRANCH   1  20
HETATM   20  C9  UNL     1      -4.240   4.148  14.960  1.00  0.00     0.244 C 
HETATM   21  O2  UNL     1      -3.023   4.000  15.162  1.00  0.00    -0.269 OA
HETATM   22  N2  UNL     1      -5.037   2.985  15.235  1.00  0.00    -0.344 N 
ATOM     23  H2  UNL     1      -6.044   3.052  15.087  1.00  0.00     0.163 HD
BRANCH  22  24
HETATM   24  C10 UNL     1      -4.508   1.729  15.704  1.00  0.00     0.177 C 
BRANCH  24  25
HETATM   25  C11 UNL     1      -5.162   1.297  16.998  1.00  0.00     0.038 C 
BRANCH  25  26
HETATM   26  C12 UNL     1      -6.436   2.163  17.108  1.00  0.00    -0.020 C 
HETATM   27  C13 UNL     1      -6.476   2.740  18.516  1.00  0.00     0.009 C 
HETATM   28  C14 UNL     1      -7.602   1.193  17.013  1.00  0.00     0.009 C 
ENDBRANCH  25  26
ENDBRANCH  24  25
BRANCH  24  29
HETATM   29  C15 UNL     1      -4.463   0.711  14.656  1.00  0.00     0.243 C 
HETATM   30  O3  UNL     1      -4.735  -0.490  15.041  1.00  0.00    -0.271 OA
HETATM   31  N3  UNL     1      -4.170   0.855  13.298  1.00  0.00    -0.339 N 
HETATM   32  C16 UNL     1      -4.129  -0.244  12.309  1.00  0.00     0.127 C 
HETATM   33  C19 UNL     1      -3.862   2.005  12.475  1.00  0.00     0.148 C 
HETATM   34  C17 UNL     1      -5.035   0.332  11.236  1.00  0.00     0.022 C 
HETATM   35  C18 UNL     1      -4.655   1.776  11.179  1.00  0.00     0.034 C 
BRANCH  33  36
HETATM   36  C20 UNL     1      -2.436   1.943  12.074  1.00  0.00     0.256 C 
HETATM   37  O4  UNL     1      -1.608   2.782  12.376  1.00  0.00    -0.305 OA
ENDBRANCH  33  36
ENDBRANCH  24  29
ENDBRANCH  22  24
ENDBRANCH   1  20
TORSDOF 15
ENDMDL
MODEL 5
REMARK VINA RESULT: -6.807232329      1.330      2.528
REMARK  15 active torsions:
REMARK  status: ('A' for Active; 'I' for Inactive)
REMARK       I    between atoms: C2_2  and  N1_4 
REMARK    1  A    between atoms: N1_4  and  C3_6 
REMARK    2  A    between atoms: C3_6  and  C4_7 
REMARK    3  A    between atoms: C3_6  and  C7_10 
REMARK    4  A    between atoms: C7_10  and  C8_11 
REMARK    5  A    between atoms: C7_10  and  N4_30 
REMARK    6  A    between atoms: C8_11  and  C9_12 
REMARK       I    between atoms: C9_12  and  N2_14 
REMARK    7  A    between atoms: N2_14  and  C10_16 
REMARK    8  A    between atoms: C10_16  and  C11_17 
REMARK    9  A    between atoms: C10_16  and  C15_21 
REMARK   10  A    between atoms: C11_17  and  C12_18 
REMARK       I    between atoms: C15_21  and  N3_23 
REMARK   11  A    between atoms: C19_27  and  C20_28 
REMARK   12  A    between atoms: N4_30  and  C21_32 
REMARK   13  A    between atoms: C21_32  and  C22_33 
REMARK   14  A    between atoms: C21_32  and  C23_35 
REMARK   15  A    between atoms: C23_35  and  C24_36 
ROOT
HETATM    1  C8  UNL     1      -4.706   5.361  14.056  1.00  0.00     0.105 C 
ENDROOT
BRANCH   1   2
HETATM    2  C7  UNL     1      -4.141   6.027  12.836  1.00  0.00     0.057 C 
BRANCH   2   3
HETATM    3  C3  UNL     1      -4.088   7.476  12.772  1.00  0.00     0.042 C 
BRANCH   3   4
HETATM    4  N1  UNL     1      -2.866   8.071  13.217  1.00  0.00    -0.329 N 
HETATM    5  C2  UNL     1      -2.288   8.269  14.460  1.00  0.00     0.217 C 
HETATM    6  C1  UNL     1      -0.921   8.949  14.518  1.00  0.00     0.117 C 
HETATM    7  O1  UNL     1      -2.750   7.959  15.566  1.00  0.00    -0.274 OA
ATOM      8  H1  UNL     1      -2.296   8.428  12.450  1.00  0.00     0.168 HD
ENDBRANCH   3   4
BRANCH   3   9
HETATM    9  C4  UNL     1      -4.683   8.097  11.533  1.00  0.00     0.030 C 
HETATM   10  C5  UNL     1      -4.020   9.395  11.171  1.00  0.00     0.016 C 
HETATM   11  C6  UNL     1      -6.143   8.236  11.457  1.00  0.00     0.016 C 
ENDBRANCH   3   9
ENDBRANCH   2   3
BRANCH   2  12
HETATM   12  N4  UNL     1      -3.138   5.214  12.238  1.00  0.00    -0.377 N 
ATOM     13  H4  UNL     1      -2.499   4.754  12.886  1.00  0.00     0.160 HD
BRANCH  12  14
HETATM   14  C21 UNL     1      -2.918   4.970  10.924  1.00  0.00     0.149 C 
BRANCH  14  15
HETATM   15  C22 UNL     1      -3.898   4.921   9.861  1.00  0.00     0.256 C 
HETATM   16  O5  UNL     1      -3.755   4.640   8.722  1.00  0.00    -0.305 OA
ENDBRANCH  14  15
BRANCH  14  17
HETATM   17  C23 UNL     1      -1.859   6.046  10.454  1.00  0.00     0.101 C 
BRANCH  17  18
HETATM   18  C24 UNL     1      -0.616   5.697  11.182  1.00  0.00     0.233 C 
HETATM   19  O6  UNL     1      -0.444   6.139  12.322  1.00  0.00    -0.307 OA
ENDBRANCH  17  18
ENDBRANCH  14  17
ENDBRANCH  12  14
ENDBRANCH   2  12
ENDBRANCH   1   2
BRANCH   1  20
HETATM   20  C9  UNL     1      -4.125   4.212  14.668  1.00  0.00     0.244 C 
HETATM   21  O2  UNL     1      -2.925   4.043  14.939  1.00  0.00    -0.269 OA
HETATM   22  N2  UNL     1      -4.979   3.113  15.024  1.00  0.00    -0.344 N 
ATOM     23  H2  UNL     1      -5.976   3.200  14.824  1.00  0.00     0.163 HD
BRANCH  22  24
HETATM   24  C10 UNL     1      -4.521   1.895  15.643  1.00  0.00     0.177 C 
BRANCH  24  25
HETATM   25  C11 UNL     1      -5.227   1.636  16.955  1.00  0.00     0.038 C 
BRANCH  25  26
HETATM   26  C12 UNL     1      -6.642   2.227  16.769  1.00  0.00    -0.020 C 
HETATM   27  C13 UNL     1      -6.840   3.286  17.844  1.00  0.00     0.009 C 
HETATM   28  C14 UNL     1      -7.605   1.100  17.100  1.00  0.00     0.009 C 
ENDBRANCH  25  26
ENDBRANCH  24  25
BRANCH  24  29
HETATM   29  C15 UNL     1      -4.496   0.766  14.713  1.00  0.00     0.243 C 
HETATM   30  O3  UNL     1      -4.847  -0.369  15.213  1.00  0.00    -0.271 OA
HETATM   31  N3  UNL     1      -4.149   0.746  13.360  1.00  0.00    -0.339 N 
HETATM   32  C16 UNL     1      -4.135  -0.456  12.498  1.00  0.00     0.127 C 
HETATM   33  C19 UNL     1      -3.749   1.781  12.431  1.00  0.00     0.148 C 
HETATM   34  C17 UNL     1      -4.970   0.044  11.333  1.00  0.00     0.022 C 
HETATM   35  C18 UNL     1      -4.509   1.452  11.136  1.00  0.00     0.034 C 
BRANCH  33  36
HETATM   36  C20 UNL     1      -2.316   1.602  12.097  1.00  0.00     0.256 C 
HETATM   37  O4  UNL     1      -1.471   2.466  12.241  1.00  0.00    -0.305 OA
ENDBRANCH  33  36
ENDBRANCH  24  29
ENDBRANCH  22  24
ENDBRANCH   1  20
TORSDOF 15
ENDMDL
