MODEL 1
REMARK VINA RESULT: -7.781939081      0.000      0.000
REMARK  17 active torsions:
REMARK  status: ('A' for Active; 'I' for Inactive)
REMARK    1  A    between atoms: C2_2  and  C3_3 
REMARK    2  A    between atoms: C3_3  and  N1_4 
REMARK    3  A    between atoms: N1_4  and  C4_5 
REMARK       I    between atoms: N1_4  and  C5_7 
REMARK    4  A    between atoms: C5_7  and  C6_9 
REMARK    5  A    between atoms: C6_9  and  C7_10 
REMARK    6  A    between atoms: C6_9  and  N2_17 
REMARK    7  A    between atoms: C7_10  and  C8_11 
REMARK    8  A    between atoms: C8_11  and  C9_12 
REMARK    9  A    between atoms: C9_12  and  O3_13 
REMARK   10  A    between atoms: C9_12  and  O4_15 
REMARK       I    between atoms: N2_17  and  C11_19 
REMARK   11  A    between atoms: C11_19  and  C12_21 
REMARK   12  A    between atoms: C12_21  and  N3_22 
REMARK       I    between atoms: N3_22  and  C13_24 
REMARK   13  A    between atoms: C13_24  and  C14_26 
REMARK   14  A    between atoms: C14_26  and  N4_27 
REMARK   15  A    between atoms: C14_26  and  C17_32 
REMARK   16  A    between atoms: N4_27  and  C15_28 
REMARK   17  A    between atoms: C15_28  and  O7_30 
ROOT
HETATM    1  N2  UNL     1      -3.951   4.304  14.838  1.00  0.00    -0.346 N 
ATOM      2  H2  UNL     1      -4.594   4.986  14.438  1.00  0.00     0.163 HD
HETATM    3  C11 UNL     1      -2.692   4.923  14.717  1.00  0.00     0.246 C 
HETATM    4  O5  UNL     1      -1.641   4.338  15.083  1.00  0.00    -0.271 OA
ENDROOT
BRANCH   3   5
HETATM    5  C12 UNL     1      -2.775   6.281  14.144  1.00  0.00     0.114 C 
HETATM    6  C20 UNL     1      -1.318   6.783  14.061  1.00  0.00     0.041 C 
HETATM    7  C21 UNL     1      -1.254   8.119  14.717  1.00  0.00     0.003 C 
HETATM    8  C22 UNL     1      -2.551   8.346  15.494  1.00  0.00     0.003 C 
HETATM    9  C23 UNL     1      -3.412   7.122  15.303  1.00  0.00     0.041 C 
BRANCH   5  10
HETATM   10  N3  UNL     1      -3.394   6.658  12.960  1.00  0.00    -0.337 N 
HETATM   11  C13 UNL     1      -4.710   6.656  12.524  1.00  0.00     0.279 C 
HETATM   12  O6  UNL     1      -5.602   6.152  13.293  1.00  0.00    -0.265 OA
ATOM     13  H3  UNL     1      -2.741   7.012  12.261  1.00  0.00     0.164 HD
BRANCH  11  14
HETATM   14  C14 UNL     1      -5.245   7.233  11.229  1.00  0.00     0.158 C 
BRANCH  14  15
HETATM   15  N4  UNL     1      -4.894   6.347  10.191  1.00  0.00    -0.384 NA
BRANCH  15  16
HETATM   16  C15 UNL     1      -4.556   5.492   9.199  1.00  0.00     0.186 C 
HETATM   17  C16 UNL     1      -4.436   5.747   7.695  1.00  0.00     0.114 C 
BRANCH  16  18
HETATM   18  O7  UNL     1      -4.259   4.218   9.377  1.00  0.00    -0.339 OA
ATOM     19  H7  UNL     1      -3.919   3.645   8.700  1.00  0.00     0.220 HD
ENDBRANCH  16  18
ENDBRANCH  15  16
ENDBRANCH  14  15
BRANCH  14  20
HETATM   20  C17 UNL     1      -6.413   8.031  11.152  1.00  0.00     0.048 C 
HETATM   21  C18 UNL     1      -5.983   9.519  10.959  1.00  0.00     0.017 C 
HETATM   22  C19 UNL     1      -7.582   7.839  10.282  1.00  0.00     0.017 C 
ENDBRANCH  14  20
ENDBRANCH  11  14
ENDBRANCH   5  10
ENDBRANCH   3   5
BRANCH   1  23
HETATM   23  C6  UNL     1      -4.766   3.269  15.210  1.00  0.00     0.177 C 
BRANCH  23  24
HETATM   24  C5  UNL     1      -4.489   2.158  16.060  1.00  0.00     0.249 C 
HETATM   25  N1  UNL     1      -5.661   1.517  16.651  1.00  0.00    -0.290 N 
HETATM   26  O2  UNL     1      -3.342   1.660  16.329  1.00  0.00    -0.271 OA
BRANCH  25  27
HETATM   27  C3  UNL     1      -6.954   2.164  16.756  1.00  0.00     0.160 C 
BRANCH  27  28
HETATM   28  C2  UNL     1      -6.836   3.224  17.836  1.00  0.00    -0.017 C 
HETATM   29  C1  UNL     1      -6.477   2.564  19.007  1.00  0.00     0.008 C 
ENDBRANCH  27  28
ENDBRANCH  25  27
BRANCH  25  30
HETATM   30  C4  UNL     1      -5.583   0.104  16.738  1.00  0.00     0.358 C 
HETATM   31  O1  UNL     1      -6.040  -0.577  17.651  1.00  0.00    -0.283 OA
ENDBRANCH  25  30
ENDBRANCH  23  24
BRANCH  23  32
HETATM   32  C7  UNL     1      -5.333   2.654  13.893  1.00  0.00     0.039 C 
BRANCH  32  33
HETATM   33  C8  UNL     1      -4.296   2.130  12.996  1.00  0.00     0.063 C 
BRANCH  33  34
HETATM   34  C9  UNL     1      -4.873   1.454  11.816  1.00  0.00     0.256 C 
BRANCH  34  35
HETATM   35  O3  UNL     1      -5.760   2.116  11.121  1.00  0.00    -0.371 OA
ATOM     36  H3  UNL     1      -5.448   2.592  10.360  1.00  0.00     0.212 HD
ENDBRANCH  34  35
BRANCH  34  37
HETATM   37  O4  UNL     1      -4.636   0.188  11.351  1.00  0.00    -0.366 OA
HETATM   38  C10 UNL     1      -4.211  -0.859  12.151  1.00  0.00     0.204 C 
ENDBRANCH  34  37
ENDBRANCH  33  34
ENDBRANCH  32  33
ENDBRANCH  23  32
ENDBRANCH   1  23
TORSDOF 17
ENDMDL
MODEL 2
REMARK VINA RESULT: -7.702155767      1.728      2.286
REMARK  17 active torsions:
REMARK  status: ('A' for Active; 'I' for Inactive)
REMARK    1  A    between atoms: C2_2  and  C3_3 
REMARK    2  A    between atoms: C3_3  and  N1_4 
REMARK    3  A    between atoms: N1_4  and  C4_5 
REMARK       I    between atoms: N1_4  and  C5_7 
REMARK    4  A    between atoms: C5_7  and  C6_9 
REMARK    5  A    between atoms: C6_9  and  C7_10 
REMARK    6  A    between atoms: C6_9  and  N2_17 
REMARK    7  A    between atoms: C7_10  and  C8_11 
REMARK    8  A    between atoms: C8_11  and  C9_12 
REMARK    9  A    between atoms: C9_12  and  O3_13 
REMARK   10  A    between atoms: C9_12  and  O4_15 
REMARK       I    between atoms: N2_17  and  C11_19 
REMARK   11  A    between atoms: C11_19  and  C12_21 
REMARK   12  A    between atoms: C12_21  and  N3_22 
REMARK       I    between atoms: N3_22  and  C13_24 
REMARK   13  A    between atoms: C13_24  and  C14_26 
REMARK   14  A    between atoms: C14_26  and  N4_27 
REMARK   15  A    between atoms: C14_26  and  C17_32 
REMARK   16  A    between atoms: N4_27  and  C15_28 
REMARK   17  A    between atoms: C15_28  and  O7_30 
ROOT
HETATM    1  N2  UNL     1      -3.473   3.407  13.837  1.00  0.00    -0.346 N 
ATOM      2  H2  UNL     1      -3.725   3.422  12.849  1.00  0.00     0.163 HD
HETATM    3  C11 UNL     1      -2.406   4.323  13.921  1.00  0.00     0.246 C 
HETATM    4  O5  UNL     1      -1.814   4.532  15.010  1.00  0.00    -0.271 OA
ENDROOT
BRANCH   3   5
HETATM    5  C12 UNL     1      -2.107   4.973  12.631  1.00  0.00     0.114 C 
HETATM    6  C20 UNL     1      -1.776   3.823  11.657  1.00  0.00     0.041 C 
HETATM    7  C21 UNL     1      -0.473   4.132  11.005  1.00  0.00     0.003 C 
HETATM    8  C22 UNL     1       0.193   5.283  11.762  1.00  0.00     0.003 C 
HETATM    9  C23 UNL     1      -0.728   5.672  12.892  1.00  0.00     0.041 C 
BRANCH   5  10
HETATM   10  N3  UNL     1      -2.908   5.868  11.934  1.00  0.00    -0.337 N 
HETATM   11  C13 UNL     1      -4.242   5.870  11.560  1.00  0.00     0.279 C 
HETATM   12  O6  UNL     1      -4.943   4.828  11.814  1.00  0.00    -0.265 OA
ATOM     13  H3  UNL     1      -2.406   6.704  11.634  1.00  0.00     0.164 HD
BRANCH  11  14
HETATM   14  C14 UNL     1      -5.007   7.002  10.906  1.00  0.00     0.158 C 
BRANCH  14  15
HETATM   15  N4  UNL     1      -5.338   6.594   9.600  1.00  0.00    -0.384 NA
BRANCH  15  16
HETATM   16  C15 UNL     1      -5.650   6.200   8.343  1.00  0.00     0.186 C 
HETATM   17  C16 UNL     1      -6.831   6.610   7.461  1.00  0.00     0.114 C 
BRANCH  16  18
HETATM   18  O7  UNL     1      -4.944   5.343   7.630  1.00  0.00    -0.339 OA
ATOM     19  H7  UNL     1      -4.529   5.546   6.800  1.00  0.00     0.220 HD
ENDBRANCH  16  18
ENDBRANCH  15  16
ENDBRANCH  14  15
BRANCH  14  20
HETATM   20  C17 UNL     1      -5.826   7.910  11.624  1.00  0.00     0.048 C 
HETATM   21  C18 UNL     1      -5.748   9.304  10.927  1.00  0.00     0.017 C 
HETATM   22  C19 UNL     1      -7.231   7.739  12.017  1.00  0.00     0.017 C 
ENDBRANCH  14  20
ENDBRANCH  11  14
ENDBRANCH   5  10
ENDBRANCH   3   5
BRANCH   1  23
HETATM   23  C6  UNL     1      -4.349   2.508  14.381  1.00  0.00     0.177 C 
BRANCH  23  24
HETATM   24  C5  UNL     1      -4.476   2.071  15.733  1.00  0.00     0.249 C 
HETATM   25  N1  UNL     1      -5.787   2.293  16.340  1.00  0.00    -0.290 N 
HETATM   26  O2  UNL     1      -3.585   1.492  16.443  1.00  0.00    -0.271 OA
BRANCH  25  27
HETATM   27  C3  UNL     1      -6.751   3.245  15.827  1.00  0.00     0.160 C 
BRANCH  27  28
HETATM   28  C2  UNL     1      -6.272   4.628  16.232  1.00  0.00    -0.017 C 
HETATM   29  C1  UNL     1      -6.206   5.386  15.068  1.00  0.00     0.008 C 
ENDBRANCH  27  28
ENDBRANCH  25  27
BRANCH  25  30
HETATM   30  C4  UNL     1      -6.228   1.251  17.194  1.00  0.00     0.358 C 
HETATM   31  O1  UNL     1      -7.040   0.382  16.892  1.00  0.00    -0.283 OA
ENDBRANCH  25  30
ENDBRANCH  23  24
BRANCH  23  32
HETATM   32  C7  UNL     1      -4.235   1.204  13.533  1.00  0.00     0.039 C 
BRANCH  32  33
HETATM   33  C8  UNL     1      -4.362   1.431  12.088  1.00  0.00     0.063 C 
BRANCH  33  34
HETATM   34  C9  UNL     1      -4.633   0.180  11.351  1.00  0.00     0.256 C 
BRANCH  34  35
HETATM   35  O3  UNL     1      -5.018   0.290  10.107  1.00  0.00    -0.371 OA
ATOM     36  H3  UNL     1      -4.919  -0.475   9.552  1.00  0.00     0.212 HD
ENDBRANCH  34  35
BRANCH  34  37
HETATM   37  O4  UNL     1      -4.572  -1.112  11.802  1.00  0.00    -0.366 OA
HETATM   38  C10 UNL     1      -3.441  -1.905  11.715  1.00  0.00     0.204 C 
ENDBRANCH  34  37
ENDBRANCH  33  34
ENDBRANCH  32  33
ENDBRANCH  23  32
ENDBRANCH   1  23
TORSDOF 17
ENDMDL
MODEL 3
REMARK VINA RESULT: -7.586610183      1.143      1.439
REMARK  17 active torsions:
REMARK  status: ('A' for Active; 'I' for Inactive)
REMARK    1  A    between atoms: C2_2  and  C3_3 
REMARK    2  A    between atoms: C3_3  and  N1_4 
REMARK    3  A    between atoms: N1_4  and  C4_5 
REMARK       I    between atoms: N1_4  and  C5_7 
REMARK    4  A    between atoms: C5_7  and  C6_9 
REMARK    5  A    between atoms: C6_9  and  C7_10 
REMARK    6  A    between atoms: C6_9  and  N2_17 
REMARK    7  A    between atoms: C7_10  and  C8_11 
REMARK    8  A    between atoms: C8_11  and  C9_12 
REMARK    9  A    between atoms: C9_12  and  O3_13 
REMARK   10  A    between atoms: C9_12  and  O4_15 
REMARK       I    between atoms: N2_17  and  C11_19 
REMARK   11  A    between atoms: C11_19  and  C12_21 
REMARK   12  A    between atoms: C12_21  and  N3_22 
REMARK       I    between atoms: N3_22  and  C13_24 
REMARK   13  A    between atoms: C13_24  and  C14_26 
REMARK   14  A    between atoms: C14_26  and  N4_27 
REMARK   15  A    between atoms: C14_26  and  C17_32 
REMARK   16  A    between atoms: N4_27  and  C15_28 
REMARK   17  A    between atoms: C15_28  and  O7_30 
ROOT
HETATM    1  N2  UNL     1      -3.814   3.988  14.586  1.00  0.00    -0.346 N 
ATOM      2  H2  UNL     1      -4.518   4.648  14.257  1.00  0.00     0.163 HD
HETATM    3  C11 UNL     1      -2.606   4.702  14.461  1.00  0.00     0.246 C 
HETATM    4  O5  UNL     1      -1.504   4.170  14.747  1.00  0.00    -0.271 OA
ENDROOT
BRANCH   3   5
HETATM    5  C12 UNL     1      -2.805   6.085  13.986  1.00  0.00     0.114 C 
HETATM    6  C20 UNL     1      -1.405   6.733  14.008  1.00  0.00     0.041 C 
HETATM    7  C21 UNL     1      -1.503   8.014  14.763  1.00  0.00     0.003 C 
HETATM    8  C22 UNL     1      -2.846   8.050  15.494  1.00  0.00     0.003 C 
HETATM    9  C23 UNL     1      -3.570   6.766  15.173  1.00  0.00     0.041 C 
BRANCH   5  10
HETATM   10  N3  UNL     1      -3.414   6.489  12.806  1.00  0.00    -0.337 N 
HETATM   11  C13 UNL     1      -4.712   6.420  12.324  1.00  0.00     0.279 C 
HETATM   12  O6  UNL     1      -5.587   5.805  13.028  1.00  0.00    -0.265 OA
ATOM     13  H3  UNL     1      -2.767   6.933  12.153  1.00  0.00     0.164 HD
BRANCH  11  14
HETATM   14  C14 UNL     1      -5.247   7.037  11.047  1.00  0.00     0.158 C 
BRANCH  14  15
HETATM   15  N4  UNL     1      -4.621   6.388   9.966  1.00  0.00    -0.384 NA
BRANCH  15  16
HETATM   16  C15 UNL     1      -4.013   5.767   8.928  1.00  0.00     0.186 C 
HETATM   17  C16 UNL     1      -2.886   6.264   8.023  1.00  0.00     0.114 C 
BRANCH  16  18
HETATM   18  O7  UNL     1      -4.316   4.555   8.500  1.00  0.00    -0.339 OA
ATOM     19  H7  UNL     1      -3.960   4.157   7.715  1.00  0.00     0.220 HD
ENDBRANCH  16  18
ENDBRANCH  15  16
ENDBRANCH  14  15
BRANCH  14  20
HETATM   20  C17 UNL     1      -6.553   7.576  10.927  1.00  0.00     0.048 C 
HETATM   21  C18 UNL     1      -6.499   9.090  11.302  1.00  0.00     0.017 C 
HETATM   22  C19 UNL     1      -7.465   7.482   9.780  1.00  0.00     0.017 C 
ENDBRANCH  14  20
ENDBRANCH  11  14
ENDBRANCH   5  10
ENDBRANCH   3   5
BRANCH   1  23
HETATM   23  C6  UNL     1      -4.540   2.876  14.915  1.00  0.00     0.177 C 
BRANCH  23  24
HETATM   24  C5  UNL     1      -4.489   2.077  16.096  1.00  0.00     0.249 C 
HETATM   25  N1  UNL     1      -5.776   1.838  16.743  1.00  0.00    -0.290 N 
HETATM   26  O2  UNL     1      -3.454   1.538  16.617  1.00  0.00    -0.271 OA
BRANCH  25  27
HETATM   27  C3  UNL     1      -6.949   2.658  16.513  1.00  0.00     0.160 C 
BRANCH  27  28
HETATM   28  C2  UNL     1      -6.855   3.844  17.456  1.00  0.00    -0.017 C 
HETATM   29  C1  UNL     1      -6.815   4.985  16.662  1.00  0.00     0.008 C 
ENDBRANCH  27  28
ENDBRANCH  25  27
BRANCH  25  30
HETATM   30  C4  UNL     1      -5.936   0.535  17.280  1.00  0.00     0.358 C 
HETATM   31  O1  UNL     1      -5.727  -0.512  16.675  1.00  0.00    -0.283 OA
ENDBRANCH  25  30
ENDBRANCH  23  24
BRANCH  23  32
HETATM   32  C7  UNL     1      -4.385   1.874  13.729  1.00  0.00     0.039 C 
BRANCH  32  33
HETATM   33  C8  UNL     1      -4.901   2.389  12.455  1.00  0.00     0.063 C 
BRANCH  33  34
HETATM   34  C9  UNL     1      -3.834   2.543  11.445  1.00  0.00     0.256 C 
BRANCH  34  35
HETATM   35  O3  UNL     1      -4.166   2.369  10.193  1.00  0.00    -0.371 OA
ATOM     36  H3  UNL     1      -3.940   1.536   9.795  1.00  0.00     0.212 HD
ENDBRANCH  34  35
BRANCH  34  37
HETATM   37  O4  UNL     1      -2.505   2.813  11.635  1.00  0.00    -0.366 OA
HETATM   38  C10 UNL     1      -1.859   3.913  11.096  1.00  0.00     0.204 C 
ENDBRANCH  34  37
ENDBRANCH  33  34
ENDBRANCH  32  33
ENDBRANCH  23  32
ENDBRANCH   1  23
TORSDOF 17
ENDMDL
MODEL 4
REMARK VINA RESULT: -7.401186344      1.770      2.782
REMARK  17 active torsions:
REMARK  status: ('A' for Active; 'I' for Inactive)
REMARK    1  A    between atoms: C2_2  and  C3_3 
REMARK    2  A    between atoms: C3_3  and  N1_4 
REMARK    3  A    between atoms: N1_4  and  C4_5 
REMARK       I    between atoms: N1_4  and  C5_7 
REMARK    4  A    between atoms: C5_7  and  C6_9 
REMARK    5  A    between atoms: C6_9  and  C7_10 
REMARK    6  A    between atoms: C6_9  and  N2_17 
REMARK    7  A    between atoms: C7_10  and  C8_11 
REMARK    8  A    between atoms: C8_11  and  C9_12 
REMARK    9  A    between atoms: C9_12  and  O3_13 
REMARK   10  A    between atoms: C9_12  and  O4_15 
REMARK       I    between atoms: N2_17  and  C11_19 
REMARK   11  A    between atoms: C11_19  and  C12_21 
REMARK   12  A    between atoms: C12_21  and  N3_22 
REMARK       I    between atoms: N3_22  and  C13_24 
REMARK   13  A    between atoms: C13_24  and  C14_26 
REMARK   14  A    between atoms: C14_26  and  N4_27 
REMARK   15  A    between atoms: C14_26  and  C17_32 
REMARK   16  A    between atoms: N4_27  and  C15_28 
REMARK   17  A    between atoms: C15_28  and  O7_30 
ROOT
HETATM    1  N2  UNL     1      -4.418   3.469  14.181  1.00  0.00    -0.346 N 
ATOM      2  H2  UNL     1      -3.437   3.336  13.936  1.00  0.00     0.163 HD
HETATM    3  C11 UNL     1      -4.686   4.790  13.771  1.00  0.00     0.246 C 
HETATM    4  O5  UNL     1      -5.815   5.312  13.957  1.00  0.00    -0.271 OA
ENDROOT
BRANCH   3   5
HETATM    5  C12 UNL     1      -3.528   5.434  13.120  1.00  0.00     0.114 C 
HETATM    6  C20 UNL     1      -2.368   5.310  14.129  1.00  0.00     0.041 C 
HETATM    7  C21 UNL     1      -1.777   6.665  14.318  1.00  0.00     0.003 C 
HETATM    8  C22 UNL     1      -2.722   7.701  13.708  1.00  0.00     0.003 C 
HETATM    9  C23 UNL     1      -3.905   6.955  13.141  1.00  0.00     0.041 C 
BRANCH   5  10
HETATM   10  N3  UNL     1      -3.001   5.147  11.868  1.00  0.00    -0.337 N 
HETATM   11  C13 UNL     1      -3.563   4.866  10.633  1.00  0.00     0.279 C 
HETATM   12  O6  UNL     1      -4.838   4.763  10.557  1.00  0.00    -0.265 OA
ATOM     13  H3  UNL     1      -1.981   5.143  11.855  1.00  0.00     0.164 HD
BRANCH  11  14
HETATM   14  C14 UNL     1      -2.836   4.703   9.313  1.00  0.00     0.158 C 
BRANCH  14  15
HETATM   15  N4  UNL     1      -3.751   4.998   8.284  1.00  0.00    -0.384 NA
BRANCH  15  16
HETATM   16  C15 UNL     1      -4.634   5.284   7.299  1.00  0.00     0.186 C 
HETATM   17  C16 UNL     1      -5.244   6.628   6.900  1.00  0.00     0.114 C 
BRANCH  16  18
HETATM   18  O7  UNL     1      -5.147   4.392   6.472  1.00  0.00    -0.339 OA
ATOM     19  H7  UNL     1      -5.344   4.556   5.557  1.00  0.00     0.220 HD
ENDBRANCH  16  18
ENDBRANCH  15  16
ENDBRANCH  14  15
BRANCH  14  20
HETATM   20  C17 UNL     1      -1.447   4.932   9.153  1.00  0.00     0.048 C 
HETATM   21  C18 UNL     1      -1.056   4.589   7.681  1.00  0.00     0.017 C 
HETATM   22  C19 UNL     1      -0.687   6.142   9.494  1.00  0.00     0.017 C 
ENDBRANCH  14  20
ENDBRANCH  11  14
ENDBRANCH   5  10
ENDBRANCH   3   5
BRANCH   1  23
HETATM   23  C6  UNL     1      -4.780   2.271  14.733  1.00  0.00     0.177 C 
BRANCH  23  24
HETATM   24  C5  UNL     1      -4.576   1.787  16.060  1.00  0.00     0.249 C 
HETATM   25  N1  UNL     1      -5.781   1.691  16.880  1.00  0.00    -0.290 N 
HETATM   26  O2  UNL     1      -3.472   1.411  16.582  1.00  0.00    -0.271 OA
BRANCH  25  27
HETATM   27  C3  UNL     1      -7.005   2.408  16.585  1.00  0.00     0.160 C 
BRANCH  27  28
HETATM   28  C2  UNL     1      -6.781   3.856  16.987  1.00  0.00    -0.017 C 
HETATM   29  C1  UNL     1      -7.138   3.958  18.327  1.00  0.00     0.008 C 
ENDBRANCH  27  28
ENDBRANCH  25  27
BRANCH  25  30
HETATM   30  C4  UNL     1      -5.830   0.557  17.730  1.00  0.00     0.358 C 
HETATM   31  O1  UNL     1      -6.098  -0.586  17.373  1.00  0.00    -0.283 OA
ENDBRANCH  25  30
ENDBRANCH  23  24
BRANCH  23  32
HETATM   32  C7  UNL     1      -4.216   1.159  13.795  1.00  0.00     0.039 C 
BRANCH  32  33
HETATM   33  C8  UNL     1      -3.890   1.640  12.447  1.00  0.00     0.063 C 
BRANCH  33  34
HETATM   34  C9  UNL     1      -4.859   1.164  11.438  1.00  0.00     0.256 C 
BRANCH  34  35
HETATM   35  O3  UNL     1      -5.764   2.014  11.031  1.00  0.00    -0.371 OA
ATOM     36  H3  UNL     1      -5.491   2.916  10.913  1.00  0.00     0.212 HD
ENDBRANCH  34  35
BRANCH  34  37
HETATM   37  O4  UNL     1      -4.974  -0.081  10.878  1.00  0.00    -0.366 OA
HETATM   38  C10 UNL     1      -4.538  -1.243  11.490  1.00  0.00     0.204 C 
ENDBRANCH  34  37
ENDBRANCH  33  34
ENDBRANCH  32  33
ENDBRANCH  23  32
ENDBRANCH   1  23
TORSDOF 17
ENDMDL
MODEL 5
REMARK VINA RESULT: -7.371657143      1.883      2.987
REMARK  17 active torsions:
REMARK  status: ('A' for Active; 'I' for Inactive)
REMARK    1  A    between atoms: C2_2  and  C3_3 
REMARK    2  A    between atoms: C3_3  and  N1_4 
REMARK    3  A    between atoms: N1_4  and  C4_5 
REMARK       I    between atoms: N1_4  and  C5_7 
REMARK    4  A    between atoms: C5_7  and  C6_9 
REMARK    5  A    between atoms: C6_9  and  C7_10 
REMARK    6  A    between atoms: C6_9  and  N2_17 
REMARK    7  A    between atoms: C7_10  and  C8_11 
REMARK    8  A    between atoms: C8_11  and  C9_12 
REMARK    9  A    between atoms: C9_12  and  O3_13 
REMARK   10  A    between atoms: C9_12  and  O4_15 
REMARK       I    between atoms: N2_17  and  C11_19 
REMARK   11  A    between atoms: C11_19  and  C12_21 
REMARK   12  A    between atoms: C12_21  and  N3_22 
REMARK       I    between atoms: N3_22  and  C13_24 
REMARK   13  A    between atoms: C13_24  and  C14_26 
REMARK   14  A    between atoms: C14_26  and  N4_27 
REMARK   15  A    between atoms: C14_26  and  C17_32 
REMARK   16  A    between atoms: N4_27  and  C15_28 
REMARK   17  A    between atoms: C15_28  and  O7_30 
ROOT
HETATM    1  N2  UNL     1      -3.486   3.275  13.740  1.00  0.00    -0.346 N 
ATOM      2  H2  UNL     1      -3.486   2.975  12.765  1.00  0.00     0.163 HD
HETATM    3  C11 UNL     1      -2.578   4.351  13.756  1.00  0.00     0.246 C 
HETATM    4  O5  UNL     1      -2.299   4.950  14.825  1.00  0.00    -0.271 OA
ENDROOT
BRANCH   3   5
HETATM    5  C12 UNL     1      -2.041   4.668  12.418  1.00  0.00     0.114 C 
HETATM    6  C20 UNL     1      -1.161   3.460  12.032  1.00  0.00     0.041 C 
HETATM    7  C21 UNL     1       0.174   3.976  11.619  1.00  0.00     0.003 C 
HETATM    8  C22 UNL     1       0.279   5.445  12.031  1.00  0.00     0.003 C 
HETATM    9  C23 UNL     1      -1.017   5.820  12.705  1.00  0.00     0.041 C 
BRANCH   5  10
HETATM   10  N3  UNL     1      -2.761   5.016  11.284  1.00  0.00    -0.337 N 
HETATM   11  C13 UNL     1      -4.103   5.259  11.037  1.00  0.00     0.279 C 
HETATM   12  O6  UNL     1      -4.936   5.080  11.994  1.00  0.00    -0.265 OA
ATOM     13  H3  UNL     1      -2.176   5.115  10.453  1.00  0.00     0.164 HD
BRANCH  11  14
HETATM   14  C14 UNL     1      -4.719   5.767   9.749  1.00  0.00     0.158 C 
BRANCH  14  15
HETATM   15  N4  UNL     1      -5.806   6.593  10.094  1.00  0.00    -0.384 NA
BRANCH  15  16
HETATM   16  C15 UNL     1      -6.851   7.384  10.430  1.00  0.00     0.186 C 
HETATM   17  C16 UNL     1      -7.265   7.915  11.803  1.00  0.00     0.114 C 
BRANCH  16  18
HETATM   18  O7  UNL     1      -7.741   7.853   9.575  1.00  0.00    -0.339 OA
ATOM     19  H7  UNL     1      -8.374   8.532   9.776  1.00  0.00     0.220 HD
ENDBRANCH  16  18
ENDBRANCH  15  16
ENDBRANCH  14  15
BRANCH  14  20
HETATM   20  C17 UNL     1      -3.979   5.981   8.560  1.00  0.00     0.048 C 
HETATM   21  C18 UNL     1      -4.958   5.900   7.347  1.00  0.00     0.017 C 
HETATM   22  C19 UNL     1      -3.060   7.086   8.256  1.00  0.00     0.017 C 
ENDBRANCH  14  20
ENDBRANCH  11  14
ENDBRANCH   5  10
ENDBRANCH   3   5
BRANCH   1  23
HETATM   23  C6  UNL     1      -4.368   2.419  14.342  1.00  0.00     0.177 C 
BRANCH  23  24
HETATM   24  C5  UNL     1      -4.468   2.038  15.712  1.00  0.00     0.249 C 
HETATM   25  N1  UNL     1      -5.762   2.299  16.339  1.00  0.00    -0.290 N 
HETATM   26  O2  UNL     1      -3.567   1.478  16.425  1.00  0.00    -0.271 OA
BRANCH  25  27
HETATM   27  C3  UNL     1      -6.729   3.240  15.809  1.00  0.00     0.160 C 
BRANCH  27  28
HETATM   28  C2  UNL     1      -6.346   4.613  16.331  1.00  0.00    -0.017 C 
HETATM   29  C1  UNL     1      -6.116   5.415  15.218  1.00  0.00     0.008 C 
ENDBRANCH  27  28
ENDBRANCH  25  27
BRANCH  25  30
HETATM   30  C4  UNL     1      -6.194   1.296  17.244  1.00  0.00     0.358 C 
HETATM   31  O1  UNL     1      -6.841   0.298  16.942  1.00  0.00    -0.283 OA
ENDBRANCH  25  30
ENDBRANCH  23  24
BRANCH  23  32
HETATM   32  C7  UNL     1      -4.307   1.081  13.542  1.00  0.00     0.039 C 
BRANCH  32  33
HETATM   33  C8  UNL     1      -4.111   1.268  12.099  1.00  0.00     0.063 C 
BRANCH  33  34
HETATM   34  C9  UNL     1      -4.547   0.089  11.323  1.00  0.00     0.256 C 
BRANCH  34  35
HETATM   35  O3  UNL     1      -5.036   0.305  10.130  1.00  0.00    -0.371 OA
ATOM     36  H3  UNL     1      -4.534   0.866   9.550  1.00  0.00     0.212 HD
ENDBRANCH  34  35
BRANCH  34  37
HETATM   37  O4  UNL     1      -4.547  -1.230  11.692  1.00  0.00    -0.366 OA
HETATM   38  C10 UNL     1      -3.412  -2.022  11.719  1.00  0.00     0.204 C 
ENDBRANCH  34  37
ENDBRANCH  33  34
ENDBRANCH  32  33
ENDBRANCH  23  32
ENDBRANCH   1  23
TORSDOF 17
ENDMDL
