MODEL 1
REMARK VINA RESULT: -6.204365312      0.000      0.000
REMARK  8 active torsions:
REMARK  status: ('A' for Active; 'I' for Inactive)
REMARK    1  A    between atoms: C2_2  and  C3_3 
REMARK    2  A    between atoms: C3_3  and  C4_4 
REMARK    3  A    between atoms: C4_4  and  C5_5 
REMARK    4  A    between atoms: C5_5  and  C6_6 
REMARK    5  A    between atoms: C9_9  and  O1_10 
REMARK    6  A    between atoms: C10_12  and  C11_13 
REMARK    7  A    between atoms: C11_13  and  O2_16 
REMARK    8  A    between atoms: C14_18  and  O3_19 
ROOT
HETATM    1  C6  UNL     1      -2.374  30.338  -7.802  1.00  0.00     0.015 C 
HETATM    2  C7  UNL     1      -2.378  31.841  -7.750  1.00  0.00     0.010 C 
HETATM    3  C8  UNL     1      -3.187  32.456  -6.675  1.00  0.00     0.033 C 
HETATM    4  C9  UNL     1      -3.439  31.456  -5.538  1.00  0.00     0.127 C 
HETATM    5  C10 UNL     1      -2.135  30.723  -5.343  1.00  0.00     0.077 C 
HETATM    6  C14 UNL     1      -2.045  29.707  -6.469  1.00  0.00     0.131 C 
ENDROOT
BRANCH   1   7
HETATM    7  C5  UNL     1      -1.341  29.940  -8.836  1.00  0.00     0.007 C 
BRANCH   7   8
HETATM    8  C4  UNL     1      -1.033  31.038  -9.799  1.00  0.00     0.000 C 
BRANCH   8   9
HETATM    9  C3  UNL     1      -1.584  30.659 -11.157  1.00  0.00    -0.000 C 
BRANCH   9  10
HETATM   10  C2  UNL     1      -2.975  31.150 -11.400  1.00  0.00    -0.005 C 
HETATM   11  C1  UNL     1      -3.710  30.016 -12.125  1.00  0.00     0.005 C 
ENDBRANCH   9  10
ENDBRANCH   8   9
ENDBRANCH   7   8
ENDBRANCH   1   7
BRANCH   6  12
HETATM   12  O3  UNL     1      -3.027  28.746  -6.232  1.00  0.00    -0.395 OA
ATOM     13  H3  UNL     1      -2.929  28.479  -5.325  1.00  0.00     0.210 HD
ENDBRANCH   6  12
BRANCH   5  14
HETATM   14  C11 UNL     1      -2.069  30.089  -3.995  1.00  0.00     0.059 C 
HETATM   15  C12 UNL     1      -3.401  29.774  -3.402  1.00  0.00     0.046 C 
HETATM   16  C13 UNL     1      -1.301  30.950  -2.995  1.00  0.00     0.046 C 
BRANCH  14  17
HETATM   17  O2  UNL     1      -1.318  28.898  -4.134  1.00  0.00    -0.390 OA
ATOM     18  H2  UNL     1      -1.911  28.232  -4.461  1.00  0.00     0.210 HD
ENDBRANCH  14  17
ENDBRANCH   5  14
BRANCH   4  19
HETATM   19  O1  UNL     1      -3.923  32.091  -4.427  1.00  0.00    -0.395 OA
ATOM     20  H1  UNL     1      -4.453  31.502  -3.902  1.00  0.00     0.210 HD
ENDBRANCH   4  19
TORSDOF 8
ENDMDL
MODEL 2
REMARK VINA RESULT: -6.196967525      1.316      2.434
REMARK  8 active torsions:
REMARK  status: ('A' for Active; 'I' for Inactive)
REMARK    1  A    between atoms: C2_2  and  C3_3 
REMARK    2  A    between atoms: C3_3  and  C4_4 
REMARK    3  A    between atoms: C4_4  and  C5_5 
REMARK    4  A    between atoms: C5_5  and  C6_6 
REMARK    5  A    between atoms: C9_9  and  O1_10 
REMARK    6  A    between atoms: C10_12  and  C11_13 
REMARK    7  A    between atoms: C11_13  and  O2_16 
REMARK    8  A    between atoms: C14_18  and  O3_19 
ROOT
HETATM    1  C6  UNL     1      -1.927  31.109  -7.632  1.00  0.00     0.015 C 
HETATM    2  C7  UNL     1      -1.955  29.678  -8.095  1.00  0.00     0.010 C 
HETATM    3  C8  UNL     1      -1.559  28.661  -7.096  1.00  0.00     0.033 C 
HETATM    4  C9  UNL     1      -1.696  29.210  -5.670  1.00  0.00     0.127 C 
HETATM    5  C10 UNL     1      -2.983  29.997  -5.657  1.00  0.00     0.077 C 
HETATM    6  C14 UNL     1      -2.680  31.321  -6.340  1.00  0.00     0.131 C 
ENDROOT
BRANCH   1   7
HETATM    7  C5  UNL     1      -2.549  31.937  -8.739  1.00  0.00     0.007 C 
BRANCH   7   8
HETATM    8  C4  UNL     1      -2.013  31.595 -10.089  1.00  0.00     0.000 C 
BRANCH   8   9
HETATM    9  C3  UNL     1      -3.177  31.343 -11.023  1.00  0.00    -0.000 C 
BRANCH   9  10
HETATM   10  C2  UNL     1      -2.955  30.204 -11.966  1.00  0.00    -0.005 C 
HETATM   11  C1  UNL     1      -1.476  30.261 -12.367  1.00  0.00     0.005 C 
ENDBRANCH   9  10
ENDBRANCH   8   9
ENDBRANCH   7   8
ENDBRANCH   1   7
BRANCH   6  12
HETATM   12  O3  UNL     1      -1.828  32.029  -5.495  1.00  0.00    -0.395 OA
ATOM     13  H3  UNL     1      -2.064  32.946  -5.579  1.00  0.00     0.210 HD
ENDBRANCH   6  12
BRANCH   5  14
HETATM   14  C11 UNL     1      -3.494  30.174  -4.267  1.00  0.00     0.059 C 
HETATM   15  C12 UNL     1      -4.422  31.329  -4.100  1.00  0.00     0.046 C 
HETATM   16  C13 UNL     1      -2.360  30.331  -3.258  1.00  0.00     0.046 C 
BRANCH  14  17
HETATM   17  O2  UNL     1      -4.159  28.975  -3.916  1.00  0.00    -0.390 OA
ATOM     18  H2  UNL     1      -5.054  29.208  -3.698  1.00  0.00     0.210 HD
ENDBRANCH  14  17
ENDBRANCH   5  14
BRANCH   4  19
HETATM   19  O1  UNL     1      -1.619  28.202  -4.748  1.00  0.00    -0.395 OA
ATOM     20  H1  UNL     1      -0.745  28.144  -4.381  1.00  0.00     0.210 HD
ENDBRANCH   4  19
TORSDOF 8
ENDMDL
MODEL 3
REMARK VINA RESULT: -6.135026387      1.232      1.584
REMARK  8 active torsions:
REMARK  status: ('A' for Active; 'I' for Inactive)
REMARK    1  A    between atoms: C2_2  and  C3_3 
REMARK    2  A    between atoms: C3_3  and  C4_4 
REMARK    3  A    between atoms: C4_4  and  C5_5 
REMARK    4  A    between atoms: C5_5  and  C6_6 
REMARK    5  A    between atoms: C9_9  and  O1_10 
REMARK    6  A    between atoms: C10_12  and  C11_13 
REMARK    7  A    between atoms: C11_13  and  O2_16 
REMARK    8  A    between atoms: C14_18  and  O3_19 
ROOT
HETATM    1  C6  UNL     1      -2.657  31.046  -7.146  1.00  0.00     0.015 C 
HETATM    2  C7  UNL     1      -2.693  32.548  -7.203  1.00  0.00     0.010 C 
HETATM    3  C8  UNL     1      -3.775  33.205  -6.437  1.00  0.00     0.033 C 
HETATM    4  C9  UNL     1      -4.318  32.274  -5.345  1.00  0.00     0.127 C 
HETATM    5  C10 UNL     1      -3.109  31.596  -4.749  1.00  0.00     0.077 C 
HETATM    6  C14 UNL     1      -2.700  30.513  -5.733  1.00  0.00     0.131 C 
ENDROOT
BRANCH   1   7
HETATM    7  C5  UNL     1      -1.374  30.615  -7.827  1.00  0.00     0.007 C 
BRANCH   7   8
HETATM    8  C4  UNL     1      -1.113  31.357  -9.095  1.00  0.00     0.000 C 
BRANCH   8   9
HETATM    9  C3  UNL     1      -1.793  30.625 -10.232  1.00  0.00    -0.000 C 
BRANCH   9  10
HETATM   10  C2  UNL     1      -2.915  31.392 -10.855  1.00  0.00    -0.005 C 
HETATM   11  C1  UNL     1      -3.609  30.427 -11.824  1.00  0.00     0.005 C 
ENDBRANCH   9  10
ENDBRANCH   8   9
ENDBRANCH   7   8
ENDBRANCH   1   7
BRANCH   6  12
HETATM   12  O3  UNL     1      -3.697  29.539  -5.706  1.00  0.00    -0.395 OA
ATOM     13  H3  UNL     1      -3.507  28.979  -4.962  1.00  0.00     0.210 HD
ENDBRANCH   6  12
BRANCH   5  14
HETATM   14  C11 UNL     1      -3.409  31.053  -3.393  1.00  0.00     0.059 C 
HETATM   15  C12 UNL     1      -3.234  32.039  -2.287  1.00  0.00     0.046 C 
HETATM   16  C13 UNL     1      -2.561  29.827  -3.068  1.00  0.00     0.046 C 
BRANCH  14  17
HETATM   17  O2  UNL     1      -4.749  30.600  -3.417  1.00  0.00    -0.390 OA
ATOM     18  H2  UNL     1      -5.214  31.070  -2.734  1.00  0.00     0.210 HD
ENDBRANCH  14  17
ENDBRANCH   5  14
BRANCH   4  19
HETATM   19  O1  UNL     1      -5.097  32.964  -4.457  1.00  0.00    -0.395 OA
ATOM     20  H1  UNL     1      -5.070  32.561  -3.597  1.00  0.00     0.210 HD
ENDBRANCH   4  19
TORSDOF 8
ENDMDL
MODEL 4
REMARK VINA RESULT: -6.095903424      1.618      2.224
REMARK  8 active torsions:
REMARK  status: ('A' for Active; 'I' for Inactive)
REMARK    1  A    between atoms: C2_2  and  C3_3 
REMARK    2  A    between atoms: C3_3  and  C4_4 
REMARK    3  A    between atoms: C4_4  and  C5_5 
REMARK    4  A    between atoms: C5_5  and  C6_6 
REMARK    5  A    between atoms: C9_9  and  O1_10 
REMARK    6  A    between atoms: C10_12  and  C11_13 
REMARK    7  A    between atoms: C11_13  and  O2_16 
REMARK    8  A    between atoms: C14_18  and  O3_19 
ROOT
HETATM    1  C6  UNL     1      -0.887  30.452  -7.980  1.00  0.00     0.015 C 
HETATM    2  C7  UNL     1      -2.138  29.638  -8.160  1.00  0.00     0.010 C 
HETATM    3  C8  UNL     1      -2.432  28.650  -7.099  1.00  0.00     0.033 C 
HETATM    4  C9  UNL     1      -1.697  29.005  -5.799  1.00  0.00     0.127 C 
HETATM    5  C10 UNL     1      -1.816  30.502  -5.659  1.00  0.00     0.077 C 
HETATM    6  C14 UNL     1      -0.801  31.101  -6.619  1.00  0.00     0.131 C 
ENDROOT
BRANCH   1   7
HETATM    7  C5  UNL     1      -0.898  31.512  -9.063  1.00  0.00     0.007 C 
BRANCH   7   8
HETATM    8  C4  UNL     1      -2.033  31.353 -10.018  1.00  0.00     0.000 C 
BRANCH   8   9
HETATM    9  C3  UNL     1      -1.476  30.974 -11.374  1.00  0.00    -0.000 C 
BRANCH   9  10
HETATM   10  C2  UNL     1      -2.401  30.130 -12.190  1.00  0.00    -0.005 C 
HETATM   11  C1  UNL     1      -3.823  30.521 -11.770  1.00  0.00     0.005 C 
ENDBRANCH   9  10
ENDBRANCH   8   9
ENDBRANCH   7   8
ENDBRANCH   1   7
BRANCH   6  12
HETATM   12  O3  UNL     1       0.463  30.801  -6.115  1.00  0.00    -0.395 OA
ATOM     13  H3  UNL     1       0.408  30.898  -5.171  1.00  0.00     0.210 HD
ENDBRANCH   6  12
BRANCH   5  14
HETATM   14  C11 UNL     1      -1.593  30.932  -4.249  1.00  0.00     0.059 C 
HETATM   15  C12 UNL     1      -2.784  30.774  -3.366  1.00  0.00     0.046 C 
HETATM   16  C13 UNL     1      -1.130  32.383  -4.160  1.00  0.00     0.046 C 
BRANCH  14  17
HETATM   17  O2  UNL     1      -0.522  30.155  -3.745  1.00  0.00    -0.390 OA
ATOM     18  H2  UNL     1      -0.112  30.663  -3.055  1.00  0.00     0.210 HD
ENDBRANCH  14  17
ENDBRANCH   5  14
BRANCH   4  19
HETATM   19  O1  UNL     1      -2.186  28.280  -4.747  1.00  0.00    -0.395 OA
ATOM     20  H1  UNL     1      -2.288  28.826  -3.976  1.00  0.00     0.210 HD
ENDBRANCH   4  19
TORSDOF 8
ENDMDL
MODEL 5
REMARK VINA RESULT: -6.008554847      1.844      3.029
REMARK  8 active torsions:
REMARK  status: ('A' for Active; 'I' for Inactive)
REMARK    1  A    between atoms: C2_2  and  C3_3 
REMARK    2  A    between atoms: C3_3  and  C4_4 
REMARK    3  A    between atoms: C4_4  and  C5_5 
REMARK    4  A    between atoms: C5_5  and  C6_6 
REMARK    5  A    between atoms: C9_9  and  O1_10 
REMARK    6  A    between atoms: C10_12  and  C11_13 
REMARK    7  A    between atoms: C11_13  and  O2_16 
REMARK    8  A    between atoms: C14_18  and  O3_19 
ROOT
HETATM    1  C6  UNL     1      -1.454  30.168  -5.944  1.00  0.00     0.015 C 
HETATM    2  C7  UNL     1      -2.515  29.107  -6.049  1.00  0.00     0.010 C 
HETATM    3  C8  UNL     1      -3.539  29.100  -4.981  1.00  0.00     0.033 C 
HETATM    4  C9  UNL     1      -3.613  30.464  -4.283  1.00  0.00     0.127 C 
HETATM    5  C10 UNL     1      -3.500  31.492  -5.381  1.00  0.00     0.077 C 
HETATM    6  C14 UNL     1      -2.028  31.553  -5.757  1.00  0.00     0.131 C 
ENDROOT
BRANCH   1   7
HETATM    7  C5  UNL     1      -0.649  30.107  -7.226  1.00  0.00     0.007 C 
BRANCH   7   8
HETATM    8  C4  UNL     1      -1.496  30.228  -8.449  1.00  0.00     0.000 C 
BRANCH   8   9
HETATM    9  C3  UNL     1      -0.975  31.376  -9.287  1.00  0.00    -0.000 C 
BRANCH   9  10
HETATM   10  C2  UNL     1      -1.789  31.644 -10.512  1.00  0.00    -0.005 C 
HETATM   11  C1  UNL     1      -1.282  30.673 -11.586  1.00  0.00     0.005 C 
ENDBRANCH   9  10
ENDBRANCH   8   9
ENDBRANCH   7   8
ENDBRANCH   1   7
BRANCH   6  12
HETATM   12  O3  UNL     1      -1.355  32.119  -4.676  1.00  0.00    -0.395 OA
ATOM     13  H3  UNL     1      -1.645  31.651  -3.902  1.00  0.00     0.210 HD
ENDBRANCH   6  12
BRANCH   5  14
HETATM   14  C11 UNL     1      -4.033  32.813  -4.941  1.00  0.00     0.059 C 
HETATM   15  C12 UNL     1      -3.592  33.962  -5.785  1.00  0.00     0.046 C 
HETATM   16  C13 UNL     1      -3.666  33.124  -3.493  1.00  0.00     0.046 C 
BRANCH  14  17
HETATM   17  O2  UNL     1      -5.445  32.719  -4.969  1.00  0.00    -0.390 OA
ATOM     18  H2  UNL     1      -5.673  31.869  -4.610  1.00  0.00     0.210 HD
ENDBRANCH  14  17
ENDBRANCH   5  14
BRANCH   4  19
HETATM   19  O1  UNL     1      -4.739  30.558  -3.510  1.00  0.00    -0.395 OA
ATOM     20  H1  UNL     1      -5.305  31.256  -3.818  1.00  0.00     0.210 HD
ENDBRANCH   4  19
TORSDOF 8
ENDMDL
