MODEL 1
REMARK VINA RESULT: -6.992316322      0.000      0.000
REMARK  8 active torsions:
REMARK  status: ('A' for Active; 'I' for Inactive)
REMARK    1  A    between atoms: C5_5  and  C6_6 
REMARK    2  A    between atoms: C6_6  and  C7_7 
REMARK    3  A    between atoms: C7_7  and  C8_8 
REMARK    4  A    between atoms: C8_8  and  C9_9 
REMARK    5  A    between atoms: C9_9  and  O1_11 
REMARK    6  A    between atoms: C9_9  and  C11_13 
REMARK    7  A    between atoms: C11_13  and  O2_14 
REMARK    8  A    between atoms: C13_17  and  O3_19 
ROOT
HETATM    1  C1  UNL     1      -1.971  29.637 -13.169  1.00  0.00     0.017 C 
HETATM    2  C2  UNL     1      -1.972  30.184 -11.963  1.00  0.00    -0.056 C 
HETATM    3  C3  UNL     1      -0.762  30.760 -11.340  1.00  0.00     0.037 C 
HETATM    4  C4  UNL     1      -0.969  30.716  -9.822  1.00  0.00     0.009 C 
HETATM    5  C5  UNL     1      -2.124  31.606  -9.449  1.00  0.00    -0.011 C 
HETATM    6  C12 UNL     1      -3.372  31.308 -10.221  1.00  0.00     0.046 C 
HETATM    7  C13 UNL     1      -3.248  30.211 -11.220  1.00  0.00     0.077 C 
HETATM    8  C14 UNL     1      -3.540  28.866 -10.571  1.00  0.00     0.051 C 
ENDROOT
BRANCH   5   9
HETATM    9  C6  UNL     1      -2.420  31.469  -7.981  1.00  0.00     0.005 C 
BRANCH   9  10
HETATM   10  C7  UNL     1      -1.533  30.448  -7.292  1.00  0.00     0.003 C 
BRANCH  10  11
HETATM   11  C8  UNL     1      -2.308  29.353  -6.651  1.00  0.00     0.040 C 
BRANCH  11  12
HETATM   12  C9  UNL     1      -2.157  29.386  -5.151  1.00  0.00     0.075 C 
HETATM   13  C10 UNL     1      -1.269  30.551  -4.725  1.00  0.00     0.048 C 
BRANCH  12  14
HETATM   14  O1  UNL     1      -1.501  28.243  -4.664  1.00  0.00    -0.388 OA
ATOM     15  H1  UNL     1      -0.958  28.439  -3.910  1.00  0.00     0.210 HD
ENDBRANCH  12  14
BRANCH  12  16
HETATM   16  C11 UNL     1      -3.512  29.475  -4.523  1.00  0.00     0.201 C 
BRANCH  16  17
HETATM   17  O2  UNL     1      -4.323  28.387  -4.856  1.00  0.00    -0.398 OA
ATOM     18  H2  UNL     1      -4.668  27.946  -4.089  1.00  0.00     0.209 HD
ENDBRANCH  16  17
ENDBRANCH  12  16
ENDBRANCH  11  12
ENDBRANCH  10  11
ENDBRANCH   9  10
ENDBRANCH   5   9
BRANCH   7  19
HETATM   19  O3  UNL     1      -4.272  30.406 -12.177  1.00  0.00    -0.386 OA
ATOM     20  H3  UNL     1      -5.098  30.310 -11.717  1.00  0.00     0.211 HD
ENDBRANCH   7  19
TORSDOF 8
ENDMDL
MODEL 2
REMARK VINA RESULT: -6.801675515      1.124      1.832
REMARK  8 active torsions:
REMARK  status: ('A' for Active; 'I' for Inactive)
REMARK    1  A    between atoms: C5_5  and  C6_6 
REMARK    2  A    between atoms: C6_6  and  C7_7 
REMARK    3  A    between atoms: C7_7  and  C8_8 
REMARK    4  A    between atoms: C8_8  and  C9_9 
REMARK    5  A    between atoms: C9_9  and  O1_11 
REMARK    6  A    between atoms: C9_9  and  C11_13 
REMARK    7  A    between atoms: C11_13  and  O2_14 
REMARK    8  A    between atoms: C13_17  and  O3_19 
ROOT
HETATM    1  C1  UNL     1      -2.441  28.568 -13.738  1.00  0.00     0.017 C 
HETATM    2  C2  UNL     1      -2.229  29.484 -12.805  1.00  0.00    -0.056 C 
HETATM    3  C3  UNL     1      -0.903  30.090 -12.560  1.00  0.00     0.037 C 
HETATM    4  C4  UNL     1      -0.890  30.581 -11.109  1.00  0.00     0.009 C 
HETATM    5  C5  UNL     1      -1.912  31.673 -10.942  1.00  0.00    -0.011 C 
HETATM    6  C12 UNL     1      -3.277  31.283 -11.418  1.00  0.00     0.046 C 
HETATM    7  C13 UNL     1      -3.378  29.907 -11.980  1.00  0.00     0.077 C 
HETATM    8  C14 UNL     1      -3.669  28.901 -10.876  1.00  0.00     0.051 C 
ENDROOT
BRANCH   5   9
HETATM    9  C6  UNL     1      -2.001  32.072  -9.495  1.00  0.00     0.005 C 
BRANCH   9  10
HETATM   10  C7  UNL     1      -1.367  31.057  -8.562  1.00  0.00     0.003 C 
BRANCH  10  11
HETATM   11  C8  UNL     1      -2.168  30.829  -7.330  1.00  0.00     0.040 C 
BRANCH  11  12
HETATM   12  C9  UNL     1      -2.016  29.413  -6.836  1.00  0.00     0.075 C 
HETATM   13  C10 UNL     1      -1.299  28.554  -7.875  1.00  0.00     0.048 C 
BRANCH  12  14
HETATM   14  O1  UNL     1      -3.258  28.783  -6.651  1.00  0.00    -0.388 OA
ATOM     15  H1  UNL     1      -3.260  27.895  -6.988  1.00  0.00     0.210 HD
ENDBRANCH  12  14
BRANCH  12  16
HETATM   16  C11 UNL     1      -1.277  29.424  -5.535  1.00  0.00     0.201 C 
BRANCH  16  17
HETATM   17  O2  UNL     1      -1.578  28.312  -4.745  1.00  0.00    -0.398 OA
ATOM     18  H2  UNL     1      -2.063  28.546  -3.962  1.00  0.00     0.209 HD
ENDBRANCH  16  17
ENDBRANCH  12  16
ENDBRANCH  11  12
ENDBRANCH  10  11
ENDBRANCH   9  10
ENDBRANCH   5   9
BRANCH   7  19
HETATM   19  O3  UNL     1      -4.513  29.888 -12.825  1.00  0.00    -0.386 OA
ATOM     20  H3  UNL     1      -4.277  30.368 -13.611  1.00  0.00     0.211 HD
ENDBRANCH   7  19
TORSDOF 8
ENDMDL
MODEL 3
REMARK VINA RESULT: -6.641761534      1.253      1.569
REMARK  8 active torsions:
REMARK  status: ('A' for Active; 'I' for Inactive)
REMARK    1  A    between atoms: C5_5  and  C6_6 
REMARK    2  A    between atoms: C6_6  and  C7_7 
REMARK    3  A    between atoms: C7_7  and  C8_8 
REMARK    4  A    between atoms: C8_8  and  C9_9 
REMARK    5  A    between atoms: C9_9  and  O1_11 
REMARK    6  A    between atoms: C9_9  and  C11_13 
REMARK    7  A    between atoms: C11_13  and  O2_14 
REMARK    8  A    between atoms: C13_17  and  O3_19 
ROOT
HETATM    1  C1  UNL     1      -2.413  28.595 -13.898  1.00  0.00     0.017 C 
HETATM    2  C2  UNL     1      -2.173  29.467 -12.931  1.00  0.00    -0.056 C 
HETATM    3  C3  UNL     1      -0.837  30.051 -12.689  1.00  0.00     0.037 C 
HETATM    4  C4  UNL     1      -0.789  30.477 -11.218  1.00  0.00     0.009 C 
HETATM    5  C5  UNL     1      -1.798  31.568 -10.980  1.00  0.00    -0.011 C 
HETATM    6  C12 UNL     1      -3.175  31.209 -11.442  1.00  0.00     0.046 C 
HETATM    7  C13 UNL     1      -3.301  29.861 -12.063  1.00  0.00     0.077 C 
HETATM    8  C14 UNL     1      -3.575  28.809 -10.999  1.00  0.00     0.051 C 
ENDROOT
BRANCH   5   9
HETATM    9  C6  UNL     1      -1.852  31.902  -9.515  1.00  0.00     0.005 C 
BRANCH   9  10
HETATM   10  C7  UNL     1      -1.108  30.900  -8.652  1.00  0.00     0.003 C 
BRANCH  10  11
HETATM   11  C8  UNL     1      -2.021  30.046  -7.846  1.00  0.00     0.040 C 
BRANCH  11  12
HETATM   12  C9  UNL     1      -1.928  30.384  -6.380  1.00  0.00     0.075 C 
HETATM   13  C10 UNL     1      -2.852  31.550  -6.037  1.00  0.00     0.048 C 
BRANCH  12  14
HETATM   14  O1  UNL     1      -0.645  30.831  -6.023  1.00  0.00    -0.388 OA
ATOM     15  H1  UNL     1      -0.651  31.311  -5.204  1.00  0.00     0.210 HD
ENDBRANCH  12  14
BRANCH  12  16
HETATM   16  C11 UNL     1      -2.262  29.168  -5.575  1.00  0.00     0.201 C 
BRANCH  16  17
HETATM   17  O2  UNL     1      -3.590  28.767  -5.745  1.00  0.00    -0.398 OA
ATOM     18  H2  UNL     1      -3.689  28.140  -6.452  1.00  0.00     0.209 HD
ENDBRANCH  16  17
ENDBRANCH  12  16
ENDBRANCH  11  12
ENDBRANCH  10  11
ENDBRANCH   9  10
ENDBRANCH   5   9
BRANCH   7  19
HETATM   19  O3  UNL     1      -4.454  29.888 -12.882  1.00  0.00    -0.386 OA
ATOM     20  H3  UNL     1      -4.321  30.581 -13.519  1.00  0.00     0.211 HD
ENDBRANCH   7  19
TORSDOF 8
ENDMDL
MODEL 4
REMARK VINA RESULT: -6.480338616      1.619      2.653
REMARK  8 active torsions:
REMARK  status: ('A' for Active; 'I' for Inactive)
REMARK    1  A    between atoms: C5_5  and  C6_6 
REMARK    2  A    between atoms: C6_6  and  C7_7 
REMARK    3  A    between atoms: C7_7  and  C8_8 
REMARK    4  A    between atoms: C8_8  and  C9_9 
REMARK    5  A    between atoms: C9_9  and  O1_11 
REMARK    6  A    between atoms: C9_9  and  C11_13 
REMARK    7  A    between atoms: C11_13  and  O2_14 
REMARK    8  A    between atoms: C13_17  and  O3_19 
ROOT
HETATM    1  C1  UNL     1      -1.818  28.648 -14.165  1.00  0.00     0.017 C 
HETATM    2  C2  UNL     1      -2.117  29.271 -13.035  1.00  0.00    -0.056 C 
HETATM    3  C3  UNL     1      -3.497  29.367 -12.511  1.00  0.00     0.037 C 
HETATM    4  C4  UNL     1      -3.552  30.605 -11.610  1.00  0.00     0.009 C 
HETATM    5  C5  UNL     1      -2.644  30.402 -10.427  1.00  0.00    -0.011 C 
HETATM    6  C12 UNL     1      -1.249  30.019 -10.812  1.00  0.00     0.046 C 
HETATM    7  C13 UNL     1      -1.013  29.891 -12.277  1.00  0.00     0.077 C 
HETATM    8  C14 UNL     1      -0.619  31.235 -12.871  1.00  0.00     0.051 C 
ENDROOT
BRANCH   5   9
HETATM    9  C6  UNL     1      -2.590  31.660  -9.604  1.00  0.00     0.005 C 
BRANCH   9  10
HETATM   10  C7  UNL     1      -1.667  31.543  -8.405  1.00  0.00     0.003 C 
BRANCH  10  11
HETATM   11  C8  UNL     1      -2.380  31.117  -7.171  1.00  0.00     0.040 C 
BRANCH  11  12
HETATM   12  C9  UNL     1      -1.971  29.726  -6.759  1.00  0.00     0.075 C 
HETATM   13  C10 UNL     1      -0.583  29.391  -7.298  1.00  0.00     0.048 C 
BRANCH  12  14
HETATM   14  O1  UNL     1      -2.813  28.746  -7.310  1.00  0.00    -0.388 OA
ATOM     15  H1  UNL     1      -2.614  28.580  -8.224  1.00  0.00     0.210 HD
ENDBRANCH  12  14
BRANCH  12  16
HETATM   16  C11 UNL     1      -2.016  29.624  -5.267  1.00  0.00     0.201 C 
BRANCH  16  17
HETATM   17  O2  UNL     1      -1.590  28.375  -4.808  1.00  0.00    -0.398 OA
ATOM     18  H2  UNL     1      -2.142  28.039  -4.111  1.00  0.00     0.209 HD
ENDBRANCH  16  17
ENDBRANCH  12  16
ENDBRANCH  11  12
ENDBRANCH  10  11
ENDBRANCH   9  10
ENDBRANCH   5   9
BRANCH   7  19
HETATM   19  O3  UNL     1       0.115  29.053 -12.442  1.00  0.00    -0.386 OA
ATOM     20  H3  UNL     1       0.882  29.609 -12.368  1.00  0.00     0.211 HD
ENDBRANCH   7  19
TORSDOF 8
ENDMDL
MODEL 5
REMARK VINA RESULT: -6.429247548      1.203      1.968
REMARK  8 active torsions:
REMARK  status: ('A' for Active; 'I' for Inactive)
REMARK    1  A    between atoms: C5_5  and  C6_6 
REMARK    2  A    between atoms: C6_6  and  C7_7 
REMARK    3  A    between atoms: C7_7  and  C8_8 
REMARK    4  A    between atoms: C8_8  and  C9_9 
REMARK    5  A    between atoms: C9_9  and  O1_11 
REMARK    6  A    between atoms: C9_9  and  C11_13 
REMARK    7  A    between atoms: C11_13  and  O2_14 
REMARK    8  A    between atoms: C13_17  and  O3_19 
ROOT
HETATM    1  C1  UNL     1      -2.366  29.380 -13.242  1.00  0.00     0.017 C 
HETATM    2  C2  UNL     1      -2.433  29.826 -11.996  1.00  0.00    -0.056 C 
HETATM    3  C3  UNL     1      -3.693  29.865 -11.223  1.00  0.00     0.037 C 
HETATM    4  C4  UNL     1      -3.533  30.949 -10.152  1.00  0.00     0.009 C 
HETATM    5  C5  UNL     1      -2.441  30.549  -9.197  1.00  0.00    -0.011 C 
HETATM    6  C12 UNL     1      -1.155  30.206  -9.880  1.00  0.00     0.046 C 
HETATM    7  C13 UNL     1      -1.186  30.302 -11.366  1.00  0.00     0.077 C 
HETATM    8  C14 UNL     1      -0.842  31.714 -11.816  1.00  0.00     0.051 C 
ENDROOT
BRANCH   5   9
HETATM    9  C6  UNL     1      -2.185  31.663  -8.220  1.00  0.00     0.005 C 
BRANCH   9  10
HETATM   10  C7  UNL     1      -2.484  31.271  -6.784  1.00  0.00     0.003 C 
BRANCH  10  11
HETATM   11  C8  UNL     1      -2.307  29.815  -6.538  1.00  0.00     0.040 C 
BRANCH  11  12
HETATM   12  C9  UNL     1      -2.181  29.524  -5.064  1.00  0.00     0.075 C 
HETATM   13  C10 UNL     1      -1.282  30.555  -4.387  1.00  0.00     0.048 C 
BRANCH  12  14
HETATM   14  O1  UNL     1      -1.551  28.291  -4.824  1.00  0.00    -0.388 OA
ATOM     15  H1  UNL     1      -0.615  28.390  -4.696  1.00  0.00     0.210 HD
ENDBRANCH  12  14
BRANCH  12  16
HETATM   16  C11 UNL     1      -3.545  29.502  -4.450  1.00  0.00     0.201 C 
BRANCH  16  17
HETATM   17  O2  UNL     1      -4.292  28.394  -4.857  1.00  0.00    -0.398 OA
ATOM     18  H2  UNL     1      -4.149  27.638  -4.300  1.00  0.00     0.209 HD
ENDBRANCH  16  17
ENDBRANCH  12  16
ENDBRANCH  11  12
ENDBRANCH  10  11
ENDBRANCH   9  10
ENDBRANCH   5   9
BRANCH   7  19
HETATM   19  O3  UNL     1      -0.144  29.479 -11.856  1.00  0.00    -0.386 OA
ATOM     20  H3  UNL     1       0.042  28.840 -11.177  1.00  0.00     0.211 HD
ENDBRANCH   7  19
TORSDOF 8
ENDMDL
