MODEL 1
REMARK VINA RESULT: -5.781214439      0.000      0.000
REMARK  6 active torsions:
REMARK  status: ('A' for Active; 'I' for Inactive)
REMARK    1  A    between atoms: C2_2  and  C3_3 
REMARK    2  A    between atoms: C3_3  and  C4_4 
REMARK    3  A    between atoms: C4_4  and  C5_5 
REMARK    4  A    between atoms: C5_5  and  S1_6 
REMARK    5  A    between atoms: S1_6  and  C6_7 
REMARK    6  A    between atoms: C12_15  and  O1_16 
ROOT
HETATM    1  C6  UNL     1      -2.117  30.554  -7.115  1.00  0.00     0.088 C 
HETATM    2  C7  UNL     1      -2.619  31.897  -7.207  1.00  0.00     0.038 C 
HETATM    3  C8  UNL     1      -3.509  32.496  -6.118  1.00  0.00     0.115 C 
HETATM    4  N1  UNL     1      -2.801  33.113  -5.053  1.00  0.00    -0.420 N 
ATOM      5  H1  UNL     1      -2.388  34.026  -5.241  1.00  0.00     0.153 HD
HETATM    6  C9  UNL     1      -2.617  32.589  -3.775  1.00  0.00     0.125 C 
HETATM    7  C10 UNL     1      -1.384  31.605  -3.655  1.00  0.00     0.102 C 
HETATM    8  C11 UNL     1      -1.361  30.982  -4.921  1.00  0.00    -0.149 C 
HETATM    9  C12 UNL     1      -1.035  30.218  -6.033  1.00  0.00     0.198 C 
ENDROOT
BRANCH   1  10
HETATM   10  S1  UNL     1      -1.393  29.976  -8.644  1.00  0.00    -0.161 SA
BRANCH  10  11
HETATM   11  C5  UNL     1      -1.004  31.161  -9.875  1.00  0.00     0.074 C 
BRANCH  11  12
HETATM   12  C4  UNL     1      -1.902  31.250 -11.058  1.00  0.00     0.010 C 
BRANCH  12  13
HETATM   13  C3  UNL     1      -3.359  31.245 -10.873  1.00  0.00     0.000 C 
BRANCH  13  14
HETATM   14  C2  UNL     1      -4.029  30.514 -12.022  1.00  0.00    -0.005 C 
HETATM   15  C1  UNL     1      -3.291  29.320 -12.528  1.00  0.00     0.005 C 
ENDBRANCH  13  14
ENDBRANCH  12  13
ENDBRANCH  11  12
ENDBRANCH  10  11
ENDBRANCH   1  10
BRANCH   9  16
HETATM   16  O1  UNL     1       0.240  30.379  -6.560  1.00  0.00    -0.383 OA
ATOM     17  H1  UNL     1       0.692  29.544  -6.591  1.00  0.00     0.211 HD
ENDBRANCH   9  16
TORSDOF 6
ENDMDL
MODEL 2
REMARK VINA RESULT: -5.648629832      1.292      1.297
REMARK  6 active torsions:
REMARK  status: ('A' for Active; 'I' for Inactive)
REMARK    1  A    between atoms: C2_2  and  C3_3 
REMARK    2  A    between atoms: C3_3  and  C4_4 
REMARK    3  A    between atoms: C4_4  and  C5_5 
REMARK    4  A    between atoms: C5_5  and  S1_6 
REMARK    5  A    between atoms: S1_6  and  C6_7 
REMARK    6  A    between atoms: C12_15  and  O1_16 
ROOT
HETATM    1  C6  UNL     1      -2.510  30.349  -7.232  1.00  0.00     0.088 C 
HETATM    2  C7  UNL     1      -2.508  31.711  -6.773  1.00  0.00     0.038 C 
HETATM    3  C8  UNL     1      -3.632  32.261  -5.894  1.00  0.00     0.115 C 
HETATM    4  N1  UNL     1      -3.438  32.066  -4.501  1.00  0.00    -0.420 N 
ATOM      5  H1  UNL     1      -2.758  32.672  -4.041  1.00  0.00     0.153 HD
HETATM    6  C9  UNL     1      -4.088  31.127  -3.704  1.00  0.00     0.125 C 
HETATM    7  C10 UNL     1      -3.411  29.697  -3.715  1.00  0.00     0.102 C 
HETATM    8  C11 UNL     1      -2.909  29.601  -5.029  1.00  0.00    -0.149 C 
HETATM    9  C12 UNL     1      -2.278  29.196  -6.197  1.00  0.00     0.198 C 
ENDROOT
BRANCH   1  10
HETATM   10  S1  UNL     1      -1.290  30.042  -8.502  1.00  0.00    -0.161 SA
BRANCH  10  11
HETATM   11  C5  UNL     1      -1.031  31.279  -9.717  1.00  0.00     0.074 C 
BRANCH  11  12
HETATM   12  C4  UNL     1      -1.880  31.237 -10.938  1.00  0.00     0.010 C 
BRANCH  12  13
HETATM   13  C3  UNL     1      -3.343  31.267 -10.815  1.00  0.00     0.000 C 
BRANCH  13  14
HETATM   14  C2  UNL     1      -3.980  30.522 -11.974  1.00  0.00    -0.005 C 
HETATM   15  C1  UNL     1      -3.187  29.374 -12.501  1.00  0.00     0.005 C 
ENDBRANCH  13  14
ENDBRANCH  12  13
ENDBRANCH  11  12
ENDBRANCH  10  11
ENDBRANCH   1  10
BRANCH   9  16
HETATM   16  O1  UNL     1      -0.925  28.891  -6.112  1.00  0.00    -0.383 OA
ATOM     17  H1  UNL     1      -0.770  28.278  -5.403  1.00  0.00     0.211 HD
ENDBRANCH   9  16
TORSDOF 6
ENDMDL
MODEL 3
REMARK VINA RESULT: -5.618469590      1.845      2.439
REMARK  6 active torsions:
REMARK  status: ('A' for Active; 'I' for Inactive)
REMARK    1  A    between atoms: C2_2  and  C3_3 
REMARK    2  A    between atoms: C3_3  and  C4_4 
REMARK    3  A    between atoms: C4_4  and  C5_5 
REMARK    4  A    between atoms: C5_5  and  S1_6 
REMARK    5  A    between atoms: S1_6  and  C6_7 
REMARK    6  A    between atoms: C12_15  and  O1_16 
ROOT
HETATM    1  C6  UNL     1      -1.901  30.394  -6.802  1.00  0.00     0.088 C 
HETATM    2  C7  UNL     1      -2.516  29.279  -6.136  1.00  0.00     0.038 C 
HETATM    3  C8  UNL     1      -2.736  29.272  -4.623  1.00  0.00     0.115 C 
HETATM    4  N1  UNL     1      -3.958  29.860  -4.203  1.00  0.00    -0.420 N 
ATOM      5  H1  UNL     1      -4.807  29.312  -4.347  1.00  0.00     0.153 HD
HETATM    6  C9  UNL     1      -4.108  31.113  -3.614  1.00  0.00     0.125 C 
HETATM    7  C10 UNL     1      -4.215  32.302  -4.653  1.00  0.00     0.102 C 
HETATM    8  C11 UNL     1      -3.380  31.871  -5.705  1.00  0.00    -0.149 C 
HETATM    9  C12 UNL     1      -2.683  31.749  -6.898  1.00  0.00     0.198 C 
ENDROOT
BRANCH   1  10
HETATM   10  S1  UNL     1      -1.451  30.033  -8.493  1.00  0.00    -0.161 SA
BRANCH  10  11
HETATM   11  C5  UNL     1      -0.751  31.319  -9.456  1.00  0.00     0.074 C 
BRANCH  11  12
HETATM   12  C4  UNL     1      -1.353  31.591 -10.789  1.00  0.00     0.010 C 
BRANCH  12  13
HETATM   13  C3  UNL     1      -1.212  30.609 -11.871  1.00  0.00     0.000 C 
BRANCH  13  14
HETATM   14  C2  UNL     1      -2.566  30.018 -12.219  1.00  0.00    -0.005 C 
HETATM   15  C1  UNL     1      -3.740  30.794 -11.726  1.00  0.00     0.005 C 
ENDBRANCH  13  14
ENDBRANCH  12  13
ENDBRANCH  11  12
ENDBRANCH  10  11
ENDBRANCH   1  10
BRANCH   9  16
HETATM   16  O1  UNL     1      -3.425  31.794  -8.072  1.00  0.00    -0.383 OA
ATOM     17  H1  UNL     1      -2.975  31.324  -8.764  1.00  0.00     0.211 HD
ENDBRANCH   9  16
TORSDOF 6
ENDMDL
MODEL 4
REMARK VINA RESULT: -5.613333033      2.136      2.928
REMARK  6 active torsions:
REMARK  status: ('A' for Active; 'I' for Inactive)
REMARK    1  A    between atoms: C2_2  and  C3_3 
REMARK    2  A    between atoms: C3_3  and  C4_4 
REMARK    3  A    between atoms: C4_4  and  C5_5 
REMARK    4  A    between atoms: C5_5  and  S1_6 
REMARK    5  A    between atoms: S1_6  and  C6_7 
REMARK    6  A    between atoms: C12_15  and  O1_16 
ROOT
HETATM    1  C6  UNL     1      -2.278  30.437  -5.287  1.00  0.00     0.088 C 
HETATM    2  C7  UNL     1      -1.152  30.614  -4.412  1.00  0.00     0.038 C 
HETATM    3  C8  UNL     1      -1.013  31.852  -3.526  1.00  0.00     0.115 C 
HETATM    4  N1  UNL     1      -1.646  31.743  -2.260  1.00  0.00    -0.420 N 
ATOM      5  H1  UNL     1      -1.179  31.167  -1.558  1.00  0.00     0.153 HD
HETATM    6  C9  UNL     1      -2.844  32.347  -1.884  1.00  0.00     0.125 C 
HETATM    7  C10 UNL     1      -4.133  31.523  -2.289  1.00  0.00     0.102 C 
HETATM    8  C11 UNL     1      -3.746  30.918  -3.502  1.00  0.00    -0.149 C 
HETATM    9  C12 UNL     1      -3.689  30.162  -4.665  1.00  0.00     0.198 C 
ENDROOT
BRANCH   1  10
HETATM   10  S1  UNL     1      -2.051  29.100  -6.452  1.00  0.00    -0.161 SA
BRANCH  10  11
HETATM   11  C5  UNL     1      -2.000  29.491  -8.159  1.00  0.00     0.074 C 
BRANCH  11  12
HETATM   12  C4  UNL     1      -1.184  30.663  -8.577  1.00  0.00     0.010 C 
BRANCH  12  13
HETATM   13  C3  UNL     1      -1.790  31.725  -9.389  1.00  0.00     0.000 C 
BRANCH  13  14
HETATM   14  C2  UNL     1      -1.957  31.255 -10.823  1.00  0.00    -0.005 C 
HETATM   15  C1  UNL     1      -3.369  31.123 -11.284  1.00  0.00     0.005 C 
ENDBRANCH  13  14
ENDBRANCH  12  13
ENDBRANCH  11  12
ENDBRANCH  10  11
ENDBRANCH   1  10
BRANCH   9  16
HETATM   16  O1  UNL     1      -3.903  28.795  -4.541  1.00  0.00    -0.383 OA
ATOM     17  H1  UNL     1      -3.547  28.478  -3.720  1.00  0.00     0.211 HD
ENDBRANCH   9  16
TORSDOF 6
ENDMDL
MODEL 5
REMARK VINA RESULT: -5.545261659      0.743      1.092
REMARK  6 active torsions:
REMARK  status: ('A' for Active; 'I' for Inactive)
REMARK    1  A    between atoms: C2_2  and  C3_3 
REMARK    2  A    between atoms: C3_3  and  C4_4 
REMARK    3  A    between atoms: C4_4  and  C5_5 
REMARK    4  A    between atoms: C5_5  and  S1_6 
REMARK    5  A    between atoms: S1_6  and  C6_7 
REMARK    6  A    between atoms: C12_15  and  O1_16 
ROOT
HETATM    1  C6  UNL     1      -2.079  30.392  -7.696  1.00  0.00     0.088 C 
HETATM    2  C7  UNL     1      -2.396  31.782  -7.520  1.00  0.00     0.038 C 
HETATM    3  C8  UNL     1      -3.231  32.270  -6.336  1.00  0.00     0.115 C 
HETATM    4  N1  UNL     1      -2.480  32.563  -5.167  1.00  0.00    -0.420 N 
ATOM      5  H1  UNL     1      -1.945  33.431  -5.169  1.00  0.00     0.153 HD
HETATM    6  C9  UNL     1      -2.406  31.777  -4.019  1.00  0.00     0.125 C 
HETATM    7  C10 UNL     1      -1.317  30.631  -4.094  1.00  0.00     0.102 C 
HETATM    8  C11 UNL     1      -1.339  30.272  -5.458  1.00  0.00    -0.149 C 
HETATM    9  C12 UNL     1      -1.084  29.706  -6.699  1.00  0.00     0.198 C 
ENDROOT
BRANCH   1  10
HETATM   10  S1  UNL     1      -1.393  30.033  -9.307  1.00  0.00    -0.161 SA
BRANCH  10  11
HETATM   11  C5  UNL     1      -1.885  31.036 -10.658  1.00  0.00     0.074 C 
BRANCH  11  12
HETATM   12  C4  UNL     1      -3.327  31.044 -11.023  1.00  0.00     0.010 C 
BRANCH  12  13
HETATM   13  C3  UNL     1      -3.817  30.161 -12.089  1.00  0.00     0.000 C 
BRANCH  13  14
HETATM   14  C2  UNL     1      -2.648  29.518 -12.813  1.00  0.00    -0.005 C 
HETATM   15  C1  UNL     1      -2.994  28.326 -13.640  1.00  0.00     0.005 C 
ENDBRANCH  13  14
ENDBRANCH  12  13
ENDBRANCH  11  12
ENDBRANCH  10  11
ENDBRANCH   1  10
BRANCH   9  16
HETATM   16  O1  UNL     1       0.217  29.793  -7.179  1.00  0.00    -0.383 OA
ATOM     17  H1  UNL     1       0.217  29.810  -8.129  1.00  0.00     0.211 HD
ENDBRANCH   9  16
TORSDOF 6
ENDMDL
