MODEL 1
REMARK VINA RESULT: -8.071647366      0.000      0.000
REMARK  8 active torsions:
REMARK  status: ('A' for Active; 'I' for Inactive)
REMARK    1  A    between atoms: C2_2  and  N1_3 
REMARK    2  A    between atoms: N1_3  and  C3_5 
REMARK    3  A    between atoms: C4_8  and  N3_9 
REMARK    4  A    between atoms: N3_9  and  C5_11 
REMARK    5  A    between atoms: C6_14  and  O1_15 
REMARK    6  A    between atoms: C11_23  and  N7_24 
REMARK    7  A    between atoms: N7_24  and  O2_26 
REMARK    8  A    between atoms: C12_28  and  N8_29 
ROOT
HETATM    1  C5  UNL     1      58.049 -13.490  52.314  1.00  0.00     0.685 A 
HETATM    2  N4  UNL     1      57.537 -12.416  51.691  1.00  0.00    -0.169 N 
ATOM      3  H4  UNL     1      57.253 -12.493  50.714  1.00  0.00     0.186 HD
HETATM    4  C6  UNL     1      57.391 -11.237  52.328  1.00  0.00     0.179 A 
HETATM    5  C8  UNL     1      57.767 -11.098  53.654  1.00  0.00     0.112 A 
HETATM    6  C9  UNL     1      57.625  -9.854  54.368  1.00  0.00     0.105 C 
HETATM    7  N5  UNL     1      57.519  -8.867  54.953  1.00  0.00    -0.191 NA
HETATM    8  C10 UNL     1      58.291 -12.209  54.283  1.00  0.00     0.133 A 
HETATM    9  N6  UNL     1      58.418 -13.370  53.601  1.00  0.00    -0.200 N 
ATOM     10  H6  UNL     1      58.806 -14.183  54.080  1.00  0.00     0.183 HD
ENDROOT
BRANCH   4  11
HETATM   11  O1  UNL     1      56.868 -10.120  51.707  1.00  0.00    -0.339 OA
HETATM   12  C7  UNL     1      55.466 -10.056  51.530  1.00  0.00     0.211 C 
ENDBRANCH   4  11
BRANCH   1  13
HETATM   13  N3  UNL     1      58.163 -14.596  51.645  1.00  0.00    -0.174 N 
ATOM     14  H3  UNL     1      59.048 -14.802  51.180  1.00  0.00     0.186 HD
BRANCH  13  15
HETATM   15  C4  UNL     1      57.100 -15.531  51.538  1.00  0.00     0.155 C 
HETATM   16  N2  UNL     1      55.949 -15.131  50.968  1.00  0.00    -0.322 N 
HETATM   17  C3  UNL     1      54.757 -15.745  51.077  1.00  0.00     0.176 C 
ATOM     18  H2  UNL     1      55.983 -14.284  50.402  1.00  0.00     0.169 HD
HETATM   19  C13 UNL     1      54.467 -17.012  51.540  1.00  0.00     0.291 C 
HETATM   20  N9  UNL     1      55.315 -17.969  51.958  1.00  0.00    -0.305 N 
HETATM   21  O3  UNL     1      53.236 -17.280  51.564  1.00  0.00    -0.264 OA
HETATM   22  C12 UNL     1      56.652 -17.901  52.086  1.00  0.00     0.134 C 
ATOM     23  H9  UNL     1      54.889 -18.861  52.209  1.00  0.00     0.171 HD
HETATM   24  C11 UNL     1      57.432 -16.773  52.068  1.00  0.00     0.142 C 
BRANCH  17  25
HETATM   25  N1  UNL     1      53.734 -15.030  50.686  1.00  0.00    -0.349 N 
ATOM     26  H1  UNL     1      52.827 -15.477  50.552  1.00  0.00     0.167 HD
BRANCH  25  27
HETATM   27  C2  UNL     1      53.875 -13.654  50.450  1.00  0.00     0.079 C 
HETATM   28  C1  UNL     1      53.323 -13.045  49.419  1.00  0.00     0.029 C 
ENDBRANCH  25  27
ENDBRANCH  17  25
BRANCH  22  29
HETATM   29  N8  UNL     1      57.289 -19.033  52.249  1.00  0.00    -0.383 N 
ATOM     30  H82 UNL     1      57.272 -19.440  53.184  1.00  0.00     0.157 HD
ATOM     31  H81 UNL     1      57.749 -19.407  51.419  1.00  0.00     0.157 HD
ENDBRANCH  22  29
BRANCH  24  32
HETATM   32  N7  UNL     1      58.725 -16.880  52.649  1.00  0.00    -0.262 N 
ATOM     33  H7  UNL     1      59.522 -17.082  52.045  1.00  0.00     0.194 HD
BRANCH  32  34
HETATM   34  O2  UNL     1      58.920 -16.734  53.877  1.00  0.00    -0.289 OA
ATOM     35  H2  UNL     1      58.627 -17.373  54.517  1.00  0.00     0.244 HD
ENDBRANCH  32  34
ENDBRANCH  24  32
ENDBRANCH  13  15
ENDBRANCH   1  13
TORSDOF 8
ENDMDL
MODEL 2
REMARK VINA RESULT: -7.771836293      1.659      3.672
REMARK  8 active torsions:
REMARK  status: ('A' for Active; 'I' for Inactive)
REMARK    1  A    between atoms: C2_2  and  N1_3 
REMARK    2  A    between atoms: N1_3  and  C3_5 
REMARK    3  A    between atoms: C4_8  and  N3_9 
REMARK    4  A    between atoms: N3_9  and  C5_11 
REMARK    5  A    between atoms: C6_14  and  O1_15 
REMARK    6  A    between atoms: C11_23  and  N7_24 
REMARK    7  A    between atoms: N7_24  and  O2_26 
REMARK    8  A    between atoms: C12_28  and  N8_29 
ROOT
HETATM    1  C5  UNL     1      58.018 -13.216  52.212  1.00  0.00     0.685 A 
HETATM    2  N4  UNL     1      57.382 -12.123  51.759  1.00  0.00    -0.169 N 
ATOM      3  H4  UNL     1      56.944 -12.145  50.838  1.00  0.00     0.186 HD
HETATM    4  C6  UNL     1      57.312 -10.995  52.494  1.00  0.00     0.179 A 
HETATM    5  C8  UNL     1      57.897 -10.931  53.748  1.00  0.00     0.112 A 
HETATM    6  C9  UNL     1      57.841  -9.743  54.563  1.00  0.00     0.105 C 
HETATM    7  N5  UNL     1      57.806  -8.802  55.228  1.00  0.00    -0.191 NA
HETATM    8  C10 UNL     1      58.546 -12.061  54.202  1.00  0.00     0.133 A 
HETATM    9  N6  UNL     1      58.589 -13.168  53.427  1.00  0.00    -0.200 N 
ATOM     10  H6  UNL     1      59.072 -13.996  53.778  1.00  0.00     0.183 HD
ENDROOT
BRANCH   4  11
HETATM   11  O1  UNL     1      56.664  -9.860  52.048  1.00  0.00    -0.339 OA
HETATM   12  C7  UNL     1      55.300  -9.973  51.691  1.00  0.00     0.211 C 
ENDBRANCH   4  11
BRANCH   1  13
HETATM   13  N3  UNL     1      58.050 -14.270  51.455  1.00  0.00    -0.174 N 
ATOM     14  H3  UNL     1      58.583 -14.236  50.586  1.00  0.00     0.186 HD
BRANCH  13  15
HETATM   15  C4  UNL     1      57.369 -15.469  51.795  1.00  0.00     0.155 C 
HETATM   16  N2  UNL     1      58.037 -16.413  52.483  1.00  0.00    -0.322 N 
HETATM   17  C3  UNL     1      57.682 -17.706  52.600  1.00  0.00     0.176 C 
ATOM     18  H2  UNL     1      58.890 -16.121  52.959  1.00  0.00     0.169 HD
HETATM   19  C13 UNL     1      56.480 -18.311  52.299  1.00  0.00     0.291 C 
HETATM   20  N9  UNL     1      55.342 -17.747  51.855  1.00  0.00    -0.305 N 
HETATM   21  O3  UNL     1      56.476 -19.559  52.474  1.00  0.00    -0.264 OA
HETATM   22  C12 UNL     1      55.119 -16.461  51.534  1.00  0.00     0.134 C 
ATOM     23  H9  UNL     1      54.547 -18.376  51.749  1.00  0.00     0.171 HD
HETATM   24  C11 UNL     1      56.055 -15.478  51.339  1.00  0.00     0.142 C 
BRANCH  17  25
HETATM   25  N1  UNL     1      58.618 -18.490  53.064  1.00  0.00    -0.349 N 
ATOM     26  H1  UNL     1      58.412 -19.473  53.244  1.00  0.00     0.167 HD
BRANCH  25  27
HETATM   27  C2  UNL     1      59.906 -17.992  53.317  1.00  0.00     0.079 C 
HETATM   28  C1  UNL     1      60.426 -17.934  54.528  1.00  0.00     0.029 C 
ENDBRANCH  25  27
ENDBRANCH  17  25
BRANCH  22  29
HETATM   29  N8  UNL     1      53.870 -16.096  51.386  1.00  0.00    -0.383 N 
ATOM     30  H82 UNL     1      53.215 -16.812  51.070  1.00  0.00     0.157 HD
ATOM     31  H81 UNL     1      53.665 -15.120  51.602  1.00  0.00     0.157 HD
ENDBRANCH  22  29
BRANCH  24  32
HETATM   32  N7  UNL     1      55.644 -14.340  50.593  1.00  0.00    -0.262 N 
ATOM     33  H7  UNL     1      55.925 -14.264  49.615  1.00  0.00     0.194 HD
BRANCH  32  34
HETATM   34  O2  UNL     1      54.948 -13.427  51.094  1.00  0.00    -0.289 OA
ATOM     35  H2  UNL     1      55.242 -12.524  51.124  1.00  0.00     0.244 HD
ENDBRANCH  32  34
ENDBRANCH  24  32
ENDBRANCH  13  15
ENDBRANCH   1  13
TORSDOF 8
ENDMDL
MODEL 3
REMARK VINA RESULT: -7.739247073      1.502      1.603
REMARK  8 active torsions:
REMARK  status: ('A' for Active; 'I' for Inactive)
REMARK    1  A    between atoms: C2_2  and  N1_3 
REMARK    2  A    between atoms: N1_3  and  C3_5 
REMARK    3  A    between atoms: C4_8  and  N3_9 
REMARK    4  A    between atoms: N3_9  and  C5_11 
REMARK    5  A    between atoms: C6_14  and  O1_15 
REMARK    6  A    between atoms: C11_23  and  N7_24 
REMARK    7  A    between atoms: N7_24  and  O2_26 
REMARK    8  A    between atoms: C12_28  and  N8_29 
ROOT
HETATM    1  C5  UNL     1      57.666 -14.122  53.511  1.00  0.00     0.685 A 
HETATM    2  N4  UNL     1      58.534 -13.237  52.992  1.00  0.00    -0.169 N 
ATOM      3  H4  UNL     1      59.283 -13.569  52.385  1.00  0.00     0.186 HD
HETATM    4  C6  UNL     1      58.436 -11.919  53.258  1.00  0.00     0.179 A 
HETATM    5  C8  UNL     1      57.431 -11.436  54.079  1.00  0.00     0.112 A 
HETATM    6  C9  UNL     1      57.295 -10.033  54.384  1.00  0.00     0.105 C 
HETATM    7  N5  UNL     1      57.172  -8.916  54.639  1.00  0.00    -0.191 NA
HETATM    8  C10 UNL     1      56.546 -12.355  54.605  1.00  0.00     0.133 A 
HETATM    9  N6  UNL     1      56.685 -13.667  54.309  1.00  0.00    -0.200 N 
ATOM     10  H6  UNL     1      56.022 -14.334  54.705  1.00  0.00     0.183 HD
ENDROOT
BRANCH   4  11
HETATM   11  O1  UNL     1      59.317 -10.992  52.736  1.00  0.00    -0.339 OA
HETATM   12  C7  UNL     1      59.117 -10.566  51.402  1.00  0.00     0.211 C 
ENDBRANCH   4  11
BRANCH   1  13
HETATM   13  N3  UNL     1      57.814 -15.378  53.217  1.00  0.00    -0.174 N 
ATOM     14  H3  UNL     1      58.693 -15.838  53.452  1.00  0.00     0.186 HD
BRANCH  13  15
HETATM   15  C4  UNL     1      56.795 -16.132  52.578  1.00  0.00     0.155 C 
HETATM   16  N2  UNL     1      55.728 -15.479  52.084  1.00  0.00    -0.322 N 
HETATM   17  C3  UNL     1      54.544 -16.030  51.758  1.00  0.00     0.176 C 
ATOM     18  H2  UNL     1      55.825 -14.474  51.944  1.00  0.00     0.169 HD
HETATM   19  C13 UNL     1      54.218 -17.360  51.591  1.00  0.00     0.291 C 
HETATM   20  N9  UNL     1      55.018 -18.439  51.670  1.00  0.00    -0.305 N 
HETATM   21  O3  UNL     1      53.001 -17.561  51.331  1.00  0.00    -0.264 OA
HETATM   22  C12 UNL     1      56.321 -18.488  51.995  1.00  0.00     0.134 C 
ATOM     23  H9  UNL     1      54.578 -19.334  51.456  1.00  0.00     0.171 HD
HETATM   24  C11 UNL     1      57.074 -17.494  52.565  1.00  0.00     0.142 C 
BRANCH  17  25
HETATM   25  N1  UNL     1      53.573 -15.175  51.575  1.00  0.00    -0.349 N 
ATOM     26  H1  UNL     1      52.826 -15.390  50.914  1.00  0.00     0.167 HD
BRANCH  25  27
HETATM   27  C2  UNL     1      53.548 -13.962  52.282  1.00  0.00     0.079 C 
HETATM   28  C1  UNL     1      52.461 -13.226  52.402  1.00  0.00     0.029 C 
ENDBRANCH  25  27
ENDBRANCH  17  25
BRANCH  22  29
HETATM   29  N8  UNL     1      56.951 -19.608  51.743  1.00  0.00    -0.383 N 
ATOM     30  H82 UNL     1      56.378 -20.410  51.480  1.00  0.00     0.157 HD
ATOM     31  H81 UNL     1      57.967 -19.576  51.834  1.00  0.00     0.157 HD
ENDBRANCH  22  29
BRANCH  24  32
HETATM   32  N7  UNL     1      58.275 -17.893  53.215  1.00  0.00    -0.262 N 
ATOM     33  H7  UNL     1      58.212 -18.400  54.098  1.00  0.00     0.194 HD
BRANCH  32  34
HETATM   34  O2  UNL     1      59.406 -17.644  52.740  1.00  0.00    -0.289 OA
ATOM     35  H2  UNL     1      59.531 -17.389  51.833  1.00  0.00     0.244 HD
ENDBRANCH  32  34
ENDBRANCH  24  32
ENDBRANCH  13  15
ENDBRANCH   1  13
TORSDOF 8
ENDMDL
MODEL 4
REMARK VINA RESULT: -7.486306822      2.047      3.874
REMARK  8 active torsions:
REMARK  status: ('A' for Active; 'I' for Inactive)
REMARK    1  A    between atoms: C2_2  and  N1_3 
REMARK    2  A    between atoms: N1_3  and  C3_5 
REMARK    3  A    between atoms: C4_8  and  N3_9 
REMARK    4  A    between atoms: N3_9  and  C5_11 
REMARK    5  A    between atoms: C6_14  and  O1_15 
REMARK    6  A    between atoms: C11_23  and  N7_24 
REMARK    7  A    between atoms: N7_24  and  O2_26 
REMARK    8  A    between atoms: C12_28  and  N8_29 
ROOT
HETATM    1  C5  UNL     1      57.255 -13.124  52.601  1.00  0.00     0.685 A 
HETATM    2  N4  UNL     1      56.218 -12.484  53.166  1.00  0.00    -0.169 N 
ATOM      3  H4  UNL     1      55.273 -12.667  52.826  1.00  0.00     0.186 HD
HETATM    4  C6  UNL     1      56.398 -11.606  54.173  1.00  0.00     0.179 A 
HETATM    5  C8  UNL     1      57.666 -11.336  54.657  1.00  0.00     0.112 A 
HETATM    6  C9  UNL     1      57.896 -10.403  55.733  1.00  0.00     0.105 C 
HETATM    7  N5  UNL     1      58.098  -9.661  56.591  1.00  0.00    -0.191 NA
HETATM    8  C10 UNL     1      58.723 -11.999  54.069  1.00  0.00     0.133 A 
HETATM    9  N6  UNL     1      58.492 -12.872  53.062  1.00  0.00    -0.200 N 
ATOM     10  H6  UNL     1      59.285 -13.355  52.638  1.00  0.00     0.183 HD
ENDROOT
BRANCH   4  11
HETATM   11  O1  UNL     1      55.345 -10.937  54.767  1.00  0.00    -0.339 OA
HETATM   12  C7  UNL     1      54.035 -11.407  54.516  1.00  0.00     0.211 C 
ENDBRANCH   4  11
BRANCH   1  13
HETATM   13  N3  UNL     1      57.016 -13.958  51.636  1.00  0.00    -0.174 N 
ATOM     14  H3  UNL     1      57.131 -13.643  50.672  1.00  0.00     0.186 HD
BRANCH  13  15
HETATM   15  C4  UNL     1      56.599 -15.294  51.875  1.00  0.00     0.155 C 
HETATM   16  N2  UNL     1      57.459 -16.138  52.472  1.00  0.00    -0.322 N 
HETATM   17  C3  UNL     1      57.375 -17.481  52.477  1.00  0.00     0.176 C 
ATOM     18  H2  UNL     1      58.247 -15.721  52.966  1.00  0.00     0.169 HD
HETATM   19  C13 UNL     1      56.312 -18.289  52.133  1.00  0.00     0.291 C 
HETATM   20  N9  UNL     1      55.073 -17.932  51.748  1.00  0.00    -0.305 N 
HETATM   21  O3  UNL     1      56.563 -19.523  52.198  1.00  0.00    -0.264 OA
HETATM   22  C12 UNL     1      54.588 -16.696  51.543  1.00  0.00     0.134 C 
ATOM     23  H9  UNL     1      54.419 -18.699  51.593  1.00  0.00     0.171 HD
HETATM   24  C11 UNL     1      55.303 -15.531  51.428  1.00  0.00     0.142 C 
BRANCH  17  25
HETATM   25  N1  UNL     1      58.461 -18.096  52.865  1.00  0.00    -0.349 N 
ATOM     26  H1  UNL     1      58.852 -18.843  52.290  1.00  0.00     0.167 HD
BRANCH  25  27
HETATM   27  C2  UNL     1      59.094 -17.738  54.065  1.00  0.00     0.079 C 
HETATM   28  C1  UNL     1      60.394 -17.856  54.251  1.00  0.00     0.029 C 
ENDBRANCH  25  27
ENDBRANCH  17  25
BRANCH  22  29
HETATM   29  N8  UNL     1      53.288 -16.580  51.436  1.00  0.00    -0.383 N 
ATOM     30  H82 UNL     1      52.908 -15.634  51.442  1.00  0.00     0.157 HD
ATOM     31  H81 UNL     1      52.770 -17.456  51.358  1.00  0.00     0.157 HD
ENDBRANCH  22  29
BRANCH  24  32
HETATM   32  N7  UNL     1      54.652 -14.441  50.788  1.00  0.00    -0.262 N 
ATOM     33  H7  UNL     1      54.734 -14.345  49.775  1.00  0.00     0.194 HD
BRANCH  32  34
HETATM   34  O2  UNL     1      53.983 -13.595  51.423  1.00  0.00    -0.289 OA
ATOM     35  H2  UNL     1      53.710 -12.770  51.038  1.00  0.00     0.244 HD
ENDBRANCH  32  34
ENDBRANCH  24  32
ENDBRANCH  13  15
ENDBRANCH   1  13
TORSDOF 8
ENDMDL
MODEL 5
REMARK VINA RESULT: -7.470759155      1.281      1.305
REMARK  8 active torsions:
REMARK  status: ('A' for Active; 'I' for Inactive)
REMARK    1  A    between atoms: C2_2  and  N1_3 
REMARK    2  A    between atoms: N1_3  and  C3_5 
REMARK    3  A    between atoms: C4_8  and  N3_9 
REMARK    4  A    between atoms: N3_9  and  C5_11 
REMARK    5  A    between atoms: C6_14  and  O1_15 
REMARK    6  A    between atoms: C11_23  and  N7_24 
REMARK    7  A    between atoms: N7_24  and  O2_26 
REMARK    8  A    between atoms: C12_28  and  N8_29 
ROOT
HETATM    1  C5  UNL     1      57.805 -13.402  52.869  1.00  0.00     0.685 A 
HETATM    2  N4  UNL     1      56.554 -12.999  53.148  1.00  0.00    -0.169 N 
ATOM      3  H4  UNL     1      55.768 -13.456  52.687  1.00  0.00     0.186 HD
HETATM    4  C6  UNL     1      56.316 -12.003  54.024  1.00  0.00     0.179 A 
HETATM    5  C8  UNL     1      57.361 -11.361  54.667  1.00  0.00     0.112 A 
HETATM    6  C9  UNL     1      57.143 -10.292  55.611  1.00  0.00     0.105 C 
HETATM    7  N5  UNL     1      56.988  -9.437  56.367  1.00  0.00    -0.191 NA
HETATM    8  C10 UNL     1      58.641 -11.784  54.373  1.00  0.00     0.133 A 
HETATM    9  N6  UNL     1      58.829 -12.789  53.487  1.00  0.00    -0.200 N 
ATOM     10  H6  UNL     1      59.782 -13.091  53.281  1.00  0.00     0.183 HD
ENDROOT
BRANCH   4  11
HETATM   11  O1  UNL     1      55.038 -11.572  54.325  1.00  0.00    -0.339 OA
HETATM   12  C7  UNL     1      53.959 -12.434  54.017  1.00  0.00     0.211 C 
ENDBRANCH   4  11
BRANCH   1  13
HETATM   13  N3  UNL     1      57.968 -14.367  52.017  1.00  0.00    -0.174 N 
ATOM     14  H3  UNL     1      58.853 -14.435  51.514  1.00  0.00     0.186 HD
BRANCH  13  15
HETATM   15  C4  UNL     1      56.957 -15.331  51.761  1.00  0.00     0.155 C 
HETATM   16  N2  UNL     1      55.787 -14.912  51.247  1.00  0.00    -0.322 N 
HETATM   17  C3  UNL     1      54.630 -15.599  51.251  1.00  0.00     0.176 C 
ATOM     18  H2  UNL     1      55.776 -13.989  50.814  1.00  0.00     0.169 HD
HETATM   19  C13 UNL     1      54.410 -16.935  51.516  1.00  0.00     0.291 C 
HETATM   20  N9  UNL     1      55.308 -17.897  51.793  1.00  0.00    -0.305 N 
HETATM   21  O3  UNL     1      53.195 -17.270  51.488  1.00  0.00    -0.264 OA
HETATM   22  C12 UNL     1      56.639 -17.777  51.943  1.00  0.00     0.134 C 
ATOM     23  H9  UNL     1      54.931 -18.838  51.904  1.00  0.00     0.171 HD
HETATM   24  C11 UNL     1      57.356 -16.619  52.102  1.00  0.00     0.142 C 
BRANCH  17  25
HETATM   25  N1  UNL     1      53.571 -14.890  50.962  1.00  0.00    -0.349 N 
ATOM     26  H1  UNL     1      52.642 -15.294  51.085  1.00  0.00     0.167 HD
BRANCH  25  27
HETATM   27  C2  UNL     1      53.700 -13.577  50.483  1.00  0.00     0.079 C 
HETATM   28  C1  UNL     1      53.042 -13.130  49.432  1.00  0.00     0.029 C 
ENDBRANCH  25  27
ENDBRANCH  17  25
BRANCH  22  29
HETATM   29  N8  UNL     1      57.337 -18.884  51.941  1.00  0.00    -0.383 N 
ATOM     30  H82 UNL     1      57.567 -19.286  52.850  1.00  0.00     0.157 HD
ATOM     31  H81 UNL     1      57.590 -19.248  51.022  1.00  0.00     0.157 HD
ENDBRANCH  22  29
BRANCH  24  32
HETATM   32  N7  UNL     1      58.653 -16.742  52.673  1.00  0.00    -0.262 N 
ATOM     33  H7  UNL     1      59.465 -16.744  52.056  1.00  0.00     0.194 HD
BRANCH  32  34
HETATM   34  O2  UNL     1      58.832 -16.847  53.908  1.00  0.00    -0.289 OA
ATOM     35  H2  UNL     1      59.426 -17.488  54.282  1.00  0.00     0.244 HD
ENDBRANCH  32  34
ENDBRANCH  24  32
ENDBRANCH  13  15
ENDBRANCH   1  13
TORSDOF 8
ENDMDL
