MODEL 1
REMARK VINA RESULT: -7.988793520      0.000      0.000
REMARK  4 active torsions:
REMARK  status: ('A' for Active; 'I' for Inactive)
REMARK    1  A    between atoms: C3_9  and  N3_10 
REMARK    2  A    between atoms: N3_10  and  C4_11 
REMARK    3  A    between atoms: N3_10  and  N5_20 
REMARK    4  A    between atoms: C4_11  and  C5_12 
ROOT
HETATM    1  O1  UNL     1      52.824  -9.320  56.024  1.00  0.00    -0.266 OA
HETATM    2  C1  UNL     1      53.957  -9.738  55.594  1.00  0.00     0.274 A 
HETATM    3  N1  UNL     1      55.060  -9.629  56.355  1.00  0.00    -0.305 N 
ATOM      4  H1  UNL     1      55.014  -9.213  57.285  1.00  0.00     0.170 HD
HETATM    5  C2  UNL     1      56.222 -10.079  55.862  1.00  0.00     0.144 A 
HETATM    6  N2  UNL     1      57.480 -10.128  56.329  1.00  0.00    -0.242 N 
ATOM      7  H2  UNL     1      57.771  -9.786  57.246  1.00  0.00     0.196 HD
HETATM    8  O2  UNL     1      58.271 -10.666  55.464  1.00  0.00    -0.215 OA
HETATM    9  C3  UNL     1      57.605 -11.016  54.357  1.00  0.00     0.206 A 
HETATM   10  C9  UNL     1      56.308 -10.652  54.593  1.00  0.00     0.073 A 
HETATM   11  C10 UNL     1      55.178 -10.759  53.828  1.00  0.00    -0.006 A 
HETATM   12  C11 UNL     1      53.967 -10.295  54.326  1.00  0.00     0.104 A 
HETATM   13  N6  UNL     1      52.957 -10.522  53.339  1.00  0.00    -0.385 N 
ATOM     14  H6  UNL     1      52.084 -10.009  53.219  1.00  0.00     0.159 HD
HETATM   15  C12 UNL     1      53.437 -11.637  52.546  1.00  0.00     0.124 C 
HETATM   16  C13 UNL     1      54.932 -11.295  52.478  1.00  0.00     0.061 C 
ENDROOT
BRANCH   9  17
HETATM   17  N3  UNL     1      58.220 -11.634  53.229  1.00  0.00    -0.206 N 
BRANCH  17  18
HETATM   18  C4  UNL     1      58.373 -13.079  53.140  1.00  0.00     0.193 C 
BRANCH  18  19
HETATM   19  C5  UNL     1      57.594 -13.629  51.989  1.00  0.00     0.229 C 
HETATM   20  C6  UNL     1      56.364 -14.351  52.554  1.00  0.00     0.202 C 
HETATM   21  O3  UNL     1      56.842 -15.263  53.470  1.00  0.00    -0.387 OA
HETATM   22  C7  UNL     1      57.640 -16.194  52.838  1.00  0.00     0.195 C 
HETATM   23  C8  UNL     1      57.891 -15.893  51.393  1.00  0.00     0.259 C 
HETATM   24  N4  UNL     1      58.365 -14.554  51.184  1.00  0.00    -0.065 N 
ATOM     25  H42 UNL     1      58.363 -14.297  50.197  1.00  0.00     0.277 HD
ATOM     26  H41 UNL     1      59.367 -14.471  51.357  1.00  0.00     0.277 HD
ENDBRANCH  18  19
ENDBRANCH  17  18
BRANCH  17  27
HETATM   27  N5  UNL     1      58.682 -10.801  52.215  1.00  0.00    -0.035 N 
HETATM   28  O4  UNL     1      59.900 -10.566  52.137  1.00  0.00    -0.516 OA
HETATM   29  O5  UNL     1      57.849 -10.228  51.301  1.00  0.00    -0.516 OA
ENDBRANCH  17  27
ENDBRANCH   9  17
TORSDOF 4
ENDMDL
MODEL 2
REMARK VINA RESULT: -7.917252341      2.017      5.081
REMARK  4 active torsions:
REMARK  status: ('A' for Active; 'I' for Inactive)
REMARK    1  A    between atoms: C3_9  and  N3_10 
REMARK    2  A    between atoms: N3_10  and  C4_11 
REMARK    3  A    between atoms: N3_10  and  N5_20 
REMARK    4  A    between atoms: C4_11  and  C5_12 
ROOT
HETATM    1  O1  UNL     1      53.829 -16.300  51.689  1.00  0.00    -0.266 OA
HETATM    2  C1  UNL     1      54.632 -15.347  51.993  1.00  0.00     0.274 A 
HETATM    3  N1  UNL     1      55.807 -15.609  52.593  1.00  0.00    -0.305 N 
ATOM      4  H1  UNL     1      56.078 -16.567  52.816  1.00  0.00     0.170 HD
HETATM    5  C2  UNL     1      56.613 -14.581  52.892  1.00  0.00     0.144 A 
HETATM    6  N2  UNL     1      57.819 -14.477  53.475  1.00  0.00    -0.242 N 
ATOM      7  H2  UNL     1      58.366 -15.267  53.817  1.00  0.00     0.196 HD
HETATM    8  O2  UNL     1      58.191 -13.244  53.543  1.00  0.00    -0.215 OA
HETATM    9  C3  UNL     1      57.267 -12.433  53.013  1.00  0.00     0.206 A 
HETATM   10  C9  UNL     1      56.263 -13.263  52.597  1.00  0.00     0.073 A 
HETATM   11  C10 UNL     1      55.065 -13.010  51.985  1.00  0.00    -0.006 A 
HETATM   12  C11 UNL     1      54.219 -14.066  51.670  1.00  0.00     0.104 A 
HETATM   13  N6  UNL     1      53.047 -13.534  51.046  1.00  0.00    -0.385 N 
ATOM     14  H6  UNL     1      52.117 -13.951  51.020  1.00  0.00     0.159 HD
HETATM   15  C12 UNL     1      53.462 -12.276  50.456  1.00  0.00     0.124 C 
HETATM   16  C13 UNL     1      54.409 -11.765  51.550  1.00  0.00     0.061 C 
ENDROOT
BRANCH   9  17
HETATM   17  N3  UNL     1      57.405 -11.015  52.947  1.00  0.00    -0.206 N 
BRANCH  17  18
HETATM   18  C4  UNL     1      56.692 -10.137  53.863  1.00  0.00     0.193 C 
BRANCH  18  19
HETATM   19  C5  UNL     1      56.972 -10.505  55.284  1.00  0.00     0.229 C 
HETATM   20  C6  UNL     1      55.981  -9.744  56.173  1.00  0.00     0.202 C 
HETATM   21  O3  UNL     1      56.112  -8.412  55.841  1.00  0.00    -0.387 OA
HETATM   22  C7  UNL     1      57.387  -7.975  56.138  1.00  0.00     0.195 C 
HETATM   23  C8  UNL     1      58.309  -9.064  56.590  1.00  0.00     0.259 C 
HETATM   24  N4  UNL     1      58.324 -10.181  55.689  1.00  0.00    -0.065 N 
ATOM     25  H42 UNL     1      58.809 -10.986  56.085  1.00  0.00     0.277 HD
ATOM     26  H41 UNL     1      58.936 -10.020  54.889  1.00  0.00     0.277 HD
ENDBRANCH  18  19
ENDBRANCH  17  18
BRANCH  17  27
HETATM   27  N5  UNL     1      58.241 -10.498  51.964  1.00  0.00    -0.035 N 
HETATM   28  O4  UNL     1      57.740 -10.079  50.907  1.00  0.00    -0.516 OA
HETATM   29  O5  UNL     1      59.595 -10.433  52.112  1.00  0.00    -0.516 OA
ENDBRANCH  17  27
ENDBRANCH   9  17
TORSDOF 4
ENDMDL
MODEL 3
REMARK VINA RESULT: -7.857985994      2.056      5.851
REMARK  4 active torsions:
REMARK  status: ('A' for Active; 'I' for Inactive)
REMARK    1  A    between atoms: C3_9  and  N3_10 
REMARK    2  A    between atoms: N3_10  and  C4_11 
REMARK    3  A    between atoms: N3_10  and  N5_20 
REMARK    4  A    between atoms: C4_11  and  C5_12 
ROOT
HETATM    1  O1  UNL     1      54.645 -17.013  50.759  1.00  0.00    -0.266 OA
HETATM    2  C1  UNL     1      55.012 -15.835  51.109  1.00  0.00     0.274 A 
HETATM    3  N1  UNL     1      54.315 -14.755  50.712  1.00  0.00    -0.305 N 
ATOM      4  H1  UNL     1      53.485 -14.855  50.127  1.00  0.00     0.170 HD
HETATM    5  C2  UNL     1      54.738 -13.545  51.102  1.00  0.00     0.144 A 
HETATM    6  N2  UNL     1      54.301 -12.291  50.898  1.00  0.00    -0.242 N 
ATOM      7  H2  UNL     1      53.479 -12.048  50.345  1.00  0.00     0.196 HD
HETATM    8  O2  UNL     1      55.061 -11.437  51.494  1.00  0.00    -0.215 OA
HETATM    9  C3  UNL     1      56.060 -12.052  52.140  1.00  0.00     0.206 A 
HETATM   10  C9  UNL     1      55.869 -13.385  51.902  1.00  0.00     0.073 A 
HETATM   11  C10 UNL     1      56.569 -14.492  52.302  1.00  0.00    -0.006 A 
HETATM   12  C11 UNL     1      56.143 -15.752  51.903  1.00  0.00     0.104 A 
HETATM   13  N6  UNL     1      57.039 -16.724  52.449  1.00  0.00    -0.385 N 
ATOM     14  H6  UNL     1      57.237 -17.656  52.085  1.00  0.00     0.159 HD
HETATM   15  C12 UNL     1      57.607 -16.105  53.631  1.00  0.00     0.124 C 
HETATM   16  C13 UNL     1      57.778 -14.666  53.125  1.00  0.00     0.061 C 
ENDROOT
BRANCH   9  17
HETATM   17  N3  UNL     1      57.058 -11.362  52.890  1.00  0.00    -0.206 N 
BRANCH  17  18
HETATM   18  C4  UNL     1      56.919 -11.140  54.321  1.00  0.00     0.193 C 
BRANCH  18  19
HETATM   19  C5  UNL     1      55.632 -10.447  54.632  1.00  0.00     0.229 C 
HETATM   20  C6  UNL     1      55.718  -9.020  54.076  1.00  0.00     0.202 C 
HETATM   21  O3  UNL     1      56.863  -8.468  54.610  1.00  0.00    -0.387 OA
HETATM   22  C7  UNL     1      56.755  -8.394  55.984  1.00  0.00     0.195 C 
HETATM   23  C8  UNL     1      55.524  -9.047  56.529  1.00  0.00     0.259 C 
HETATM   24  N4  UNL     1      55.357 -10.391  56.053  1.00  0.00    -0.065 N 
ATOM     25  H42 UNL     1      54.436 -10.767  56.280  1.00  0.00     0.277 HD
ATOM     26  H41 UNL     1      55.922 -11.057  56.580  1.00  0.00     0.277 HD
ENDBRANCH  18  19
ENDBRANCH  17  18
BRANCH  17  27
HETATM   27  N5  UNL     1      58.170 -10.895  52.197  1.00  0.00    -0.035 N 
HETATM   28  O4  UNL     1      59.304 -11.196  52.606  1.00  0.00    -0.516 OA
HETATM   29  O5  UNL     1      58.066 -10.116  51.083  1.00  0.00    -0.516 OA
ENDBRANCH  17  27
ENDBRANCH   9  17
TORSDOF 4
ENDMDL
MODEL 4
REMARK VINA RESULT: -7.769707058      2.658      4.296
REMARK  4 active torsions:
REMARK  status: ('A' for Active; 'I' for Inactive)
REMARK    1  A    between atoms: C3_9  and  N3_10 
REMARK    2  A    between atoms: N3_10  and  C4_11 
REMARK    3  A    between atoms: N3_10  and  N5_20 
REMARK    4  A    between atoms: C4_11  and  C5_12 
ROOT
HETATM    1  O1  UNL     1      58.309  -9.530  54.490  1.00  0.00    -0.266 OA
HETATM    2  C1  UNL     1      57.816 -10.547  53.881  1.00  0.00     0.274 A 
HETATM    3  N1  UNL     1      58.611 -11.377  53.183  1.00  0.00    -0.305 N 
ATOM      4  H1  UNL     1      59.616 -11.212  53.126  1.00  0.00     0.170 HD
HETATM    5  C2  UNL     1      58.051 -12.425  52.564  1.00  0.00     0.144 A 
HETATM    6  N2  UNL     1      58.525 -13.424  51.802  1.00  0.00    -0.242 N 
ATOM      7  H2  UNL     1      59.507 -13.546  51.554  1.00  0.00     0.196 HD
HETATM    8  O2  UNL     1      57.573 -14.209  51.428  1.00  0.00    -0.215 OA
HETATM    9  C3  UNL     1      56.393 -13.796  51.909  1.00  0.00     0.206 A 
HETATM   10  C9  UNL     1      56.678 -12.669  52.629  1.00  0.00     0.073 A 
HETATM   11  C10 UNL     1      55.880 -11.817  53.344  1.00  0.00    -0.006 A 
HETATM   12  C11 UNL     1      56.448 -10.726  53.990  1.00  0.00     0.104 A 
HETATM   13  N6  UNL     1      55.407 -10.005  54.656  1.00  0.00    -0.385 N 
ATOM     14  H6  UNL     1      55.401  -9.016  54.903  1.00  0.00     0.159 HD
HETATM   15  C12 UNL     1      54.363 -10.980  54.907  1.00  0.00     0.124 C 
HETATM   16  C13 UNL     1      54.431 -11.788  53.604  1.00  0.00     0.061 C 
ENDROOT
BRANCH   9  17
HETATM   17  N3  UNL     1      55.160 -14.467  51.660  1.00  0.00    -0.206 N 
BRANCH  17  18
HETATM   18  C4  UNL     1      54.954 -15.853  52.053  1.00  0.00     0.193 C 
BRANCH  18  19
HETATM   19  C5  UNL     1      55.301 -16.783  50.936  1.00  0.00     0.229 C 
HETATM   20  C6  UNL     1      54.316 -17.959  50.978  1.00  0.00     0.202 C 
HETATM   21  O3  UNL     1      54.386 -18.473  52.255  1.00  0.00    -0.387 OA
HETATM   22  C7  UNL     1      55.655 -18.959  52.500  1.00  0.00     0.195 C 
HETATM   23  C8  UNL     1      56.632 -18.675  51.403  1.00  0.00     0.259 C 
HETATM   24  N4  UNL     1      56.655 -17.289  51.030  1.00  0.00    -0.065 N 
ATOM     25  H42 UNL     1      57.183 -17.132  50.172  1.00  0.00     0.277 HD
ATOM     26  H41 UNL     1      57.230 -16.732  51.662  1.00  0.00     0.277 HD
ENDBRANCH  18  19
ENDBRANCH  17  18
BRANCH  17  27
HETATM   27  N5  UNL     1      54.160 -13.750  51.012  1.00  0.00    -0.035 N 
HETATM   28  O4  UNL     1      52.972 -14.006  51.271  1.00  0.00    -0.516 OA
HETATM   29  O5  UNL     1      54.431 -12.774  50.100  1.00  0.00    -0.516 OA
ENDBRANCH  17  27
ENDBRANCH   9  17
TORSDOF 4
ENDMDL
MODEL 5
REMARK VINA RESULT: -7.745895574      3.522      6.767
REMARK  4 active torsions:
REMARK  status: ('A' for Active; 'I' for Inactive)
REMARK    1  A    between atoms: C3_9  and  N3_10 
REMARK    2  A    between atoms: N3_10  and  C4_11 
REMARK    3  A    between atoms: N3_10  and  N5_20 
REMARK    4  A    between atoms: C4_11  and  C5_12 
ROOT
HETATM    1  O1  UNL     1      58.343 -17.759  52.533  1.00  0.00    -0.266 OA
HETATM    2  C1  UNL     1      57.599 -16.736  52.320  1.00  0.00     0.274 A 
HETATM    3  N1  UNL     1      58.121 -15.497  52.330  1.00  0.00    -0.305 N 
ATOM      4  H1  UNL     1      59.115 -15.350  52.506  1.00  0.00     0.170 HD
HETATM    5  C2  UNL     1      57.303 -14.459  52.104  1.00  0.00     0.144 A 
HETATM    6  N2  UNL     1      57.476 -13.129  52.044  1.00  0.00    -0.242 N 
ATOM      7  H2  UNL     1      58.369 -12.654  52.178  1.00  0.00     0.196 HD
HETATM    8  O2  UNL     1      56.361 -12.531  51.793  1.00  0.00    -0.215 OA
HETATM    9  C3  UNL     1      55.361 -13.414  51.667  1.00  0.00     0.206 A 
HETATM   10  C9  UNL     1      55.941 -14.637  51.861  1.00  0.00     0.073 A 
HETATM   11  C10 UNL     1      55.422 -15.904  51.852  1.00  0.00    -0.006 A 
HETATM   12  C11 UNL     1      56.258 -16.988  52.087  1.00  0.00     0.104 A 
HETATM   13  N6  UNL     1      55.473 -18.183  52.024  1.00  0.00    -0.385 N 
ATOM     14  H6  UNL     1      55.667 -19.074  52.480  1.00  0.00     0.159 HD
HETATM   15  C12 UNL     1      54.345 -17.859  51.173  1.00  0.00     0.124 C 
HETATM   16  C13 UNL     1      54.061 -16.424  51.637  1.00  0.00     0.061 C 
ENDROOT
BRANCH   9  17
HETATM   17  N3  UNL     1      54.013 -13.044  51.388  1.00  0.00    -0.206 N 
BRANCH  17  18
HETATM   18  C4  UNL     1      53.547 -12.828  50.026  1.00  0.00     0.193 C 
BRANCH  18  19
HETATM   19  C5  UNL     1      53.016 -11.442  49.856  1.00  0.00     0.229 C 
HETATM   20  C6  UNL     1      51.656 -11.541  49.152  1.00  0.00     0.202 C 
HETATM   21  O3  UNL     1      51.873 -12.266  48.000  1.00  0.00    -0.387 OA
HETATM   22  C7  UNL     1      52.743 -11.588  47.171  1.00  0.00     0.195 C 
HETATM   23  C8  UNL     1      53.322 -10.352  47.785  1.00  0.00     0.259 C 
HETATM   24  N4  UNL     1      53.897 -10.597  49.078  1.00  0.00    -0.065 N 
ATOM     25  H42 UNL     1      54.127  -9.730  49.565  1.00  0.00     0.277 HD
ATOM     26  H41 UNL     1      54.839 -10.983  49.011  1.00  0.00     0.277 HD
ENDBRANCH  18  19
ENDBRANCH  17  18
BRANCH  17  27
HETATM   27  N5  UNL     1      53.156 -12.884  52.471  1.00  0.00    -0.035 N 
HETATM   28  O4  UNL     1      52.005 -13.350  52.404  1.00  0.00    -0.516 OA
HETATM   29  O5  UNL     1      53.527 -12.232  53.610  1.00  0.00    -0.516 OA
ENDBRANCH  17  27
ENDBRANCH   9  17
TORSDOF 4
ENDMDL
