MODEL 1
REMARK VINA RESULT: -8.718838770      0.000      0.000
REMARK  15 active torsions:
REMARK  status: ('A' for Active; 'I' for Inactive)
REMARK    1  A    between atoms: N1_1  and  C1_5 
REMARK    2  A    between atoms: C3_7  and  O1_8 
REMARK    3  A    between atoms: O1_8  and  C4_9 
REMARK    4  A    between atoms: C7_13  and  O2_14 
REMARK    5  A    between atoms: O2_14  and  C8_15 
REMARK    6  A    between atoms: C8_15  and  C9_18 
REMARK    7  A    between atoms: C11_22  and  N2_23 
REMARK    8  A    between atoms: N2_23  and  C12_25 
REMARK    9  A    between atoms: C12_25  and  C13_26 
REMARK   10  A    between atoms: C12_25  and  C16_32 
REMARK   11  A    between atoms: C13_26  and  O3_27 
REMARK   12  A    between atoms: O3_27  and  C14_28 
REMARK   13  A    between atoms: C16_32  and  C17_33 
REMARK   14  A    between atoms: C27_43  and  O4_44 
REMARK   15  A    between atoms: C28_46  and  O5_47 
ROOT
HETATM    1  C4  UNL     1      47.412  35.290  30.612  1.00  0.00     0.100 A 
HETATM    2  C5  UNL     1      48.137  35.926  31.640  1.00  0.00     0.066 A 
HETATM    3  C6  UNL     1      48.514  35.286  32.754  1.00  0.00     0.073 A 
HETATM    4 CL1  UNL     1      49.418  36.150  33.992  1.00  0.00    -0.081 Cl
HETATM    5  C7  UNL     1      48.191  33.962  32.917  1.00  0.00     0.138 A 
HETATM    6  C10 UNL     1      47.482  33.320  31.924  1.00  0.00     0.180 A 
HETATM    7  F4  UNL     1      47.162  32.038  32.149  1.00  0.00    -0.201 F 
HETATM    8  C11 UNL     1      47.065  33.904  30.764  1.00  0.00     0.104 A 
ENDROOT
BRANCH   8   9
HETATM    9  N2  UNL     1      46.323  33.319  29.744  1.00  0.00    -0.378 N 
ATOM     10  H2  UNL     1      45.408  33.754  29.629  1.00  0.00     0.160 HD
BRANCH   9  11
HETATM   11  C12 UNL     1      46.537  32.271  28.836  1.00  0.00     0.107 C 
BRANCH  11  12
HETATM   12  C13 UNL     1      45.756  32.477  27.521  1.00  0.00     0.202 C 
BRANCH  12  13
HETATM   13  O3  UNL     1      44.382  32.062  27.727  1.00  0.00    -0.333 OA
BRANCH  13  14
HETATM   14  C14 UNL     1      44.218  30.729  28.072  1.00  0.00     0.158 A 
HETATM   15  C15 UNL     1      44.319  29.406  27.837  1.00  0.00     0.146 A 
HETATM   16  N3  UNL     1      43.755  29.811  29.079  1.00  0.00    -0.342 N 
ATOM     17  H3  UNL     1      43.340  29.606  29.989  1.00  0.00     0.167 HD
ENDBRANCH  13  14
ENDBRANCH  12  13
ENDBRANCH  11  12
BRANCH  11  18
HETATM   18  C16 UNL     1      47.878  31.752  28.569  1.00  0.00     0.036 C 
BRANCH  18  19
HETATM   19  C17 UNL     1      48.391  30.470  29.042  1.00  0.00    -0.037 C 
HETATM   20  C18 UNL     1      47.443  29.701  29.917  1.00  0.00     0.014 C 
HETATM   21  C19 UNL     1      48.089  28.523  30.622  1.00  0.00    -0.013 C 
HETATM   22  C20 UNL     1      48.552  27.591  29.524  1.00  0.00     0.009 C 
HETATM   23  C24 UNL     1      49.184  28.982  31.511  1.00  0.00     0.009 C 
HETATM   24  C21 UNL     1      49.562  28.342  28.699  1.00  0.00    -0.013 C 
HETATM   25  C22 UNL     1      50.715  28.702  29.612  1.00  0.00     0.009 C 
HETATM   26  C26 UNL     1      48.990  29.561  28.004  1.00  0.00     0.014 C 
HETATM   27  C23 UNL     1      50.204  29.676  30.619  1.00  0.00    -0.013 C 
HETATM   28  C25 UNL     1      49.587  30.839  29.955  1.00  0.00     0.014 C 
ENDBRANCH  18  19
ENDBRANCH  11  18
ENDBRANCH   9  11
ENDBRANCH   8   9
BRANCH   1  29
HETATM   29  O1  UNL     1      47.078  35.961  29.564  1.00  0.00    -0.341 OA
BRANCH  29  30
HETATM   30  C3  UNL     1      46.773  36.609  28.518  1.00  0.00     0.162 C 
HETATM   31  C2  UNL     1      45.553  36.127  27.705  1.00  0.00     0.070 C 
HETATM   32  C1  UNL     1      45.668  36.900  26.408  1.00  0.00     0.217 C 
HETATM   33  C28 UNL     1      47.067  37.424  26.331  1.00  0.00     0.179 C 
HETATM   34  C27 UNL     1      47.805  36.622  27.365  1.00  0.00     0.178 C 
BRANCH  32  35
HETATM   35  N1  UNL     1      45.381  36.049  25.263  1.00  0.00    -0.072 N 
ATOM     36  H13 UNL     1      46.220  35.575  24.929  1.00  0.00     0.274 HD
ATOM     37  H12 UNL     1      44.836  35.230  25.532  1.00  0.00     0.274 HD
ATOM     38  H11 UNL     1      44.926  36.577  24.519  1.00  0.00     0.274 HD
ENDBRANCH  32  35
BRANCH  33  39
HETATM   39  O5  UNL     1      47.620  37.316  25.060  1.00  0.00    -0.391 OA
ATOM     40  H5  UNL     1      47.231  37.913  24.432  1.00  0.00     0.210 HD
ENDBRANCH  33  39
BRANCH  34  41
HETATM   41  O4  UNL     1      48.060  35.360  26.897  1.00  0.00    -0.390 OA
ATOM     42  H4  UNL     1      47.934  35.300  25.958  1.00  0.00     0.210 HD
ENDBRANCH  34  41
ENDBRANCH  29  30
ENDBRANCH   1  29
BRANCH   5  43
HETATM   43  O2  UNL     1      48.572  33.298  34.050  1.00  0.00    -0.277 OA
BRANCH  43  44
HETATM   44  C8  UNL     1      47.815  33.147  35.215  1.00  0.00     0.385 C 
HETATM   45  F1  UNL     1      47.838  34.246  36.041  1.00  0.00    -0.172 F 
HETATM   46  F2  UNL     1      46.496  32.837  34.969  1.00  0.00    -0.172 F 
BRANCH  44  47
HETATM   47  C9  UNL     1      48.386  31.967  36.003  1.00  0.00     0.334 C 
HETATM   48  F3  UNL     1      47.849  31.921  37.276  1.00  0.00    -0.246 F 
ENDBRANCH  44  47
ENDBRANCH  43  44
ENDBRANCH   5  43
TORSDOF 15
ENDMDL
MODEL 2
REMARK VINA RESULT: -8.703288103      0.091      1.143
REMARK  15 active torsions:
REMARK  status: ('A' for Active; 'I' for Inactive)
REMARK    1  A    between atoms: N1_1  and  C1_5 
REMARK    2  A    between atoms: C3_7  and  O1_8 
REMARK    3  A    between atoms: O1_8  and  C4_9 
REMARK    4  A    between atoms: C7_13  and  O2_14 
REMARK    5  A    between atoms: O2_14  and  C8_15 
REMARK    6  A    between atoms: C8_15  and  C9_18 
REMARK    7  A    between atoms: C11_22  and  N2_23 
REMARK    8  A    between atoms: N2_23  and  C12_25 
REMARK    9  A    between atoms: C12_25  and  C13_26 
REMARK   10  A    between atoms: C12_25  and  C16_32 
REMARK   11  A    between atoms: C13_26  and  O3_27 
REMARK   12  A    between atoms: O3_27  and  C14_28 
REMARK   13  A    between atoms: C16_32  and  C17_33 
REMARK   14  A    between atoms: C27_43  and  O4_44 
REMARK   15  A    between atoms: C28_46  and  O5_47 
ROOT
HETATM    1  C4  UNL     1      47.406  35.307  30.607  1.00  0.00     0.100 A 
HETATM    2  C5  UNL     1      48.142  35.937  31.631  1.00  0.00     0.066 A 
HETATM    3  C6  UNL     1      48.513  35.297  32.746  1.00  0.00     0.073 A 
HETATM    4 CL1  UNL     1      49.431  36.153  33.980  1.00  0.00    -0.081 Cl
HETATM    5  C7  UNL     1      48.173  33.978  32.915  1.00  0.00     0.138 A 
HETATM    6  C10 UNL     1      47.454  33.341  31.926  1.00  0.00     0.180 A 
HETATM    7  F4  UNL     1      47.117  32.064  32.156  1.00  0.00    -0.201 F 
HETATM    8  C11 UNL     1      47.042  33.926  30.765  1.00  0.00     0.104 A 
ENDROOT
BRANCH   8   9
HETATM    9  N2  UNL     1      46.289  33.348  29.749  1.00  0.00    -0.378 N 
ATOM     10  H2  UNL     1      45.388  33.808  29.621  1.00  0.00     0.160 HD
BRANCH   9  11
HETATM   11  C12 UNL     1      46.479  32.280  28.858  1.00  0.00     0.107 C 
BRANCH  11  12
HETATM   12  C13 UNL     1      45.732  32.499  27.526  1.00  0.00     0.202 C 
BRANCH  12  13
HETATM   13  O3  UNL     1      44.354  32.077  27.691  1.00  0.00    -0.333 OA
BRANCH  13  14
HETATM   14  C14 UNL     1      44.188  30.746  28.043  1.00  0.00     0.158 A 
HETATM   15  C15 UNL     1      44.304  29.422  27.823  1.00  0.00     0.146 A 
HETATM   16  N3  UNL     1      43.697  29.834  29.043  1.00  0.00    -0.342 N 
ATOM     17  H3  UNL     1      43.254  29.634  29.940  1.00  0.00     0.167 HD
ENDBRANCH  13  14
ENDBRANCH  12  13
ENDBRANCH  11  12
BRANCH  11  18
HETATM   18  C16 UNL     1      47.803  31.706  28.624  1.00  0.00     0.036 C 
BRANCH  18  19
HETATM   19  C17 UNL     1      48.343  30.534  29.307  1.00  0.00    -0.037 C 
HETATM   20  C18 UNL     1      49.542  30.809  30.167  1.00  0.00     0.014 C 
HETATM   21  C19 UNL     1      50.252  29.553  30.636  1.00  0.00    -0.013 C 
HETATM   22  C20 UNL     1      49.248  28.805  31.485  1.00  0.00     0.009 C 
HETATM   23  C24 UNL     1      50.750  28.770  29.478  1.00  0.00     0.009 C 
HETATM   24  C21 UNL     1      48.083  28.462  30.596  1.00  0.00    -0.013 C 
HETATM   25  C22 UNL     1      48.605  27.576  29.486  1.00  0.00     0.009 C 
HETATM   26  C26 UNL     1      47.357  29.677  30.054  1.00  0.00     0.014 C 
HETATM   27  C23 UNL     1      49.529  28.397  28.651  1.00  0.00    -0.013 C 
HETATM   28  C25 UNL     1      48.852  29.616  28.169  1.00  0.00     0.014 C 
ENDBRANCH  18  19
ENDBRANCH  11  18
ENDBRANCH   9  11
ENDBRANCH   8   9
BRANCH   1  29
HETATM   29  O1  UNL     1      47.079  35.978  29.557  1.00  0.00    -0.341 OA
BRANCH  29  30
HETATM   30  C3  UNL     1      46.774  36.621  28.507  1.00  0.00     0.162 C 
HETATM   31  C2  UNL     1      45.559  36.128  27.693  1.00  0.00     0.070 C 
HETATM   32  C1  UNL     1      45.674  36.895  26.393  1.00  0.00     0.217 C 
HETATM   33  C28 UNL     1      47.070  37.426  26.317  1.00  0.00     0.179 C 
HETATM   34  C27 UNL     1      47.809  36.633  27.357  1.00  0.00     0.178 C 
BRANCH  32  35
HETATM   35  N1  UNL     1      45.395  36.038  25.251  1.00  0.00    -0.072 N 
ATOM     36  H13 UNL     1      46.210  35.941  24.646  1.00  0.00     0.274 HD
ATOM     37  H12 UNL     1      45.292  35.062  25.531  1.00  0.00     0.274 HD
ATOM     38  H11 UNL     1      44.581  36.368  24.733  1.00  0.00     0.274 HD
ENDBRANCH  32  35
BRANCH  33  39
HETATM   39  O5  UNL     1      47.628  37.314  25.048  1.00  0.00    -0.391 OA
ATOM     40  H5  UNL     1      48.543  37.058  25.064  1.00  0.00     0.210 HD
ENDBRANCH  33  39
BRANCH  34  41
HETATM   41  O4  UNL     1      48.072  35.370  26.896  1.00  0.00    -0.390 OA
ATOM     42  H4  UNL     1      48.442  35.384  26.022  1.00  0.00     0.210 HD
ENDBRANCH  34  41
ENDBRANCH  29  30
ENDBRANCH   1  29
BRANCH   5  43
HETATM   43  O2  UNL     1      48.548  33.313  34.050  1.00  0.00    -0.277 OA
BRANCH  43  44
HETATM   44  C8  UNL     1      47.789  33.171  35.215  1.00  0.00     0.385 C 
HETATM   45  F1  UNL     1      47.808  34.277  36.031  1.00  0.00    -0.172 F 
HETATM   46  F2  UNL     1      46.471  32.857  34.970  1.00  0.00    -0.172 F 
BRANCH  44  47
HETATM   47  C9  UNL     1      48.361  31.999  36.015  1.00  0.00     0.334 C 
HETATM   48  F3  UNL     1      47.783  31.933  37.269  1.00  0.00    -0.246 F 
ENDBRANCH  44  47
ENDBRANCH  43  44
ENDBRANCH   5  43
TORSDOF 15
ENDMDL
MODEL 3
REMARK VINA RESULT: -8.613130427      1.162      1.887
REMARK  15 active torsions:
REMARK  status: ('A' for Active; 'I' for Inactive)
REMARK    1  A    between atoms: N1_1  and  C1_5 
REMARK    2  A    between atoms: C3_7  and  O1_8 
REMARK    3  A    between atoms: O1_8  and  C4_9 
REMARK    4  A    between atoms: C7_13  and  O2_14 
REMARK    5  A    between atoms: O2_14  and  C8_15 
REMARK    6  A    between atoms: C8_15  and  C9_18 
REMARK    7  A    between atoms: C11_22  and  N2_23 
REMARK    8  A    between atoms: N2_23  and  C12_25 
REMARK    9  A    between atoms: C12_25  and  C13_26 
REMARK   10  A    between atoms: C12_25  and  C16_32 
REMARK   11  A    between atoms: C13_26  and  O3_27 
REMARK   12  A    between atoms: O3_27  and  C14_28 
REMARK   13  A    between atoms: C16_32  and  C17_33 
REMARK   14  A    between atoms: C27_43  and  O4_44 
REMARK   15  A    between atoms: C28_46  and  O5_47 
ROOT
HETATM    1  C4  UNL     1      47.318  35.334  30.438  1.00  0.00     0.100 A 
HETATM    2  C5  UNL     1      48.065  35.972  31.448  1.00  0.00     0.066 A 
HETATM    3  C6  UNL     1      48.475  35.332  32.550  1.00  0.00     0.073 A 
HETATM    4 CL1  UNL     1      49.404  36.199  33.767  1.00  0.00    -0.081 Cl
HETATM    5  C7  UNL     1      48.166  34.006  32.717  1.00  0.00     0.138 A 
HETATM    6  C10 UNL     1      47.436  33.361  31.741  1.00  0.00     0.180 A 
HETATM    7  F4  UNL     1      47.130  32.076  31.971  1.00  0.00    -0.201 F 
HETATM    8  C11 UNL     1      46.985  33.945  30.595  1.00  0.00     0.104 A 
ENDROOT
BRANCH   8   9
HETATM    9  N2  UNL     1      46.220  33.357  29.592  1.00  0.00    -0.378 N 
ATOM     10  H2  UNL     1      45.264  33.713  29.572  1.00  0.00     0.160 HD
BRANCH   9  11
HETATM   11  C12 UNL     1      46.455  32.390  28.603  1.00  0.00     0.107 C 
BRANCH  11  12
HETATM   12  C13 UNL     1      45.164  32.016  27.844  1.00  0.00     0.202 C 
BRANCH  12  13
HETATM   13  O3  UNL     1      44.852  30.626  28.118  1.00  0.00    -0.333 OA
BRANCH  13  14
HETATM   14  C14 UNL     1      44.110  30.409  29.270  1.00  0.00     0.158 A 
HETATM   15  C15 UNL     1      43.017  29.982  29.932  1.00  0.00     0.146 A 
HETATM   16  N3  UNL     1      44.075  30.541  30.703  1.00  0.00    -0.342 N 
ATOM     17  H3  UNL     1      44.490  30.821  31.592  1.00  0.00     0.167 HD
ENDBRANCH  13  14
ENDBRANCH  12  13
ENDBRANCH  11  12
BRANCH  11  18
HETATM   18  C16 UNL     1      47.586  32.497  27.683  1.00  0.00     0.036 C 
BRANCH  18  19
HETATM   19  C17 UNL     1      48.926  31.975  27.936  1.00  0.00    -0.037 C 
HETATM   20  C18 UNL     1      49.599  31.373  26.736  1.00  0.00     0.014 C 
HETATM   21  C19 UNL     1      50.854  30.590  27.075  1.00  0.00    -0.013 C 
HETATM   22  C20 UNL     1      51.813  31.593  27.678  1.00  0.00     0.009 C 
HETATM   23  C24 UNL     1      50.536  29.456  27.977  1.00  0.00     0.009 C 
HETATM   24  C21 UNL     1      51.166  32.134  28.924  1.00  0.00    -0.013 C 
HETATM   25  C22 UNL     1      50.953  30.968  29.866  1.00  0.00     0.009 C 
HETATM   26  C26 UNL     1      49.878  32.888  28.659  1.00  0.00     0.014 C 
HETATM   27  C23 UNL     1      49.946  30.063  29.242  1.00  0.00    -0.013 C 
HETATM   28  C25 UNL     1      48.709  30.800  28.921  1.00  0.00     0.014 C 
ENDBRANCH  18  19
ENDBRANCH  11  18
ENDBRANCH   9  11
ENDBRANCH   8   9
BRANCH   1  29
HETATM   29  O1  UNL     1      46.952  36.005  29.399  1.00  0.00    -0.341 OA
BRANCH  29  30
HETATM   30  C3  UNL     1      46.614  36.652  28.363  1.00  0.00     0.162 C 
HETATM   31  C2  UNL     1      45.520  36.043  27.462  1.00  0.00     0.070 C 
HETATM   32  C1  UNL     1      45.593  36.883  26.205  1.00  0.00     0.217 C 
HETATM   33  C28 UNL     1      46.906  37.599  26.230  1.00  0.00     0.179 C 
HETATM   34  C27 UNL     1      47.694  36.861  27.274  1.00  0.00     0.178 C 
BRANCH  32  35
HETATM   35  N1  UNL     1      45.490  36.054  25.013  1.00  0.00    -0.072 N 
ATOM     36  H13 UNL     1      45.761  35.090  25.203  1.00  0.00     0.274 HD
ATOM     37  H12 UNL     1      44.518  35.895  24.750  1.00  0.00     0.274 HD
ATOM     38  H11 UNL     1      46.028  36.450  24.243  1.00  0.00     0.274 HD
ENDBRANCH  32  35
BRANCH  33  39
HETATM   39  O5  UNL     1      47.536  37.627  24.990  1.00  0.00    -0.391 OA
ATOM     40  H5  UNL     1      47.504  38.481  24.576  1.00  0.00     0.210 HD
ENDBRANCH  33  39
BRANCH  34  41
HETATM   41  O4  UNL     1      48.149  35.669  26.775  1.00  0.00    -0.390 OA
ATOM     42  H4  UNL     1      49.075  35.545  26.948  1.00  0.00     0.210 HD
ENDBRANCH  34  41
ENDBRANCH  29  30
ENDBRANCH   1  29
BRANCH   5  43
HETATM   43  O2  UNL     1      48.580  33.341  33.839  1.00  0.00    -0.277 OA
BRANCH  43  44
HETATM   44  C8  UNL     1      47.855  33.182  35.022  1.00  0.00     0.385 C 
HETATM   45  F1  UNL     1      47.909  34.272  35.860  1.00  0.00    -0.172 F 
HETATM   46  F2  UNL     1      46.528  32.885  34.810  1.00  0.00    -0.172 F 
BRANCH  44  47
HETATM   47  C9  UNL     1      48.439  31.990  35.781  1.00  0.00     0.334 C 
HETATM   48  F3  UNL     1      47.868  31.878  37.035  1.00  0.00    -0.246 F 
ENDBRANCH  44  47
ENDBRANCH  43  44
ENDBRANCH   5  43
TORSDOF 15
ENDMDL
MODEL 4
REMARK VINA RESULT: -8.587337464      1.140      1.503
REMARK  15 active torsions:
REMARK  status: ('A' for Active; 'I' for Inactive)
REMARK    1  A    between atoms: N1_1  and  C1_5 
REMARK    2  A    between atoms: C3_7  and  O1_8 
REMARK    3  A    between atoms: O1_8  and  C4_9 
REMARK    4  A    between atoms: C7_13  and  O2_14 
REMARK    5  A    between atoms: O2_14  and  C8_15 
REMARK    6  A    between atoms: C8_15  and  C9_18 
REMARK    7  A    between atoms: C11_22  and  N2_23 
REMARK    8  A    between atoms: N2_23  and  C12_25 
REMARK    9  A    between atoms: C12_25  and  C13_26 
REMARK   10  A    between atoms: C12_25  and  C16_32 
REMARK   11  A    between atoms: C13_26  and  O3_27 
REMARK   12  A    between atoms: O3_27  and  C14_28 
REMARK   13  A    between atoms: C16_32  and  C17_33 
REMARK   14  A    between atoms: C27_43  and  O4_44 
REMARK   15  A    between atoms: C28_46  and  O5_47 
ROOT
HETATM    1  C4  UNL     1      47.381  35.355  30.490  1.00  0.00     0.100 A 
HETATM    2  C5  UNL     1      48.132  35.969  31.513  1.00  0.00     0.066 A 
HETATM    3  C6  UNL     1      48.514  35.313  32.615  1.00  0.00     0.073 A 
HETATM    4 CL1  UNL     1      49.450  36.150  33.848  1.00  0.00    -0.081 Cl
HETATM    5  C7  UNL     1      48.170  33.994  32.772  1.00  0.00     0.138 A 
HETATM    6  C10 UNL     1      47.436  33.372  31.784  1.00  0.00     0.180 A 
HETATM    7  F4  UNL     1      47.096  32.094  32.003  1.00  0.00    -0.201 F 
HETATM    8  C11 UNL     1      47.013  33.973  30.636  1.00  0.00     0.104 A 
ENDROOT
BRANCH   8   9
HETATM    9  N2  UNL     1      46.245  33.410  29.621  1.00  0.00    -0.378 N 
ATOM     10  H2  UNL     1      45.308  33.809  29.575  1.00  0.00     0.160 HD
BRANCH   9  11
HETATM   11  C12 UNL     1      46.458  32.423  28.647  1.00  0.00     0.107 C 
BRANCH  11  12
HETATM   12  C13 UNL     1      45.168  32.092  27.868  1.00  0.00     0.202 C 
BRANCH  12  13
HETATM   13  O3  UNL     1      44.836  30.698  28.088  1.00  0.00    -0.333 OA
BRANCH  13  14
HETATM   14  C14 UNL     1      44.127  30.441  29.253  1.00  0.00     0.158 A 
HETATM   15  C15 UNL     1      43.051  29.997  29.930  1.00  0.00     0.146 A 
HETATM   16  N3  UNL     1      44.136  30.517  30.690  1.00  0.00    -0.342 N 
ATOM     17  H3  UNL     1      44.579  30.759  31.577  1.00  0.00     0.167 HD
ENDBRANCH  13  14
ENDBRANCH  12  13
ENDBRANCH  11  12
BRANCH  11  18
HETATM   18  C16 UNL     1      47.610  32.471  27.749  1.00  0.00     0.036 C 
BRANCH  18  19
HETATM   19  C17 UNL     1      48.846  31.715  27.927  1.00  0.00    -0.037 C 
HETATM   20  C18 UNL     1      48.735  30.547  28.864  1.00  0.00     0.014 C 
HETATM   21  C19 UNL     1      50.075  29.954  29.255  1.00  0.00    -0.013 C 
HETATM   22  C20 UNL     1      50.690  29.446  27.969  1.00  0.00     0.009 C 
HETATM   23  C24 UNL     1      50.909  30.960  29.955  1.00  0.00     0.009 C 
HETATM   24  C21 UNL     1      50.874  30.635  27.064  1.00  0.00    -0.013 C 
HETATM   25  C22 UNL     1      51.814  31.595  27.762  1.00  0.00     0.009 C 
HETATM   26  C26 UNL     1      49.571  31.305  26.674  1.00  0.00     0.014 C 
HETATM   27  C23 UNL     1      51.115  32.107  28.976  1.00  0.00    -0.013 C 
HETATM   28  C25 UNL     1      49.816  32.706  28.617  1.00  0.00     0.014 C 
ENDBRANCH  18  19
ENDBRANCH  11  18
ENDBRANCH   9  11
ENDBRANCH   8   9
BRANCH   1  29
HETATM   29  O1  UNL     1      47.044  36.040  29.452  1.00  0.00    -0.341 OA
BRANCH  29  30
HETATM   30  C3  UNL     1      46.720  36.692  28.414  1.00  0.00     0.162 C 
HETATM   31  C2  UNL     1      45.586  36.123  27.536  1.00  0.00     0.070 C 
HETATM   32  C1  UNL     1      45.678  36.946  26.268  1.00  0.00     0.217 C 
HETATM   33  C28 UNL     1      47.022  37.602  26.267  1.00  0.00     0.179 C 
HETATM   34  C27 UNL     1      47.791  36.840  27.307  1.00  0.00     0.178 C 
BRANCH  32  35
HETATM   35  N1  UNL     1      45.520  36.111  25.087  1.00  0.00    -0.072 N 
ATOM     36  H13 UNL     1      46.420  35.786  24.735  1.00  0.00     0.274 HD
ATOM     37  H12 UNL     1      45.108  35.207  25.320  1.00  0.00     0.274 HD
ATOM     38  H11 UNL     1      44.986  36.593  24.365  1.00  0.00     0.274 HD
ENDBRANCH  32  35
BRANCH  33  39
HETATM   39  O5  UNL     1      47.634  37.590  25.018  1.00  0.00    -0.391 OA
ATOM     40  H5  UNL     1      47.786  38.460  24.669  1.00  0.00     0.210 HD
ENDBRANCH  33  39
BRANCH  34  41
HETATM   41  O4  UNL     1      48.185  35.624  26.814  1.00  0.00    -0.390 OA
ATOM     42  H4  UNL     1      48.760  35.169  27.417  1.00  0.00     0.210 HD
ENDBRANCH  34  41
ENDBRANCH  29  30
ENDBRANCH   1  29
BRANCH   5  43
HETATM   43  O2  UNL     1      48.556  33.313  33.894  1.00  0.00    -0.277 OA
BRANCH  43  44
HETATM   44  C8  UNL     1      47.819  33.177  35.073  1.00  0.00     0.385 C 
HETATM   45  F1  UNL     1      47.861  34.284  35.888  1.00  0.00    -0.172 F 
HETATM   46  F2  UNL     1      46.495  32.871  34.855  1.00  0.00    -0.172 F 
BRANCH  44  47
HETATM   47  C9  UNL     1      48.399  32.003  35.863  1.00  0.00     0.334 C 
HETATM   48  F3  UNL     1      47.819  31.919  37.116  1.00  0.00    -0.246 F 
ENDBRANCH  44  47
ENDBRANCH  43  44
ENDBRANCH   5  43
TORSDOF 15
ENDMDL
MODEL 5
REMARK VINA RESULT: -8.534922802      1.108      1.803
REMARK  15 active torsions:
REMARK  status: ('A' for Active; 'I' for Inactive)
REMARK    1  A    between atoms: N1_1  and  C1_5 
REMARK    2  A    between atoms: C3_7  and  O1_8 
REMARK    3  A    between atoms: O1_8  and  C4_9 
REMARK    4  A    between atoms: C7_13  and  O2_14 
REMARK    5  A    between atoms: O2_14  and  C8_15 
REMARK    6  A    between atoms: C8_15  and  C9_18 
REMARK    7  A    between atoms: C11_22  and  N2_23 
REMARK    8  A    between atoms: N2_23  and  C12_25 
REMARK    9  A    between atoms: C12_25  and  C13_26 
REMARK   10  A    between atoms: C12_25  and  C16_32 
REMARK   11  A    between atoms: C13_26  and  O3_27 
REMARK   12  A    between atoms: O3_27  and  C14_28 
REMARK   13  A    between atoms: C16_32  and  C17_33 
REMARK   14  A    between atoms: C27_43  and  O4_44 
REMARK   15  A    between atoms: C28_46  and  O5_47 
ROOT
HETATM    1  C4  UNL     1      47.409  35.323  30.539  1.00  0.00     0.100 A 
HETATM    2  C5  UNL     1      48.165  35.941  31.555  1.00  0.00     0.066 A 
HETATM    3  C6  UNL     1      48.531  35.297  32.670  1.00  0.00     0.073 A 
HETATM    4 CL1  UNL     1      49.474  36.139  33.894  1.00  0.00    -0.081 Cl
HETATM    5  C7  UNL     1      48.166  33.986  32.845  1.00  0.00     0.138 A 
HETATM    6  C10 UNL     1      47.427  33.361  31.863  1.00  0.00     0.180 A 
HETATM    7  F4  UNL     1      47.067  32.091  32.101  1.00  0.00    -0.201 F 
HETATM    8  C11 UNL     1      47.019  33.950  30.704  1.00  0.00     0.104 A 
ENDROOT
BRANCH   8   9
HETATM    9  N2  UNL     1      46.248  33.383  29.695  1.00  0.00    -0.378 N 
ATOM     10  H2  UNL     1      45.322  33.806  29.627  1.00  0.00     0.160 HD
BRANCH   9  11
HETATM   11  C12 UNL     1      46.444  32.366  28.748  1.00  0.00     0.107 C 
BRANCH  11  12
HETATM   12  C13 UNL     1      45.182  32.118  27.896  1.00  0.00     0.202 C 
BRANCH  12  13
HETATM   13  O3  UNL     1      44.788  30.730  28.042  1.00  0.00    -0.333 OA
BRANCH  13  14
HETATM   14  C14 UNL     1      44.053  30.446  29.183  1.00  0.00     0.158 A 
HETATM   15  C15 UNL     1      42.942  30.035  29.825  1.00  0.00     0.146 A 
HETATM   16  N3  UNL     1      44.054  30.425  30.622  1.00  0.00    -0.342 N 
ATOM     17  H3  UNL     1      44.506  30.575  31.525  1.00  0.00     0.167 HD
ENDBRANCH  13  14
ENDBRANCH  12  13
ENDBRANCH  11  12
BRANCH  11  18
HETATM   18  C16 UNL     1      47.649  32.314  27.921  1.00  0.00     0.036 C 
BRANCH  18  19
HETATM   19  C17 UNL     1      48.898  31.660  28.298  1.00  0.00    -0.037 C 
HETATM   20  C18 UNL     1      49.953  32.588  28.830  1.00  0.00     0.014 C 
HETATM   21  C19 UNL     1      51.322  31.945  28.947  1.00  0.00    -0.013 C 
HETATM   22  C20 UNL     1      51.164  30.819  29.944  1.00  0.00     0.009 C 
HETATM   23  C24 UNL     1      51.805  31.497  27.618  1.00  0.00     0.009 C 
HETATM   24  C21 UNL     1      50.165  29.852  29.368  1.00  0.00    -0.013 C 
HETATM   25  C22 UNL     1      50.736  29.332  28.066  1.00  0.00     0.009 C 
HETATM   26  C26 UNL     1      48.784  30.448  29.181  1.00  0.00     0.014 C 
HETATM   27  C23 UNL     1      50.795  30.477  27.112  1.00  0.00    -0.013 C 
HETATM   28  C25 UNL     1      49.468  31.106  26.969  1.00  0.00     0.014 C 
ENDBRANCH  18  19
ENDBRANCH  11  18
ENDBRANCH   9  11
ENDBRANCH   8   9
BRANCH   1  29
HETATM   29  O1  UNL     1      47.087  35.997  29.488  1.00  0.00    -0.341 OA
BRANCH  29  30
HETATM   30  C3  UNL     1      46.743  36.650  28.457  1.00  0.00     0.162 C 
HETATM   31  C2  UNL     1      45.569  36.101  27.621  1.00  0.00     0.070 C 
HETATM   32  C1  UNL     1      45.636  36.915  26.346  1.00  0.00     0.217 C 
HETATM   33  C28 UNL     1      46.993  37.542  26.296  1.00  0.00     0.179 C 
HETATM   34  C27 UNL     1      47.780  36.770  27.315  1.00  0.00     0.178 C 
BRANCH  32  35
HETATM   35  N1  UNL     1      45.422  36.077  25.176  1.00  0.00    -0.072 N 
ATOM     36  H13 UNL     1      45.729  35.118  25.339  1.00  0.00     0.274 HD
ATOM     37  H12 UNL     1      44.430  35.898  25.020  1.00  0.00     0.274 HD
ATOM     38  H11 UNL     1      45.866  36.477  24.350  1.00  0.00     0.274 HD
ENDBRANCH  32  35
BRANCH  33  39
HETATM   39  O5  UNL     1      47.563  37.510  25.027  1.00  0.00    -0.391 OA
ATOM     40  H5  UNL     1      48.432  37.125  25.019  1.00  0.00     0.210 HD
ENDBRANCH  33  39
BRANCH  34  41
HETATM   41  O4  UNL     1      48.132  35.542  26.817  1.00  0.00    -0.390 OA
ATOM     42  H4  UNL     1      48.722  35.619  26.076  1.00  0.00     0.210 HD
ENDBRANCH  34  41
ENDBRANCH  29  30
ENDBRANCH   1  29
BRANCH   5  43
HETATM   43  O2  UNL     1      48.536  33.317  33.980  1.00  0.00    -0.277 OA
BRANCH  43  44
HETATM   44  C8  UNL     1      47.782  33.192  35.149  1.00  0.00     0.385 C 
HETATM   45  F1  UNL     1      47.810  34.307  35.953  1.00  0.00    -0.172 F 
HETATM   46  F2  UNL     1      46.461  32.882  34.914  1.00  0.00    -0.172 F 
BRANCH  44  47
HETATM   47  C9  UNL     1      48.351  32.027  35.960  1.00  0.00     0.334 C 
HETATM   48  F3  UNL     1      47.807  32.000  37.230  1.00  0.00    -0.246 F 
ENDBRANCH  44  47
ENDBRANCH  43  44
ENDBRANCH   5  43
TORSDOF 15
ENDMDL
