MODEL 1
REMARK VINA RESULT: -8.416663720      0.000      0.000
REMARK  15 active torsions:
REMARK  status: ('A' for Active; 'I' for Inactive)
REMARK    1  A    between atoms: O1_2  and  C2_3 
REMARK    2  A    between atoms: C4_5  and  C5_6 
REMARK    3  A    between atoms: C5_6  and  C9_17 
REMARK    4  A    between atoms: C6_7  and  N1_8 
REMARK       I    between atoms: C7_10  and  N3_12 
REMARK    5  A    between atoms: N3_12  and  C8_14 
REMARK    6  A    between atoms: C11_19  and  O2_20 
REMARK    7  A    between atoms: C12_24  and  O3_25 
REMARK    8  A    between atoms: C15_30  and  C16_31 
REMARK    9  A    between atoms: C16_31  and  N5_32 
REMARK   10  A    between atoms: N5_32  and  C17_34 
REMARK   11  A    between atoms: C17_34  and  C18_35 
REMARK   12  A    between atoms: C18_35  and  C19_36 
REMARK   13  A    between atoms: C21_38  and  O4_39 
REMARK   14  A    between atoms: C23_41  and  O5_42 
REMARK   15  A    between atoms: C25_44  and  O6_45 
ROOT
HETATM    1  C2  UNL     1      51.050  29.700  30.869  1.00  0.00     0.080 A 
HETATM    2  C3  UNL     1      50.676  30.755  31.698  1.00  0.00     0.050 A 
HETATM    3  C4  UNL     1      49.437  30.951  32.153  1.00  0.00    -0.018 A 
HETATM    4  C13 UNL     1      48.449  30.031  31.774  1.00  0.00     0.055 A 
HETATM    5  C14 UNL     1      48.790  28.981  30.955  1.00  0.00     0.127 A 
HETATM    6  F4  UNL     1      47.855  28.049  30.558  1.00  0.00    -0.205 F 
HETATM    7  C15 UNL     1      50.064  28.793  30.495  1.00  0.00     0.031 A 
ENDROOT
BRANCH   3   8
HETATM    8  C5  UNL     1      49.030  32.143  32.939  1.00  0.00     0.004 C 
HETATM    9  C6  UNL     1      49.194  33.248  32.309  1.00  0.00     0.104 C 
BRANCH   9  10
HETATM   10  N1  UNL     1      48.929  34.563  32.693  1.00  0.00    -0.338 N 
HETATM   11  C7  UNL     1      49.808  35.516  32.468  1.00  0.00     0.224 C 
HETATM   12  N2  UNL     1      51.031  35.200  31.832  1.00  0.00    -0.061 NA
HETATM   13  N3  UNL     1      49.586  36.873  32.851  1.00  0.00    -0.124 N 
HETATM   14  F1  UNL     1      49.703  37.780  31.822  1.00  0.00    -0.091 F 
ATOM     15  H1  UNL     1      48.046  34.788  33.152  1.00  0.00     0.168 HD
BRANCH  13  16
HETATM   16  C8  UNL     1      49.273  37.298  34.183  1.00  0.00     0.491 C 
HETATM   17  F2  UNL     1      47.879  37.231  34.331  1.00  0.00    -0.188 F 
HETATM   18  F3  UNL     1      49.919  36.477  35.082  1.00  0.00    -0.188 F 
ENDBRANCH  13  16
ENDBRANCH   9  10
BRANCH   8  19
HETATM   19  C9  UNL     1      48.720  32.005  34.354  1.00  0.00     0.031 A 
HETATM   20  C10 UNL     1      49.353  31.207  35.315  1.00  0.00     0.072 A 
HETATM   21  C11 UNL     1      48.815  31.436  36.558  1.00  0.00     0.142 A 
HETATM   22  N4  UNL     1      47.882  32.336  36.429  1.00  0.00    -0.317 N 
HETATM   23  C12 UNL     1      47.778  32.718  35.118  1.00  0.00     0.153 A 
ATOM     24  H4  UNL     1      47.314  32.703  37.192  1.00  0.00     0.170 HD
BRANCH  21  25
HETATM   25  O2  UNL     1      49.240  30.780  37.739  1.00  0.00    -0.346 OA
ATOM     26  H2  UNL     1      48.959  31.024  38.614  1.00  0.00     0.219 HD
ENDBRANCH  21  25
BRANCH  23  27
HETATM   27  O3  UNL     1      46.859  33.674  34.720  1.00  0.00    -0.345 OA
ATOM     28  H3  UNL     1      46.266  33.675  33.977  1.00  0.00     0.219 HD
ENDBRANCH  23  27
ENDBRANCH   8  19
ENDBRANCH   3   8
BRANCH   1  29
HETATM   29  O1  UNL     1      52.313  29.496  30.393  1.00  0.00    -0.355 OA
HETATM   30  C1  UNL     1      53.229  30.422  29.919  1.00  0.00     0.210 C 
ENDBRANCH   1  29
BRANCH   7  31
HETATM   31  C16 UNL     1      50.461  27.624  29.624  1.00  0.00     0.159 C 
BRANCH  31  32
HETATM   32  N5  UNL     1      50.810  28.117  28.337  1.00  0.00    -0.417 N 
ATOM     33  H5  UNL     1      51.739  27.925  27.960  1.00  0.00     0.153 HD
BRANCH  32  34
HETATM   34  C17 UNL     1      49.900  28.861  27.581  1.00  0.00     0.118 C 
BRANCH  34  35
HETATM   35  C18 UNL     1      50.508  30.265  27.337  1.00  0.00     0.058 C 
BRANCH  35  36
HETATM   36  C19 UNL     1      49.476  31.214  27.840  1.00  0.00    -0.051 A 
HETATM   37  C20 UNL     1      49.712  32.459  28.346  1.00  0.00     0.047 A 
HETATM   38  C21 UNL     1      48.641  33.221  28.834  1.00  0.00     0.104 A 
HETATM   39  C23 UNL     1      47.355  32.735  28.812  1.00  0.00     0.135 A 
HETATM   40  C25 UNL     1      47.120  31.474  28.301  1.00  0.00     0.104 A 
HETATM   41  C27 UNL     1      48.173  30.709  27.813  1.00  0.00     0.047 A 
BRANCH  38  42
HETATM   42  O4  UNL     1      48.855  34.484  29.343  1.00  0.00    -0.353 OA
HETATM   43  C22 UNL     1      49.012  35.564  28.449  1.00  0.00     0.210 C 
ENDBRANCH  38  42
BRANCH  39  44
HETATM   44  O5  UNL     1      46.337  33.491  29.287  1.00  0.00    -0.351 OA
HETATM   45  C24 UNL     1      45.843  33.539  30.591  1.00  0.00     0.210 C 
ENDBRANCH  39  44
BRANCH  40  46
HETATM   46  O6  UNL     1      45.830  30.992  28.290  1.00  0.00    -0.353 OA
HETATM   47  C26 UNL     1      45.454  30.069  29.305  1.00  0.00     0.210 C 
ENDBRANCH  40  46
ENDBRANCH  35  36
ENDBRANCH  34  35
ENDBRANCH  32  34
ENDBRANCH  31  32
ENDBRANCH   7  31
TORSDOF 15
ENDMDL
MODEL 2
REMARK VINA RESULT: -8.179896499      0.532      1.924
REMARK  15 active torsions:
REMARK  status: ('A' for Active; 'I' for Inactive)
REMARK    1  A    between atoms: O1_2  and  C2_3 
REMARK    2  A    between atoms: C4_5  and  C5_6 
REMARK    3  A    between atoms: C5_6  and  C9_17 
REMARK    4  A    between atoms: C6_7  and  N1_8 
REMARK       I    between atoms: C7_10  and  N3_12 
REMARK    5  A    between atoms: N3_12  and  C8_14 
REMARK    6  A    between atoms: C11_19  and  O2_20 
REMARK    7  A    between atoms: C12_24  and  O3_25 
REMARK    8  A    between atoms: C15_30  and  C16_31 
REMARK    9  A    between atoms: C16_31  and  N5_32 
REMARK   10  A    between atoms: N5_32  and  C17_34 
REMARK   11  A    between atoms: C17_34  and  C18_35 
REMARK   12  A    between atoms: C18_35  and  C19_36 
REMARK   13  A    between atoms: C21_38  and  O4_39 
REMARK   14  A    between atoms: C23_41  and  O5_42 
REMARK   15  A    between atoms: C25_44  and  O6_45 
ROOT
HETATM    1  C2  UNL     1      50.991  29.725  30.853  1.00  0.00     0.080 A 
HETATM    2  C3  UNL     1      50.629  30.790  31.676  1.00  0.00     0.050 A 
HETATM    3  C4  UNL     1      49.423  30.935  32.229  1.00  0.00    -0.018 A 
HETATM    4  C13 UNL     1      48.461  29.949  31.967  1.00  0.00     0.055 A 
HETATM    5  C14 UNL     1      48.791  28.889  31.156  1.00  0.00     0.127 A 
HETATM    6  F4  UNL     1      47.881  27.893  30.873  1.00  0.00    -0.205 F 
HETATM    7  C15 UNL     1      50.031  28.753  30.596  1.00  0.00     0.031 A 
ENDROOT
BRANCH   3   8
HETATM    8  C5  UNL     1      49.015  32.133  33.007  1.00  0.00     0.004 C 
HETATM    9  C6  UNL     1      49.185  33.233  32.372  1.00  0.00     0.104 C 
BRANCH   9  10
HETATM   10  N1  UNL     1      48.921  34.551  32.747  1.00  0.00    -0.338 N 
HETATM   11  C7  UNL     1      49.807  35.499  32.530  1.00  0.00     0.224 C 
HETATM   12  N2  UNL     1      51.038  35.175  31.912  1.00  0.00    -0.061 NA
HETATM   13  N3  UNL     1      49.588  36.859  32.907  1.00  0.00    -0.124 N 
HETATM   14  F1  UNL     1      49.723  37.761  31.876  1.00  0.00    -0.091 F 
ATOM     15  H1  UNL     1      48.034  34.782  33.194  1.00  0.00     0.168 HD
BRANCH  13  16
HETATM   16  C8  UNL     1      49.259  37.290  34.232  1.00  0.00     0.491 C 
HETATM   17  F2  UNL     1      47.863  37.223  34.365  1.00  0.00    -0.188 F 
HETATM   18  F3  UNL     1      49.895  36.473  35.143  1.00  0.00    -0.188 F 
ENDBRANCH  13  16
ENDBRANCH   9  10
BRANCH   8  19
HETATM   19  C9  UNL     1      48.700  32.003  34.421  1.00  0.00     0.031 A 
HETATM   20  C10 UNL     1      49.334  31.215  35.391  1.00  0.00     0.072 A 
HETATM   21  C11 UNL     1      48.788  31.450  36.629  1.00  0.00     0.142 A 
HETATM   22  N4  UNL     1      47.851  32.344  36.490  1.00  0.00    -0.317 N 
HETATM   23  C12 UNL     1      47.751  32.716  35.176  1.00  0.00     0.153 A 
ATOM     24  H4  UNL     1      47.277  32.713  37.248  1.00  0.00     0.170 HD
BRANCH  21  25
HETATM   25  O2  UNL     1      49.212  30.805  37.817  1.00  0.00    -0.346 OA
ATOM     26  H2  UNL     1      48.949  31.072  38.691  1.00  0.00     0.219 HD
ENDBRANCH  21  25
BRANCH  23  27
HETATM   27  O3  UNL     1      46.828  33.664  34.767  1.00  0.00    -0.345 OA
ATOM     28  H3  UNL     1      46.869  34.612  34.816  1.00  0.00     0.219 HD
ENDBRANCH  23  27
ENDBRANCH   8  19
ENDBRANCH   3   8
BRANCH   1  29
HETATM   29  O1  UNL     1      52.220  29.573  30.278  1.00  0.00    -0.355 OA
HETATM   30  C1  UNL     1      52.983  30.500  29.585  1.00  0.00     0.210 C 
ENDBRANCH   1  29
BRANCH   7  31
HETATM   31  C16 UNL     1      50.419  27.576  29.733  1.00  0.00     0.159 C 
BRANCH  31  32
HETATM   32  N5  UNL     1      50.582  28.029  28.395  1.00  0.00    -0.417 N 
ATOM     33  H5  UNL     1      51.478  27.896  27.924  1.00  0.00     0.153 HD
BRANCH  32  34
HETATM   34  C17 UNL     1      49.532  28.653  27.715  1.00  0.00     0.118 C 
BRANCH  34  35
HETATM   35  C18 UNL     1      49.969  30.099  27.374  1.00  0.00     0.058 C 
BRANCH  35  36
HETATM   36  C19 UNL     1      48.940  30.963  28.017  1.00  0.00    -0.051 A 
HETATM   37  C20 UNL     1      47.624  30.646  28.191  1.00  0.00     0.047 A 
HETATM   38  C21 UNL     1      46.757  31.584  28.767  1.00  0.00     0.104 A 
HETATM   39  C23 UNL     1      47.210  32.822  29.160  1.00  0.00     0.135 A 
HETATM   40  C25 UNL     1      48.541  33.141  28.981  1.00  0.00     0.104 A 
HETATM   41  C27 UNL     1      49.411  32.217  28.412  1.00  0.00     0.047 A 
BRANCH  38  42
HETATM   42  O4  UNL     1      45.426  31.284  28.959  1.00  0.00    -0.353 OA
HETATM   43  C22 UNL     1      44.560  31.274  27.846  1.00  0.00     0.210 C 
ENDBRANCH  38  42
BRANCH  39  44
HETATM   44  O5  UNL     1      46.353  33.712  29.716  1.00  0.00    -0.351 OA
HETATM   45  C24 UNL     1      45.663  34.746  29.083  1.00  0.00     0.210 C 
ENDBRANCH  39  44
BRANCH  40  46
HETATM   46  O6  UNL     1      48.985  34.385  29.369  1.00  0.00    -0.353 OA
HETATM   47  C26 UNL     1      49.252  35.346  28.355  1.00  0.00     0.210 C 
ENDBRANCH  40  46
ENDBRANCH  35  36
ENDBRANCH  34  35
ENDBRANCH  32  34
ENDBRANCH  31  32
ENDBRANCH   7  31
TORSDOF 15
ENDMDL
MODEL 3
REMARK VINA RESULT: -8.152283342      2.763      7.758
REMARK  15 active torsions:
REMARK  status: ('A' for Active; 'I' for Inactive)
REMARK    1  A    between atoms: O1_2  and  C2_3 
REMARK    2  A    between atoms: C4_5  and  C5_6 
REMARK    3  A    between atoms: C5_6  and  C9_17 
REMARK    4  A    between atoms: C6_7  and  N1_8 
REMARK       I    between atoms: C7_10  and  N3_12 
REMARK    5  A    between atoms: N3_12  and  C8_14 
REMARK    6  A    between atoms: C11_19  and  O2_20 
REMARK    7  A    between atoms: C12_24  and  O3_25 
REMARK    8  A    between atoms: C15_30  and  C16_31 
REMARK    9  A    between atoms: C16_31  and  N5_32 
REMARK   10  A    between atoms: N5_32  and  C17_34 
REMARK   11  A    between atoms: C17_34  and  C18_35 
REMARK   12  A    between atoms: C18_35  and  C19_36 
REMARK   13  A    between atoms: C21_38  and  O4_39 
REMARK   14  A    between atoms: C23_41  and  O5_42 
REMARK   15  A    between atoms: C25_44  and  O6_45 
ROOT
HETATM    1  C2  UNL     1      47.490  32.041  32.142  1.00  0.00     0.080 A 
HETATM    2  C3  UNL     1      47.905  30.966  31.358  1.00  0.00     0.050 A 
HETATM    3  C4  UNL     1      48.865  30.108  31.709  1.00  0.00    -0.018 A 
HETATM    4  C13 UNL     1      49.492  30.298  32.948  1.00  0.00     0.055 A 
HETATM    5  C14 UNL     1      49.102  31.352  33.741  1.00  0.00     0.127 A 
HETATM    6  F4  UNL     1      49.686  31.579  34.969  1.00  0.00    -0.205 F 
HETATM    7  C15 UNL     1      48.117  32.225  33.368  1.00  0.00     0.031 A 
ENDROOT
BRANCH   3   8
HETATM    8  C5  UNL     1      49.377  29.039  30.813  1.00  0.00     0.004 C 
HETATM    9  C6  UNL     1      49.248  27.861  31.303  1.00  0.00     0.104 C 
BRANCH   9  10
HETATM   10  N1  UNL     1      49.592  26.614  30.778  1.00  0.00    -0.338 N 
HETATM   11  C7  UNL     1      49.009  25.520  31.216  1.00  0.00     0.224 C 
HETATM   12  N2  UNL     1      48.026  25.611  32.229  1.00  0.00    -0.061 NA
HETATM   13  N3  UNL     1      49.335  24.222  30.718  1.00  0.00    -0.124 N 
HETATM   14  F1  UNL     1      48.257  23.510  30.241  1.00  0.00    -0.091 F 
ATOM     15  H1  UNL     1      50.303  26.551  30.049  1.00  0.00     0.168 HD
BRANCH  13  16
HETATM   16  C8  UNL     1      50.656  23.667  30.704  1.00  0.00     0.491 C 
HETATM   17  F2  UNL     1      51.444  24.431  31.578  1.00  0.00    -0.188 F 
HETATM   18  F3  UNL     1      50.595  22.347  31.097  1.00  0.00    -0.188 F 
ENDBRANCH  13  16
ENDBRANCH   9  10
BRANCH   8  19
HETATM   19  C9  UNL     1      50.151  29.393  29.634  1.00  0.00     0.031 A 
HETATM   20  C10 UNL     1      49.692  29.827  28.383  1.00  0.00     0.072 A 
HETATM   21  C11 UNL     1      50.752  30.149  27.570  1.00  0.00     0.142 A 
HETATM   22  N4  UNL     1      51.848  29.944  28.244  1.00  0.00    -0.317 N 
HETATM   23  C12 UNL     1      51.548  29.486  29.499  1.00  0.00     0.153 A 
ATOM     24  H4  UNL     1      52.791  30.102  27.888  1.00  0.00     0.170 HD
BRANCH  21  25
HETATM   25  O2  UNL     1      50.616  30.619  26.241  1.00  0.00    -0.346 OA
ATOM     26  H2  UNL     1      50.304  30.087  25.518  1.00  0.00     0.219 HD
ENDBRANCH  21  25
BRANCH  23  27
HETATM   27  O3  UNL     1      52.546  29.198  30.414  1.00  0.00    -0.345 OA
ATOM     28  H3  UNL     1      53.061  28.406  30.522  1.00  0.00     0.219 HD
ENDBRANCH  23  27
ENDBRANCH   8  19
ENDBRANCH   3   8
BRANCH   1  29
HETATM   29  O1  UNL     1      46.514  32.928  31.788  1.00  0.00    -0.355 OA
HETATM   30  C1  UNL     1      45.620  32.868  30.731  1.00  0.00     0.210 C 
ENDBRANCH   1  29
BRANCH   7  31
HETATM   31  C16 UNL     1      47.655  33.365  34.244  1.00  0.00     0.159 C 
BRANCH  31  32
HETATM   32  N5  UNL     1      47.794  34.580  33.518  1.00  0.00    -0.417 N 
ATOM     33  H5  UNL     1      47.000  34.944  32.990  1.00  0.00     0.153 HD
BRANCH  32  34
HETATM   34  C17 UNL     1      49.002  35.282  33.516  1.00  0.00     0.118 C 
BRANCH  34  35
HETATM   35  C18 UNL     1      48.879  36.454  32.512  1.00  0.00     0.058 C 
BRANCH  35  36
HETATM   36  C19 UNL     1      48.740  35.795  31.182  1.00  0.00    -0.051 A 
HETATM   37  C20 UNL     1      47.779  36.067  30.251  1.00  0.00     0.047 A 
HETATM   38  C21 UNL     1      47.741  35.326  29.062  1.00  0.00     0.104 A 
HETATM   39  C23 UNL     1      48.654  34.328  28.817  1.00  0.00     0.135 A 
HETATM   40  C25 UNL     1      49.624  34.054  29.761  1.00  0.00     0.104 A 
HETATM   41  C27 UNL     1      49.673  34.784  30.945  1.00  0.00     0.047 A 
BRANCH  38  42
HETATM   42  O4  UNL     1      46.784  35.587  28.104  1.00  0.00    -0.353 OA
HETATM   43  C22 UNL     1      45.448  35.786  28.510  1.00  0.00     0.210 C 
ENDBRANCH  38  42
BRANCH  39  44
HETATM   44  O5  UNL     1      48.598  33.627  27.660  1.00  0.00    -0.351 OA
HETATM   45  C24 UNL     1      47.681  32.638  27.302  1.00  0.00     0.210 C 
ENDBRANCH  39  44
BRANCH  40  46
HETATM   46  O6  UNL     1      50.530  33.049  29.512  1.00  0.00    -0.353 OA
HETATM   47  C26 UNL     1      51.527  32.790  30.492  1.00  0.00     0.210 C 
ENDBRANCH  40  46
ENDBRANCH  35  36
ENDBRANCH  34  35
ENDBRANCH  32  34
ENDBRANCH  31  32
ENDBRANCH   7  31
TORSDOF 15
ENDMDL
MODEL 4
REMARK VINA RESULT: -8.146695166      2.690      7.750
REMARK  15 active torsions:
REMARK  status: ('A' for Active; 'I' for Inactive)
REMARK    1  A    between atoms: O1_2  and  C2_3 
REMARK    2  A    between atoms: C4_5  and  C5_6 
REMARK    3  A    between atoms: C5_6  and  C9_17 
REMARK    4  A    between atoms: C6_7  and  N1_8 
REMARK       I    between atoms: C7_10  and  N3_12 
REMARK    5  A    between atoms: N3_12  and  C8_14 
REMARK    6  A    between atoms: C11_19  and  O2_20 
REMARK    7  A    between atoms: C12_24  and  O3_25 
REMARK    8  A    between atoms: C15_30  and  C16_31 
REMARK    9  A    between atoms: C16_31  and  N5_32 
REMARK   10  A    between atoms: N5_32  and  C17_34 
REMARK   11  A    between atoms: C17_34  and  C18_35 
REMARK   12  A    between atoms: C18_35  and  C19_36 
REMARK   13  A    between atoms: C21_38  and  O4_39 
REMARK   14  A    between atoms: C23_41  and  O5_42 
REMARK   15  A    between atoms: C25_44  and  O6_45 
ROOT
HETATM    1  C2  UNL     1      48.850  31.556  33.568  1.00  0.00     0.080 A 
HETATM    2  C3  UNL     1      49.360  30.560  32.738  1.00  0.00     0.050 A 
HETATM    3  C4  UNL     1      48.989  30.379  31.468  1.00  0.00    -0.018 A 
HETATM    4  C13 UNL     1      48.029  31.251  30.937  1.00  0.00     0.055 A 
HETATM    5  C14 UNL     1      47.508  32.242  31.736  1.00  0.00     0.127 A 
HETATM    6  F4  UNL     1      46.565  33.126  31.258  1.00  0.00    -0.205 F 
HETATM    7  C15 UNL     1      47.896  32.415  33.036  1.00  0.00     0.031 A 
ENDROOT
BRANCH   3   8
HETATM    8  C5  UNL     1      49.453  29.243  30.631  1.00  0.00     0.004 C 
HETATM    9  C6  UNL     1      49.398  28.112  31.234  1.00  0.00     0.104 C 
BRANCH   9  10
HETATM   10  N1  UNL     1      49.731  26.830  30.796  1.00  0.00    -0.338 N 
HETATM   11  C7  UNL     1      49.070  25.781  31.236  1.00  0.00     0.224 C 
HETATM   12  N2  UNL     1      48.015  25.958  32.161  1.00  0.00    -0.061 NA
HETATM   13  N3  UNL     1      49.381  24.449  30.825  1.00  0.00    -0.124 N 
HETATM   14  F1  UNL     1      48.316  23.755  30.296  1.00  0.00    -0.091 F 
ATOM     15  H1  UNL     1      50.493  26.705  30.130  1.00  0.00     0.168 HD
BRANCH  13  16
HETATM   16  C8  UNL     1      50.675  23.845  30.942  1.00  0.00     0.491 C 
HETATM   17  F2  UNL     1      50.577  22.535  30.449  1.00  0.00    -0.188 F 
HETATM   18  F3  UNL     1      51.586  24.591  30.223  1.00  0.00    -0.188 F 
ENDBRANCH  13  16
ENDBRANCH   9  10
BRANCH   8  19
HETATM   19  C9  UNL     1      50.116  29.502  29.363  1.00  0.00     0.031 A 
HETATM   20  C10 UNL     1      49.548  29.885  28.141  1.00  0.00     0.072 A 
HETATM   21  C11 UNL     1      50.530  30.121  27.210  1.00  0.00     0.142 A 
HETATM   22  N4  UNL     1      51.681  29.910  27.782  1.00  0.00    -0.317 N 
HETATM   23  C12 UNL     1      51.494  29.533  29.085  1.00  0.00     0.153 A 
ATOM     24  H4  UNL     1      52.588  30.012  27.326  1.00  0.00     0.170 HD
BRANCH  21  25
HETATM   25  O2  UNL     1      50.276  30.523  25.875  1.00  0.00    -0.346 OA
ATOM     26  H2  UNL     1      50.308  29.937  25.128  1.00  0.00     0.219 HD
ENDBRANCH  21  25
BRANCH  23  27
HETATM   27  O3  UNL     1      52.569  29.256  29.912  1.00  0.00    -0.345 OA
ATOM     28  H3  UNL     1      53.193  28.540  29.879  1.00  0.00     0.219 HD
ENDBRANCH  23  27
ENDBRANCH   8  19
ENDBRANCH   3   8
BRANCH   1  29
HETATM   29  O1  UNL     1      49.218  31.744  34.870  1.00  0.00    -0.355 OA
HETATM   30  C1  UNL     1      49.616  30.806  35.810  1.00  0.00     0.210 C 
ENDBRANCH   1  29
BRANCH   7  31
HETATM   31  C16 UNL     1      47.360  33.521  33.913  1.00  0.00     0.159 C 
BRANCH  31  32
HETATM   32  N5  UNL     1      48.441  34.367  34.287  1.00  0.00    -0.417 N 
ATOM     33  H5  UNL     1      49.240  33.972  34.785  1.00  0.00     0.153 HD
BRANCH  32  34
HETATM   34  C17 UNL     1      48.425  35.730  33.983  1.00  0.00     0.118 C 
BRANCH  34  35
HETATM   35  C18 UNL     1      49.707  36.062  33.180  1.00  0.00     0.058 C 
BRANCH  35  36
HETATM   36  C19 UNL     1      49.384  35.670  31.779  1.00  0.00    -0.051 A 
HETATM   37  C20 UNL     1      48.294  36.076  31.065  1.00  0.00     0.047 A 
HETATM   38  C21 UNL     1      48.092  35.580  29.770  1.00  0.00     0.104 A 
HETATM   39  C23 UNL     1      48.975  34.689  29.205  1.00  0.00     0.135 A 
HETATM   40  C25 UNL     1      50.076  34.279  29.930  1.00  0.00     0.104 A 
HETATM   41  C27 UNL     1      50.288  34.765  31.216  1.00  0.00     0.047 A 
BRANCH  38  42
HETATM   42  O4  UNL     1      47.002  35.981  29.028  1.00  0.00    -0.353 OA
HETATM   43  C22 UNL     1      45.715  35.878  29.595  1.00  0.00     0.210 C 
ENDBRANCH  38  42
BRANCH  39  44
HETATM   44  O5  UNL     1      48.760  34.226  27.951  1.00  0.00    -0.351 OA
HETATM   45  C24 UNL     1      47.992  33.127  27.564  1.00  0.00     0.210 C 
ENDBRANCH  39  44
BRANCH  40  46
HETATM   46  O6  UNL     1      50.950  33.381  29.360  1.00  0.00    -0.353 OA
HETATM   47  C26 UNL     1      51.833  32.671  30.220  1.00  0.00     0.210 C 
ENDBRANCH  40  46
ENDBRANCH  35  36
ENDBRANCH  34  35
ENDBRANCH  32  34
ENDBRANCH  31  32
ENDBRANCH   7  31
TORSDOF 15
ENDMDL
MODEL 5
REMARK VINA RESULT: -8.056448133      2.771      7.791
REMARK  15 active torsions:
REMARK  status: ('A' for Active; 'I' for Inactive)
REMARK    1  A    between atoms: O1_2  and  C2_3 
REMARK    2  A    between atoms: C4_5  and  C5_6 
REMARK    3  A    between atoms: C5_6  and  C9_17 
REMARK    4  A    between atoms: C6_7  and  N1_8 
REMARK       I    between atoms: C7_10  and  N3_12 
REMARK    5  A    between atoms: N3_12  and  C8_14 
REMARK    6  A    between atoms: C11_19  and  O2_20 
REMARK    7  A    between atoms: C12_24  and  O3_25 
REMARK    8  A    between atoms: C15_30  and  C16_31 
REMARK    9  A    between atoms: C16_31  and  N5_32 
REMARK   10  A    between atoms: N5_32  and  C17_34 
REMARK   11  A    between atoms: C17_34  and  C18_35 
REMARK   12  A    between atoms: C18_35  and  C19_36 
REMARK   13  A    between atoms: C21_38  and  O4_39 
REMARK   14  A    between atoms: C23_41  and  O5_42 
REMARK   15  A    between atoms: C25_44  and  O6_45 
ROOT
HETATM    1  C2  UNL     1      47.465  31.962  32.169  1.00  0.00     0.080 A 
HETATM    2  C3  UNL     1      47.844  30.867  31.395  1.00  0.00     0.050 A 
HETATM    3  C4  UNL     1      48.800  30.000  31.737  1.00  0.00    -0.018 A 
HETATM    4  C13 UNL     1      49.462  30.206  32.956  1.00  0.00     0.055 A 
HETATM    5  C14 UNL     1      49.110  31.280  33.738  1.00  0.00     0.127 A 
HETATM    6  F4  UNL     1      49.729  31.522  34.945  1.00  0.00    -0.205 F 
HETATM    7  C15 UNL     1      48.128  32.161  33.374  1.00  0.00     0.031 A 
ENDROOT
BRANCH   3   8
HETATM    8  C5  UNL     1      49.273  28.907  30.850  1.00  0.00     0.004 C 
HETATM    9  C6  UNL     1      49.268  27.756  31.415  1.00  0.00     0.104 C 
BRANCH   9  10
HETATM   10  N1  UNL     1      49.625  26.500  30.924  1.00  0.00    -0.338 N 
HETATM   11  C7  UNL     1      48.997  25.419  31.333  1.00  0.00     0.224 C 
HETATM   12  N2  UNL     1      47.952  25.535  32.280  1.00  0.00    -0.061 NA
HETATM   13  N3  UNL     1      49.333  24.111  30.868  1.00  0.00    -0.124 N 
HETATM   14  F1  UNL     1      48.277  23.411  30.329  1.00  0.00    -0.091 F 
ATOM     15  H1  UNL     1      50.379  26.419  30.242  1.00  0.00     0.168 HD
BRANCH  13  16
HETATM   16  C8  UNL     1      50.643  23.536  30.943  1.00  0.00     0.491 C 
HETATM   17  F2  UNL     1      50.573  22.249  30.388  1.00  0.00    -0.188 F 
HETATM   18  F3  UNL     1      51.528  24.338  30.254  1.00  0.00    -0.188 F 
ENDBRANCH  13  16
ENDBRANCH   9  10
BRANCH   8  19
HETATM   19  C9  UNL     1      49.889  29.229  29.572  1.00  0.00     0.031 A 
HETATM   20  C10 UNL     1      49.274  29.623  28.377  1.00  0.00     0.072 A 
HETATM   21  C11 UNL     1      50.221  29.924  27.429  1.00  0.00     0.142 A 
HETATM   22  N4  UNL     1      51.394  29.743  27.964  1.00  0.00    -0.317 N 
HETATM   23  C12 UNL     1      51.258  29.321  29.260  1.00  0.00     0.153 A 
ATOM     24  H4  UNL     1      52.284  29.893  27.488  1.00  0.00     0.170 HD
BRANCH  21  25
HETATM   25  O2  UNL     1      49.916  30.354  26.113  1.00  0.00    -0.346 OA
ATOM     26  H2  UNL     1      49.675  31.245  25.888  1.00  0.00     0.219 HD
ENDBRANCH  21  25
BRANCH  23  27
HETATM   27  O3  UNL     1      52.365  29.064  30.051  1.00  0.00    -0.345 OA
ATOM     28  H3  UNL     1      53.269  28.912  29.799  1.00  0.00     0.219 HD
ENDBRANCH  23  27
ENDBRANCH   8  19
ENDBRANCH   3   8
BRANCH   1  29
HETATM   29  O1  UNL     1      46.493  32.857  31.823  1.00  0.00    -0.355 OA
HETATM   30  C1  UNL     1      45.556  32.780  30.805  1.00  0.00     0.210 C 
ENDBRANCH   1  29
BRANCH   7  31
HETATM   31  C16 UNL     1      47.705  33.324  34.240  1.00  0.00     0.159 C 
BRANCH  31  32
HETATM   32  N5  UNL     1      47.817  34.520  33.477  1.00  0.00    -0.417 N 
ATOM     33  H5  UNL     1      47.088  34.758  32.805  1.00  0.00     0.153 HD
BRANCH  32  34
HETATM   34  C17 UNL     1      48.912  35.373  33.637  1.00  0.00     0.118 C 
BRANCH  34  35
HETATM   35  C18 UNL     1      48.884  36.415  32.491  1.00  0.00     0.058 C 
BRANCH  35  36
HETATM   36  C19 UNL     1      48.832  35.599  31.244  1.00  0.00    -0.051 A 
HETATM   37  C20 UNL     1      49.681  34.582  30.918  1.00  0.00     0.047 A 
HETATM   38  C21 UNL     1      49.544  33.937  29.681  1.00  0.00     0.104 A 
HETATM   39  C23 UNL     1      48.568  34.314  28.788  1.00  0.00     0.135 A 
HETATM   40  C25 UNL     1      47.711  35.344  29.121  1.00  0.00     0.104 A 
HETATM   41  C27 UNL     1      47.837  35.990  30.346  1.00  0.00     0.047 A 
BRANCH  38  42
HETATM   42  O4  UNL     1      50.385  32.903  29.332  1.00  0.00    -0.353 OA
HETATM   43  C22 UNL     1      51.489  32.611  30.161  1.00  0.00     0.210 C 
ENDBRANCH  38  42
BRANCH  39  44
HETATM   44  O5  UNL     1      48.453  33.674  27.601  1.00  0.00    -0.351 OA
HETATM   45  C24 UNL     1      47.524  32.698  27.239  1.00  0.00     0.210 C 
ENDBRANCH  39  44
BRANCH  40  46
HETATM   46  O6  UNL     1      46.741  35.719  28.219  1.00  0.00    -0.353 OA
HETATM   47  C26 UNL     1      45.392  35.764  28.669  1.00  0.00     0.210 C 
ENDBRANCH  40  46
ENDBRANCH  35  36
ENDBRANCH  34  35
ENDBRANCH  32  34
ENDBRANCH  31  32
ENDBRANCH   7  31
TORSDOF 15
ENDMDL
