MODEL 1
REMARK VINA RESULT: -9.632253744      0.000      0.000
REMARK  15 active torsions:
REMARK  status: ('A' for Active; 'I' for Inactive)
REMARK    1  A    between atoms: C2_2  and  C5_5 
REMARK    2  A    between atoms: C5_5  and  C6_6 
REMARK    3  A    between atoms: C6_6  and  C7_7 
REMARK    4  A    between atoms: C7_7  and  C8_8 
REMARK    5  A    between atoms: C8_8  and  N1_9 
REMARK    6  A    between atoms: C8_8  and  C21_38 
REMARK    7  A    between atoms: C8_8  and  C27_47 
REMARK    8  A    between atoms: N1_9  and  C9_11 
REMARK    9  A    between atoms: C9_11  and  C10_12 
REMARK   10  A    between atoms: C10_12  and  C11_13 
REMARK   11  A    between atoms: C12_15  and  C13_16 
REMARK   12  A    between atoms: C13_16  and  O2_17 
REMARK   13  A    between atoms: C14_19  and  N2_20 
REMARK   14  A    between atoms: C17_25  and  N4_26 
REMARK   15  A    between atoms: C20_35  and  O3_36 
ROOT
HETATM    1  C11 UNL     1      46.492  34.876  28.884  1.00  0.00     0.154 C 
HETATM    2  O1  UNL     1      45.194  34.969  28.392  1.00  0.00    -0.374 OA
HETATM    3  C12 UNL     1      45.306  35.311  27.036  1.00  0.00     0.171 C 
HETATM    4  C14 UNL     1      46.621  35.968  26.822  1.00  0.00     0.154 C 
HETATM    5  C20 UNL     1      47.077  36.166  28.277  1.00  0.00     0.173 C 
ENDROOT
BRANCH   1   6
HETATM    6  C10 UNL     1      46.622  34.995  30.350  1.00  0.00     0.054 C 
BRANCH   6   7
HETATM    7  C9  UNL     1      46.604  33.646  31.099  1.00  0.00     0.117 C 
BRANCH   7   8
HETATM    8  N1  UNL     1      47.287  33.716  32.315  1.00  0.00    -0.404 N 
ATOM      9  H1  UNL     1      47.079  34.491  32.945  1.00  0.00     0.154 HD
BRANCH   8  10
HETATM   10  C8  UNL     1      48.256  32.761  32.715  1.00  0.00     0.116 C 
BRANCH  10  11
HETATM   11  C7  UNL     1      48.544  31.699  31.726  1.00  0.00     0.041 C 
BRANCH  11  12
HETATM   12  C6  UNL     1      47.874  30.419  31.684  1.00  0.00     0.004 C 
BRANCH  12  13
HETATM   13  C5  UNL     1      48.835  29.260  31.623  1.00  0.00     0.008 C 
BRANCH  13  14
HETATM   14  C2  UNL     1      48.723  28.223  30.607  1.00  0.00    -0.051 C 
HETATM   15  C1  UNL     1      47.742  28.512  29.496  1.00  0.00     0.014 C 
HETATM   16  C3  UNL     1      50.132  28.283  29.867  1.00  0.00     0.014 C 
HETATM   17  C4  UNL     1      48.657  26.812  31.058  1.00  0.00     0.014 C 
ENDBRANCH  13  14
ENDBRANCH  12  13
ENDBRANCH  11  12
ENDBRANCH  10  11
BRANCH  10  18
HETATM   18  C21 UNL     1      48.260  32.431  34.152  1.00  0.00     0.017 A 
HETATM   19  C22 UNL     1      47.342  33.036  34.981  1.00  0.00     0.016 A 
HETATM   20  C23 UNL     1      47.337  32.776  36.352  1.00  0.00     0.046 A 
HETATM   21  C24 UNL     1      48.222  31.925  36.935  1.00  0.00     0.158 A 
HETATM   22  F1  UNL     1      48.229  31.657  38.279  1.00  0.00    -0.203 F 
HETATM   23  C25 UNL     1      49.145  31.316  36.123  1.00  0.00     0.193 A 
HETATM   24  F2  UNL     1      50.030  30.471  36.700  1.00  0.00    -0.200 F 
HETATM   25  C26 UNL     1      49.148  31.579  34.741  1.00  0.00     0.167 A 
HETATM   26  F3  UNL     1      50.132  30.921  34.093  1.00  0.00    -0.202 F 
ENDBRANCH  10  18
BRANCH  10  27
HETATM   27  C27 UNL     1      49.584  33.649  32.632  1.00  0.00     0.385 C 
HETATM   28  F4  UNL     1      49.987  33.712  31.313  1.00  0.00    -0.211 F 
HETATM   29  F5  UNL     1      49.280  34.930  33.034  1.00  0.00    -0.211 F 
ENDBRANCH  10  27
ENDBRANCH   8  10
ENDBRANCH   7   8
ENDBRANCH   6   7
ENDBRANCH   1   6
BRANCH   5  30
HETATM   30  O3  UNL     1      46.349  37.210  28.869  1.00  0.00    -0.391 OA
ATOM     31  H3  UNL     1      46.013  36.847  29.680  1.00  0.00     0.210 HD
ENDBRANCH   5  30
BRANCH   3  32
HETATM   32  C13 UNL     1      45.311  33.970  26.303  1.00  0.00     0.198 C 
BRANCH  32  33
HETATM   33  O2  UNL     1      45.349  34.227  24.933  1.00  0.00    -0.398 OA
ATOM     34  H2  UNL     1      45.736  33.473  24.504  1.00  0.00     0.209 HD
ENDBRANCH  32  33
ENDBRANCH   3  32
BRANCH   4  35
HETATM   35  N2  UNL     1      46.606  37.217  26.127  1.00  0.00    -0.317 N 
HETATM   36  C15 UNL     1      45.469  37.859  25.760  1.00  0.00     0.185 A 
HETATM   37  N3  UNL     1      45.803  39.005  25.131  1.00  0.00    -0.346 N 
HETATM   38  C16 UNL     1      47.124  39.120  25.084  1.00  0.00     0.122 A 
ATOM     39  H3  UNL     1      45.140  39.680  24.749  1.00  0.00     0.167 HD
HETATM   40  C17 UNL     1      47.982  40.079  24.569  1.00  0.00     0.131 A 
HETATM   41  C19 UNL     1      47.627  37.981  25.718  1.00  0.00     0.141 A 
HETATM   42  N5  UNL     1      49.300  39.893  24.693  1.00  0.00    -0.337 N 
HETATM   43  C18 UNL     1      49.775  38.796  25.304  1.00  0.00     0.183 A 
ATOM     44  H5  UNL     1      49.948  40.588  24.321  1.00  0.00     0.168 HD
HETATM   45  N6  UNL     1      48.945  37.865  25.802  1.00  0.00    -0.336 N 
ATOM     46  H6  UNL     1      49.341  37.044  26.259  1.00  0.00     0.168 HD
BRANCH  40  47
HETATM   47  N4  UNL     1      47.468  41.105  23.996  1.00  0.00    -0.383 N 
ATOM     48  H42 UNL     1      46.869  41.042  23.174  1.00  0.00     0.157 HD
ATOM     49  H41 UNL     1      47.673  42.026  24.384  1.00  0.00     0.157 HD
ENDBRANCH  40  47
ENDBRANCH   4  35
TORSDOF 15
ENDMDL
MODEL 2
REMARK VINA RESULT: -9.567748941      3.042      4.460
REMARK  15 active torsions:
REMARK  status: ('A' for Active; 'I' for Inactive)
REMARK    1  A    between atoms: C2_2  and  C5_5 
REMARK    2  A    between atoms: C5_5  and  C6_6 
REMARK    3  A    between atoms: C6_6  and  C7_7 
REMARK    4  A    between atoms: C7_7  and  C8_8 
REMARK    5  A    between atoms: C8_8  and  N1_9 
REMARK    6  A    between atoms: C8_8  and  C21_38 
REMARK    7  A    between atoms: C8_8  and  C27_47 
REMARK    8  A    between atoms: N1_9  and  C9_11 
REMARK    9  A    between atoms: C9_11  and  C10_12 
REMARK   10  A    between atoms: C10_12  and  C11_13 
REMARK   11  A    between atoms: C12_15  and  C13_16 
REMARK   12  A    between atoms: C13_16  and  O2_17 
REMARK   13  A    between atoms: C14_19  and  N2_20 
REMARK   14  A    between atoms: C17_25  and  N4_26 
REMARK   15  A    between atoms: C20_35  and  O3_36 
ROOT
HETATM    1  C11 UNL     1      47.516  33.688  28.820  1.00  0.00     0.154 C 
HETATM    2  O1  UNL     1      47.448  34.985  28.323  1.00  0.00    -0.374 OA
HETATM    3  C12 UNL     1      46.128  35.177  27.890  1.00  0.00     0.171 C 
HETATM    4  C14 UNL     1      45.527  33.849  27.605  1.00  0.00     0.154 C 
HETATM    5  C20 UNL     1      46.773  32.953  27.688  1.00  0.00     0.173 C 
ENDROOT
BRANCH   1   6
HETATM    6  C10 UNL     1      48.872  33.108  28.891  1.00  0.00     0.054 C 
BRANCH   6   7
HETATM    7  C9  UNL     1      49.011  31.940  29.889  1.00  0.00     0.117 C 
BRANCH   7   8
HETATM    8  N1  UNL     1      48.954  32.378  31.214  1.00  0.00    -0.404 N 
ATOM      9  H1  UNL     1      48.524  33.282  31.409  1.00  0.00     0.154 HD
BRANCH   8  10
HETATM   10  C8  UNL     1      49.465  31.624  32.301  1.00  0.00     0.116 C 
BRANCH  10  11
HETATM   11  C7  UNL     1      49.855  30.234  31.979  1.00  0.00     0.041 C 
BRANCH  11  12
HETATM   12  C6  UNL     1      48.975  29.092  32.095  1.00  0.00     0.004 C 
BRANCH  12  13
HETATM   13  C5  UNL     1      49.334  27.982  31.141  1.00  0.00     0.008 C 
BRANCH  13  14
HETATM   14  C2  UNL     1      48.769  27.911  29.801  1.00  0.00    -0.051 C 
HETATM   15  C1  UNL     1      49.749  28.142  28.675  1.00  0.00     0.014 C 
HETATM   16  C3  UNL     1      48.398  26.369  29.643  1.00  0.00     0.014 C 
HETATM   17  C4  UNL     1      47.469  28.580  29.556  1.00  0.00     0.014 C 
ENDBRANCH  13  14
ENDBRANCH  12  13
ENDBRANCH  11  12
ENDBRANCH  10  11
BRANCH  10  18
HETATM   18  C21 UNL     1      48.862  31.921  33.613  1.00  0.00     0.017 A 
HETATM   19  C22 UNL     1      47.846  32.848  33.689  1.00  0.00     0.016 A 
HETATM   20  C23 UNL     1      47.274  33.181  34.918  1.00  0.00     0.046 A 
HETATM   21  C24 UNL     1      47.680  32.619  36.086  1.00  0.00     0.158 A 
HETATM   22  F1  UNL     1      47.127  32.934  37.301  1.00  0.00    -0.203 F 
HETATM   23  C25 UNL     1      48.693  31.695  36.028  1.00  0.00     0.193 A 
HETATM   24  F2  UNL     1      49.103  31.136  37.189  1.00  0.00    -0.200 F 
HETATM   25  C26 UNL     1      49.268  31.361  34.789  1.00  0.00     0.167 A 
HETATM   26  F3  UNL     1      50.265  30.459  34.910  1.00  0.00    -0.202 F 
ENDBRANCH  10  18
BRANCH  10  27
HETATM   27  C27 UNL     1      50.892  32.325  32.487  1.00  0.00     0.385 C 
HETATM   28  F4  UNL     1      51.802  31.689  31.667  1.00  0.00    -0.211 F 
HETATM   29  F5  UNL     1      50.796  33.631  32.067  1.00  0.00    -0.211 F 
ENDBRANCH  10  27
ENDBRANCH   8  10
ENDBRANCH   7   8
ENDBRANCH   6   7
ENDBRANCH   1   6
BRANCH   5  30
HETATM   30  O3  UNL     1      47.572  33.136  26.548  1.00  0.00    -0.391 OA
ATOM     31  H3  UNL     1      47.406  32.373  26.006  1.00  0.00     0.210 HD
ENDBRANCH   5  30
BRANCH   3  32
HETATM   32  C13 UNL     1      45.413  35.781  29.099  1.00  0.00     0.198 C 
BRANCH  32  33
HETATM   33  O2  UNL     1      46.167  36.862  29.551  1.00  0.00    -0.398 OA
ATOM     34  H2  UNL     1      46.803  36.536  30.177  1.00  0.00     0.209 HD
ENDBRANCH  32  33
ENDBRANCH   3  32
BRANCH   4  35
HETATM   35  N2  UNL     1      44.885  33.698  26.336  1.00  0.00    -0.317 N 
HETATM   36  C15 UNL     1      44.961  34.616  25.341  1.00  0.00     0.185 A 
HETATM   37  N3  UNL     1      44.251  34.168  24.284  1.00  0.00    -0.346 N 
HETATM   38  C16 UNL     1      43.722  32.986  24.570  1.00  0.00     0.122 A 
ATOM     39  H3  UNL     1      44.140  34.664  23.400  1.00  0.00     0.167 HD
HETATM   40  C17 UNL     1      42.926  32.099  23.862  1.00  0.00     0.131 A 
HETATM   41  C19 UNL     1      44.127  32.694  25.875  1.00  0.00     0.141 A 
HETATM   42  N5  UNL     1      42.555  30.958  24.453  1.00  0.00    -0.337 N 
HETATM   43  C18 UNL     1      42.950  30.685  25.707  1.00  0.00     0.183 A 
ATOM     44  H5  UNL     1      41.970  30.292  23.948  1.00  0.00     0.168 HD
HETATM   45  N6  UNL     1      43.720  31.544  26.394  1.00  0.00    -0.336 N 
ATOM     46  H6  UNL     1      44.000  31.304  27.345  1.00  0.00     0.168 HD
BRANCH  40  47
HETATM   47  N4  UNL     1      42.580  32.416  22.669  1.00  0.00    -0.383 N 
ATOM     48  H42 UNL     1      41.897  33.144  22.461  1.00  0.00     0.157 HD
ATOM     49  H41 UNL     1      43.012  31.913  21.893  1.00  0.00     0.157 HD
ENDBRANCH  40  47
ENDBRANCH   4  35
TORSDOF 15
ENDMDL
MODEL 3
REMARK VINA RESULT: -9.555676747      2.487      3.907
REMARK  15 active torsions:
REMARK  status: ('A' for Active; 'I' for Inactive)
REMARK    1  A    between atoms: C2_2  and  C5_5 
REMARK    2  A    between atoms: C5_5  and  C6_6 
REMARK    3  A    between atoms: C6_6  and  C7_7 
REMARK    4  A    between atoms: C7_7  and  C8_8 
REMARK    5  A    between atoms: C8_8  and  N1_9 
REMARK    6  A    between atoms: C8_8  and  C21_38 
REMARK    7  A    between atoms: C8_8  and  C27_47 
REMARK    8  A    between atoms: N1_9  and  C9_11 
REMARK    9  A    between atoms: C9_11  and  C10_12 
REMARK   10  A    between atoms: C10_12  and  C11_13 
REMARK   11  A    between atoms: C12_15  and  C13_16 
REMARK   12  A    between atoms: C13_16  and  O2_17 
REMARK   13  A    between atoms: C14_19  and  N2_20 
REMARK   14  A    between atoms: C17_25  and  N4_26 
REMARK   15  A    between atoms: C20_35  and  O3_36 
ROOT
HETATM    1  C11 UNL     1      46.613  30.188  29.757  1.00  0.00     0.154 C 
HETATM    2  O1  UNL     1      45.819  31.008  30.551  1.00  0.00    -0.374 OA
HETATM    3  C12 UNL     1      44.911  31.640  29.689  1.00  0.00     0.171 C 
HETATM    4  C14 UNL     1      45.486  31.645  28.319  1.00  0.00     0.154 C 
HETATM    5  C20 UNL     1      46.920  31.176  28.615  1.00  0.00     0.173 C 
ENDROOT
BRANCH   1   6
HETATM    6  C10 UNL     1      47.909  29.799  30.347  1.00  0.00     0.054 C 
BRANCH   6   7
HETATM    7  C9  UNL     1      48.098  30.245  31.813  1.00  0.00     0.117 C 
BRANCH   7   8
HETATM    8  N1  UNL     1      47.857  31.611  31.976  1.00  0.00    -0.404 N 
ATOM      9  H1  UNL     1      47.065  32.027  31.487  1.00  0.00     0.154 HD
BRANCH   8  10
HETATM   10  C8  UNL     1      48.662  32.446  32.791  1.00  0.00     0.116 C 
BRANCH  10  11
HETATM   11  C7  UNL     1      49.987  32.791  32.230  1.00  0.00     0.041 C 
BRANCH  11  12
HETATM   12  C6  UNL     1      50.872  31.846  31.585  1.00  0.00     0.004 C 
BRANCH  12  13
HETATM   13  C5  UNL     1      51.056  32.129  30.117  1.00  0.00     0.008 C 
BRANCH  13  14
HETATM   14  C2  UNL     1      51.418  31.080  29.174  1.00  0.00    -0.051 C 
HETATM   15  C1  UNL     1      50.646  31.085  27.876  1.00  0.00     0.014 C 
HETATM   16  C3  UNL     1      52.889  31.492  28.718  1.00  0.00     0.014 C 
HETATM   17  C4  UNL     1      51.618  29.708  29.700  1.00  0.00     0.014 C 
ENDBRANCH  13  14
ENDBRANCH  12  13
ENDBRANCH  11  12
ENDBRANCH  10  11
BRANCH  10  18
HETATM   18  C21 UNL     1      48.527  32.230  34.243  1.00  0.00     0.017 A 
HETATM   19  C22 UNL     1      47.614  32.982  34.950  1.00  0.00     0.016 A 
HETATM   20  C23 UNL     1      47.482  32.830  36.331  1.00  0.00     0.046 A 
HETATM   21  C24 UNL     1      48.233  31.949  37.043  1.00  0.00     0.158 A 
HETATM   22  F1  UNL     1      48.113  31.787  38.399  1.00  0.00    -0.203 F 
HETATM   23  C25 UNL     1      49.148  31.194  36.354  1.00  0.00     0.193 A 
HETATM   24  F2  UNL     1      49.899  30.318  37.058  1.00  0.00    -0.200 F 
HETATM   25  C26 UNL     1      49.280  31.348  34.962  1.00  0.00     0.167 A 
HETATM   26  F3  UNL     1      50.239  30.552  34.444  1.00  0.00    -0.202 F 
ENDBRANCH  10  18
BRANCH  10  27
HETATM   27  C27 UNL     1      47.878  33.832  32.643  1.00  0.00     0.385 C 
HETATM   28  F4  UNL     1      48.579  34.642  31.773  1.00  0.00    -0.211 F 
HETATM   29  F5  UNL     1      46.649  33.581  32.076  1.00  0.00    -0.211 F 
ENDBRANCH  10  27
ENDBRANCH   8  10
ENDBRANCH   7   8
ENDBRANCH   6   7
ENDBRANCH   1   6
BRANCH   5  30
HETATM   30  O3  UNL     1      47.649  32.213  29.216  1.00  0.00    -0.391 OA
ATOM     31  H3  UNL     1      47.219  33.013  28.935  1.00  0.00     0.210 HD
ENDBRANCH   5  30
BRANCH   3  32
HETATM   32  C13 UNL     1      43.683  30.728  29.693  1.00  0.00     0.198 C 
BRANCH  32  33
HETATM   33  O2  UNL     1      43.027  30.882  28.473  1.00  0.00    -0.398 OA
ATOM     34  H2  UNL     1      42.744  30.023  28.181  1.00  0.00     0.209 HD
ENDBRANCH  32  33
ENDBRANCH   3  32
BRANCH   4  35
HETATM   35  N2  UNL     1      45.501  32.902  27.638  1.00  0.00    -0.317 N 
HETATM   36  C15 UNL     1      45.201  33.049  26.324  1.00  0.00     0.185 A 
HETATM   37  N3  UNL     1      45.305  34.354  25.999  1.00  0.00    -0.346 N 
HETATM   38  C16 UNL     1      45.663  35.053  27.069  1.00  0.00     0.122 A 
ATOM     39  H3  UNL     1      45.135  34.744  25.072  1.00  0.00     0.167 HD
HETATM   40  C17 UNL     1      45.902  36.400  27.294  1.00  0.00     0.131 A 
HETATM   41  C19 UNL     1      45.786  34.125  28.105  1.00  0.00     0.141 A 
HETATM   42  N5  UNL     1      46.252  36.792  28.524  1.00  0.00    -0.337 N 
HETATM   43  C18 UNL     1      46.368  35.894  29.514  1.00  0.00     0.183 A 
ATOM     44  H5  UNL     1      46.432  37.779  28.710  1.00  0.00     0.168 HD
HETATM   45  N6  UNL     1      46.137  34.588  29.298  1.00  0.00    -0.336 N 
ATOM     46  H6  UNL     1      46.235  33.933  30.073  1.00  0.00     0.168 HD
BRANCH  40  47
HETATM   47  N4  UNL     1      45.777  37.210  26.308  1.00  0.00    -0.383 N 
ATOM     48  H42 UNL     1      44.996  37.860  26.216  1.00  0.00     0.157 HD
ATOM     49  H41 UNL     1      46.494  37.200  25.583  1.00  0.00     0.157 HD
ENDBRANCH  40  47
ENDBRANCH   4  35
TORSDOF 15
ENDMDL
MODEL 4
REMARK VINA RESULT: -9.538557196      4.183      6.483
REMARK  15 active torsions:
REMARK  status: ('A' for Active; 'I' for Inactive)
REMARK    1  A    between atoms: C2_2  and  C5_5 
REMARK    2  A    between atoms: C5_5  and  C6_6 
REMARK    3  A    between atoms: C6_6  and  C7_7 
REMARK    4  A    between atoms: C7_7  and  C8_8 
REMARK    5  A    between atoms: C8_8  and  N1_9 
REMARK    6  A    between atoms: C8_8  and  C21_38 
REMARK    7  A    between atoms: C8_8  and  C27_47 
REMARK    8  A    between atoms: N1_9  and  C9_11 
REMARK    9  A    between atoms: C9_11  and  C10_12 
REMARK   10  A    between atoms: C10_12  and  C11_13 
REMARK   11  A    between atoms: C12_15  and  C13_16 
REMARK   12  A    between atoms: C13_16  and  O2_17 
REMARK   13  A    between atoms: C14_19  and  N2_20 
REMARK   14  A    between atoms: C17_25  and  N4_26 
REMARK   15  A    between atoms: C20_35  and  O3_36 
ROOT
HETATM    1  C11 UNL     1      45.572  32.696  29.457  1.00  0.00     0.154 C 
HETATM    2  O1  UNL     1      46.229  32.200  28.336  1.00  0.00    -0.374 OA
HETATM    3  C12 UNL     1      45.231  31.809  27.430  1.00  0.00     0.171 C 
HETATM    4  C14 UNL     1      43.982  31.545  28.189  1.00  0.00     0.154 C 
HETATM    5  C20 UNL     1      44.514  31.589  29.631  1.00  0.00     0.173 C 
ENDROOT
BRANCH   1   6
HETATM    6  C10 UNL     1      46.372  32.724  30.697  1.00  0.00     0.054 C 
BRANCH   6   7
HETATM    7  C9  UNL     1      47.826  33.203  30.503  1.00  0.00     0.117 C 
BRANCH   7   8
HETATM    8  N1  UNL     1      48.511  33.295  31.716  1.00  0.00    -0.404 N 
ATOM      9  H1  UNL     1      48.617  34.213  32.147  1.00  0.00     0.154 HD
BRANCH   8  10
HETATM   10  C8  UNL     1      49.065  32.170  32.379  1.00  0.00     0.116 C 
BRANCH  10  11
HETATM   11  C7  UNL     1      49.124  30.929  31.576  1.00  0.00     0.041 C 
BRANCH  11  12
HETATM   12  C6  UNL     1      48.284  29.773  31.796  1.00  0.00     0.004 C 
BRANCH  12  13
HETATM   13  C5  UNL     1      49.044  28.475  31.707  1.00  0.00     0.008 C 
BRANCH  13  14
HETATM   14  C2  UNL     1      48.918  27.591  30.557  1.00  0.00    -0.051 C 
HETATM   15  C1  UNL     1      47.880  27.998  29.540  1.00  0.00     0.014 C 
HETATM   16  C3  UNL     1      50.291  27.809  29.778  1.00  0.00     0.014 C 
HETATM   17  C4  UNL     1      48.917  26.128  30.801  1.00  0.00     0.014 C 
ENDBRANCH  13  14
ENDBRANCH  12  13
ENDBRANCH  11  12
ENDBRANCH  10  11
BRANCH  10  18
HETATM   18  C21 UNL     1      48.778  32.085  33.823  1.00  0.00     0.017 A 
HETATM   19  C22 UNL     1      47.800  32.892  34.361  1.00  0.00     0.016 A 
HETATM   20  C23 UNL     1      47.523  32.865  35.728  1.00  0.00     0.046 A 
HETATM   21  C24 UNL     1      48.192  32.054  36.590  1.00  0.00     0.158 A 
HETATM   22  F1  UNL     1      47.931  32.015  37.935  1.00  0.00    -0.203 F 
HETATM   23  C25 UNL     1      49.171  31.246  36.071  1.00  0.00     0.193 A 
HETATM   24  F2  UNL     1      49.841  30.440  36.926  1.00  0.00    -0.200 F 
HETATM   25  C26 UNL     1      49.448  31.274  34.692  1.00  0.00     0.167 A 
HETATM   26  F3  UNL     1      50.452  30.440  34.350  1.00  0.00    -0.202 F 
ENDBRANCH  10  18
BRANCH  10  27
HETATM   27  C27 UNL     1      50.606  32.598  32.428  1.00  0.00     0.385 C 
HETATM   28  F4  UNL     1      51.289  31.886  31.463  1.00  0.00    -0.211 F 
HETATM   29  F5  UNL     1      50.700  33.932  32.103  1.00  0.00    -0.211 F 
ENDBRANCH  10  27
ENDBRANCH   8  10
ENDBRANCH   7   8
ENDBRANCH   6   7
ENDBRANCH   1   6
BRANCH   5  30
HETATM   30  O3  UNL     1      45.247  30.424  29.907  1.00  0.00    -0.391 OA
ATOM     31  H3  UNL     1      46.156  30.671  29.785  1.00  0.00     0.210 HD
ENDBRANCH   5  30
BRANCH   3  32
HETATM   32  C13 UNL     1      45.010  33.040  26.551  1.00  0.00     0.198 C 
BRANCH  32  33
HETATM   33  O2  UNL     1      46.256  33.487  26.114  1.00  0.00    -0.398 OA
ATOM     34  H2  UNL     1      46.660  33.971  26.825  1.00  0.00     0.209 HD
ENDBRANCH  32  33
ENDBRANCH   3  32
BRANCH   4  35
HETATM   35  N2  UNL     1      43.331  30.298  27.934  1.00  0.00    -0.317 N 
HETATM   36  C15 UNL     1      43.857  29.321  27.155  1.00  0.00     0.185 A 
HETATM   37  N3  UNL     1      42.998  28.281  27.124  1.00  0.00    -0.346 N 
HETATM   38  C16 UNL     1      41.933  28.560  27.864  1.00  0.00     0.122 A 
ATOM     39  H3  UNL     1      43.145  27.412  26.610  1.00  0.00     0.167 HD
HETATM   40  C17 UNL     1      40.776  27.863  28.175  1.00  0.00     0.131 A 
HETATM   41  C19 UNL     1      42.151  29.843  28.374  1.00  0.00     0.141 A 
HETATM   42  N5  UNL     1      39.873  28.442  28.975  1.00  0.00    -0.337 N 
HETATM   43  C18 UNL     1      40.091  29.674  29.462  1.00  0.00     0.183 A 
ATOM     44  H5  UNL     1      39.016  27.944  29.217  1.00  0.00     0.168 HD
HETATM   45  N6  UNL     1      41.211  30.352  29.160  1.00  0.00    -0.336 N 
ATOM     46  H6  UNL     1      41.343  31.286  29.546  1.00  0.00     0.168 HD
BRANCH  40  47
HETATM   47  N4  UNL     1      40.624  26.691  27.679  1.00  0.00    -0.383 N 
ATOM     48  H42 UNL     1      40.779  25.835  28.212  1.00  0.00     0.157 HD
ATOM     49  H41 UNL     1      40.335  26.614  26.704  1.00  0.00     0.157 HD
ENDBRANCH  40  47
ENDBRANCH   4  35
TORSDOF 15
ENDMDL
MODEL 5
REMARK VINA RESULT: -9.505819100      4.395      6.485
REMARK  15 active torsions:
REMARK  status: ('A' for Active; 'I' for Inactive)
REMARK    1  A    between atoms: C2_2  and  C5_5 
REMARK    2  A    between atoms: C5_5  and  C6_6 
REMARK    3  A    between atoms: C6_6  and  C7_7 
REMARK    4  A    between atoms: C7_7  and  C8_8 
REMARK    5  A    between atoms: C8_8  and  N1_9 
REMARK    6  A    between atoms: C8_8  and  C21_38 
REMARK    7  A    between atoms: C8_8  and  C27_47 
REMARK    8  A    between atoms: N1_9  and  C9_11 
REMARK    9  A    between atoms: C9_11  and  C10_12 
REMARK   10  A    between atoms: C10_12  and  C11_13 
REMARK   11  A    between atoms: C12_15  and  C13_16 
REMARK   12  A    between atoms: C13_16  and  O2_17 
REMARK   13  A    between atoms: C14_19  and  N2_20 
REMARK   14  A    between atoms: C17_25  and  N4_26 
REMARK   15  A    between atoms: C20_35  and  O3_36 
ROOT
HETATM    1  C11 UNL     1      46.562  31.041  29.614  1.00  0.00     0.154 C 
HETATM    2  O1  UNL     1      46.789  31.524  28.330  1.00  0.00    -0.374 OA
HETATM    3  C12 UNL     1      45.566  32.042  27.878  1.00  0.00     0.171 C 
HETATM    4  C14 UNL     1      44.468  31.393  28.640  1.00  0.00     0.154 C 
HETATM    5  C20 UNL     1      45.245  30.281  29.361  1.00  0.00     0.173 C 
ENDROOT
BRANCH   1   6
HETATM    6  C10 UNL     1      47.544  30.050  30.099  1.00  0.00     0.054 C 
BRANCH   6   7
HETATM    7  C9  UNL     1      48.061  30.317  31.528  1.00  0.00     0.117 C 
BRANCH   7   8
HETATM    8  N1  UNL     1      47.712  31.592  31.978  1.00  0.00    -0.404 N 
ATOM      9  H1  UNL     1      46.792  31.957  31.736  1.00  0.00     0.154 HD
BRANCH   8  10
HETATM   10  C8  UNL     1      48.577  32.401  32.757  1.00  0.00     0.116 C 
BRANCH  10  11
HETATM   11  C7  UNL     1      49.896  32.684  32.150  1.00  0.00     0.041 C 
BRANCH  11  12
HETATM   12  C6  UNL     1      50.149  32.720  30.727  1.00  0.00     0.004 C 
BRANCH  12  13
HETATM   13  C5  UNL     1      51.284  31.820  30.314  1.00  0.00     0.008 C 
BRANCH  13  14
HETATM   14  C2  UNL     1      51.390  31.289  28.963  1.00  0.00    -0.051 C 
HETATM   15  C1  UNL     1      52.758  31.393  28.334  1.00  0.00     0.014 C 
HETATM   16  C3  UNL     1      51.209  29.720  29.172  1.00  0.00     0.014 C 
HETATM   17  C4  UNL     1      50.308  31.611  28.002  1.00  0.00     0.014 C 
ENDBRANCH  13  14
ENDBRANCH  12  13
ENDBRANCH  11  12
ENDBRANCH  10  11
BRANCH  10  18
HETATM   18  C21 UNL     1      48.479  32.206  34.215  1.00  0.00     0.017 A 
HETATM   19  C22 UNL     1      47.573  32.955  34.933  1.00  0.00     0.016 A 
HETATM   20  C23 UNL     1      47.475  32.824  36.319  1.00  0.00     0.046 A 
HETATM   21  C24 UNL     1      48.256  31.964  37.025  1.00  0.00     0.158 A 
HETATM   22  F1  UNL     1      48.170  31.823  38.386  1.00  0.00    -0.203 F 
HETATM   23  C25 UNL     1      49.165  31.212  36.326  1.00  0.00     0.193 A 
HETATM   24  F2  UNL     1      49.946  30.358  37.026  1.00  0.00    -0.200 F 
HETATM   25  C26 UNL     1      49.262  31.346  34.929  1.00  0.00     0.167 A 
HETATM   26  F3  UNL     1      50.220  30.556  34.401  1.00  0.00    -0.202 F 
ENDBRANCH  10  18
BRANCH  10  27
HETATM   27  C27 UNL     1      47.846  33.817  32.618  1.00  0.00     0.385 C 
HETATM   28  F4  UNL     1      48.809  34.805  32.585  1.00  0.00    -0.211 F 
HETATM   29  F5  UNL     1      47.179  33.848  31.415  1.00  0.00    -0.211 F 
ENDBRANCH  10  27
ENDBRANCH   8  10
ENDBRANCH   7   8
ENDBRANCH   6   7
ENDBRANCH   1   6
BRANCH   5  30
HETATM   30  O3  UNL     1      45.580  29.264  28.454  1.00  0.00    -0.391 OA
ATOM     31  H3  UNL     1      44.766  28.802  28.290  1.00  0.00     0.210 HD
ENDBRANCH   5  30
BRANCH   3  32
HETATM   32  C13 UNL     1      45.612  33.521  28.263  1.00  0.00     0.198 C 
BRANCH  32  33
HETATM   33  O2  UNL     1      44.849  34.232  27.339  1.00  0.00    -0.398 OA
ATOM     34  H2  UNL     1      44.963  33.825  26.488  1.00  0.00     0.209 HD
ENDBRANCH  32  33
ENDBRANCH   3  32
BRANCH   4  35
HETATM   35  N2  UNL     1      43.398  30.838  27.870  1.00  0.00    -0.317 N 
HETATM   36  C15 UNL     1      43.371  30.833  26.514  1.00  0.00     0.185 A 
HETATM   37  N3  UNL     1      42.233  30.234  26.106  1.00  0.00    -0.346 N 
HETATM   38  C16 UNL     1      41.526  29.852  27.161  1.00  0.00     0.122 A 
ATOM     39  H3  UNL     1      41.958  30.097  25.133  1.00  0.00     0.167 HD
HETATM   40  C17 UNL     1      40.310  29.204  27.314  1.00  0.00     0.131 A 
HETATM   41  C19 UNL     1      42.272  30.239  28.278  1.00  0.00     0.141 A 
HETATM   42  N5  UNL     1      39.866  28.956  28.551  1.00  0.00    -0.337 N 
HETATM   43  C18 UNL     1      40.589  29.331  29.618  1.00  0.00     0.183 A 
ATOM     44  H5  UNL     1      38.974  28.479  28.683  1.00  0.00     0.168 HD
HETATM   45  N6  UNL     1      41.767  29.960  29.472  1.00  0.00    -0.336 N 
ATOM     46  H6  UNL     1      42.289  30.231  30.305  1.00  0.00     0.168 HD
BRANCH  40  47
HETATM   47  N4  UNL     1      39.666  28.872  26.257  1.00  0.00    -0.383 N 
ATOM     48  H42 UNL     1      39.825  29.304  25.347  1.00  0.00     0.157 HD
ATOM     49  H41 UNL     1      38.960  28.139  26.334  1.00  0.00     0.157 HD
ENDBRANCH  40  47
ENDBRANCH   4  35
TORSDOF 15
ENDMDL
