MODEL 1
REMARK VINA RESULT: -8.238893052      0.000      0.000
REMARK  17 active torsions:
REMARK  status: ('A' for Active; 'I' for Inactive)
REMARK    1  A    between atoms: C2_2  and  C4_4 
REMARK    2  A    between atoms: C5_7  and  O1_8 
REMARK    3  A    between atoms: C6_10  and  C7_11 
REMARK    4  A    between atoms: C7_11  and  C8_12 
REMARK    5  A    between atoms: C8_12  and  O2_13 
REMARK    6  A    between atoms: C8_12  and  C9_15 
REMARK    7  A    between atoms: C9_15  and  C10_16 
REMARK    8  A    between atoms: C10_16  and  C11_17 
REMARK    9  A    between atoms: C11_17  and  C12_18 
REMARK   10  A    between atoms: C12_18  and  C13_19 
REMARK   11  A    between atoms: C13_19  and  C14_20 
REMARK   12  A    between atoms: C14_20  and  C15_21 
REMARK   13  A    between atoms: C15_21  and  C16_22 
REMARK   14  A    between atoms: C16_22  and  O3_23 
REMARK   15  A    between atoms: C16_22  and  C17_25 
REMARK   16  A    between atoms: C17_25  and  C18_26 
REMARK   17  A    between atoms: C25_44  and  C26_45 
ROOT
HETATM    1  C4  UNL     1      49.665  33.105  32.183  1.00  0.00     0.033 C 
HETATM    2  N1  UNL     1      49.473  33.870  31.012  1.00  0.00    -0.343 N 
ATOM      3  H1  UNL     1      49.057  34.761  31.288  1.00  0.00     0.167 HD
HETATM    4  C5  UNL     1      49.625  33.888  29.653  1.00  0.00     0.120 C 
HETATM    5  C6  UNL     1      48.960  33.273  28.495  1.00  0.00     0.065 C 
HETATM    6  C20 UNL     1      49.086  31.814  28.274  1.00  0.00     0.039 C 
HETATM    7  C21 UNL     1      50.408  31.353  27.708  1.00  0.00     0.168 C 
HETATM    8  O5  UNL     1      51.474  32.179  28.030  1.00  0.00    -0.389 OA
HETATM    9  C22 UNL     1      52.643  31.394  28.160  1.00  0.00     0.195 C 
HETATM   10  C23 UNL     1      52.870  31.246  29.651  1.00  0.00     0.266 C 
HETATM   11  N4  UNL     1      51.552  31.167  30.269  1.00  0.00    -0.003 N 
ATOM     12  H41 UNL     1      51.166  30.224  30.232  1.00  0.00     0.284 HD
ATOM     13  H42 UNL     1      50.838  31.640  29.714  1.00  0.00     0.284 HD
HETATM   14  C24 UNL     1      51.615  31.662  31.582  1.00  0.00     0.440 C 
HETATM   15  F1  UNL     1      52.505  30.819  32.275  1.00  0.00    -0.170 F 
HETATM   16  F2  UNL     1      52.229  32.899  31.637  1.00  0.00    -0.170 F 
HETATM   17  C25 UNL     1      50.297  31.819  32.331  1.00  0.00     0.148 C 
ENDROOT
BRANCH   5  18
HETATM   18  C7  UNL     1      47.481  33.590  28.360  1.00  0.00     0.044 C 
BRANCH  18  19
HETATM   19  C8  UNL     1      46.768  32.751  27.367  1.00  0.00     0.118 C 
BRANCH  19  20
HETATM   20  O2  UNL     1      46.650  33.496  26.192  1.00  0.00    -0.396 OA
ATOM     21  H2  UNL     1      45.881  33.183  25.731  1.00  0.00     0.210 HD
ENDBRANCH  19  20
BRANCH  19  22
HETATM   22  C9  UNL     1      45.328  32.443  27.802  1.00  0.00     0.032 C 
BRANCH  22  23
HETATM   23  C10 UNL     1      45.318  32.251  29.303  1.00  0.00     0.002 C 
BRANCH  23  24
HETATM   24  C11 UNL     1      44.969  30.831  29.668  1.00  0.00     0.000 C 
BRANCH  24  25
HETATM   25  C12 UNL     1      46.189  30.132  30.189  1.00  0.00     0.000 C 
BRANCH  25  26
HETATM   26  C13 UNL     1      46.877  29.274  29.144  1.00  0.00     0.000 C 
BRANCH  26  27
HETATM   27  C14 UNL     1      47.886  28.370  29.780  1.00  0.00     0.002 C 
BRANCH  27  28
HETATM   28  C15 UNL     1      49.105  28.292  28.899  1.00  0.00     0.032 C 
BRANCH  28  29
HETATM   29  C16 UNL     1      50.105  27.289  29.412  1.00  0.00     0.125 C 
BRANCH  29  30
HETATM   30  O3  UNL     1      51.263  27.975  29.821  1.00  0.00    -0.395 OA
ATOM     31  H3  UNL     1      52.025  27.508  29.497  1.00  0.00     0.210 HD
ENDBRANCH  29  30
BRANCH  29  32
HETATM   32  C17 UNL     1      49.564  26.564  30.629  1.00  0.00     0.117 C 
BRANCH  32  33
HETATM   33  C18 UNL     1      50.168  25.201  30.687  1.00  0.00     0.141 A 
HETATM   34  N2  UNL     1      51.469  24.857  30.673  1.00  0.00    -0.282 N 
HETATM   35  N3  UNL     1      51.509  23.520  30.744  1.00  0.00    -0.288 N 
ATOM     36  H2  UNL     1      52.268  25.489  30.620  1.00  0.00     0.189 HD
HETATM   37  C19 UNL     1      50.253  23.047  30.801  1.00  0.00     0.251 A 
ATOM     38  H3  UNL     1      52.356  22.953  30.753  1.00  0.00     0.188 HD
HETATM   39  O4  UNL     1      49.469  24.094  30.764  1.00  0.00    -0.290 OA
ENDBRANCH  32  33
ENDBRANCH  29  32
ENDBRANCH  28  29
ENDBRANCH  27  28
ENDBRANCH  26  27
ENDBRANCH  25  26
ENDBRANCH  24  25
ENDBRANCH  23  24
ENDBRANCH  22  23
ENDBRANCH  19  22
ENDBRANCH  18  19
ENDBRANCH   5  18
BRANCH   4  40
HETATM   40  O1  UNL     1      50.614  34.644  29.201  1.00  0.00    -0.349 OA
ATOM     41  H1  UNL     1      51.240  34.203  28.638  1.00  0.00     0.219 HD
ENDBRANCH   4  40
BRANCH   1  42
HETATM   42  C2  UNL     1      48.447  33.225  33.116  1.00  0.00     0.028 C 
HETATM   43  C1  UNL     1      47.148  33.347  32.410  1.00  0.00     0.016 C 
HETATM   44  C3  UNL     1      48.579  34.527  33.944  1.00  0.00     0.016 C 
ENDBRANCH   1  42
BRANCH  17  45
HETATM   45  C26 UNL     1      49.594  30.548  32.599  1.00  0.00     0.423 C 
HETATM   46  F3  UNL     1      50.096  29.390  32.125  1.00  0.00    -0.166 F 
HETATM   47  F4  UNL     1      48.234  30.523  32.326  1.00  0.00    -0.166 F 
HETATM   48  F5  UNL     1      49.538  30.317  34.017  1.00  0.00    -0.166 F 
ENDBRANCH  17  45
TORSDOF 17
ENDMDL
MODEL 2
REMARK VINA RESULT: -7.989098384      2.608      4.751
REMARK  17 active torsions:
REMARK  status: ('A' for Active; 'I' for Inactive)
REMARK    1  A    between atoms: C2_2  and  C4_4 
REMARK    2  A    between atoms: C5_7  and  O1_8 
REMARK    3  A    between atoms: C6_10  and  C7_11 
REMARK    4  A    between atoms: C7_11  and  C8_12 
REMARK    5  A    between atoms: C8_12  and  O2_13 
REMARK    6  A    between atoms: C8_12  and  C9_15 
REMARK    7  A    between atoms: C9_15  and  C10_16 
REMARK    8  A    between atoms: C10_16  and  C11_17 
REMARK    9  A    between atoms: C11_17  and  C12_18 
REMARK   10  A    between atoms: C12_18  and  C13_19 
REMARK   11  A    between atoms: C13_19  and  C14_20 
REMARK   12  A    between atoms: C14_20  and  C15_21 
REMARK   13  A    between atoms: C15_21  and  C16_22 
REMARK   14  A    between atoms: C16_22  and  O3_23 
REMARK   15  A    between atoms: C16_22  and  C17_25 
REMARK   16  A    between atoms: C17_25  and  C18_26 
REMARK   17  A    between atoms: C25_44  and  C26_45 
ROOT
HETATM    1  C4  UNL     1      47.969  33.107  32.872  1.00  0.00     0.033 C 
HETATM    2  N1  UNL     1      48.201  31.926  32.134  1.00  0.00    -0.343 N 
ATOM      3  H1  UNL     1      47.976  31.135  32.737  1.00  0.00     0.167 HD
HETATM    4  C5  UNL     1      48.609  31.425  30.928  1.00  0.00     0.120 C 
HETATM    5  C6  UNL     1      49.883  31.264  30.213  1.00  0.00     0.065 C 
HETATM    6  C20 UNL     1      50.591  32.465  29.711  1.00  0.00     0.039 C 
HETATM    7  C21 UNL     1      50.015  33.085  28.460  1.00  0.00     0.168 C 
HETATM    8  O5  UNL     1      48.653  32.871  28.305  1.00  0.00    -0.389 OA
HETATM    9  C22 UNL     1      48.082  33.991  27.657  1.00  0.00     0.195 C 
HETATM   10  C23 UNL     1      47.393  34.784  28.749  1.00  0.00     0.266 C 
HETATM   11  N4  UNL     1      48.212  34.646  29.947  1.00  0.00    -0.003 N 
ATOM     12  H41 UNL     1      48.991  35.304  29.958  1.00  0.00     0.284 HD
ATOM     13  H42 UNL     1      48.751  33.780  29.946  1.00  0.00     0.284 HD
HETATM   14  C24 UNL     1      47.403  34.765  31.089  1.00  0.00     0.440 C 
HETATM   15  F1  UNL     1      46.855  36.062  31.046  1.00  0.00    -0.170 F 
HETATM   16  F2  UNL     1      46.295  33.942  31.023  1.00  0.00    -0.170 F 
HETATM   17  C25 UNL     1      48.053  34.478  32.436  1.00  0.00     0.148 C 
ENDROOT
BRANCH   5  18
HETATM   18  C7  UNL     1      50.928  30.436  30.940  1.00  0.00     0.044 C 
BRANCH  18  19
HETATM   19  C8  UNL     1      51.366  29.227  30.202  1.00  0.00     0.118 C 
BRANCH  19  20
HETATM   20  O2  UNL     1      52.735  29.355  29.958  1.00  0.00    -0.396 OA
ATOM     21  H2  UNL     1      52.996  28.630  29.403  1.00  0.00     0.210 HD
ENDBRANCH  19  20
BRANCH  19  22
HETATM   22  C9  UNL     1      50.711  29.128  28.818  1.00  0.00     0.032 C 
BRANCH  22  23
HETATM   23  C10 UNL     1      50.039  27.777  28.707  1.00  0.00     0.002 C 
BRANCH  23  24
HETATM   24  C11 UNL     1      48.636  27.820  29.256  1.00  0.00     0.000 C 
BRANCH  24  25
HETATM   25  C12 UNL     1      48.276  26.478  29.818  1.00  0.00     0.000 C 
BRANCH  25  26
HETATM   26  C13 UNL     1      49.131  26.081  31.006  1.00  0.00     0.000 C 
BRANCH  26  27
HETATM   27  C14 UNL     1      48.278  25.801  32.205  1.00  0.00     0.002 C 
BRANCH  27  28
HETATM   28  C15 UNL     1      48.310  24.325  32.501  1.00  0.00     0.032 C 
BRANCH  28  29
HETATM   29  C16 UNL     1      49.492  23.649  31.857  1.00  0.00     0.125 C 
BRANCH  29  30
HETATM   30  O3  UNL     1      50.227  22.978  32.853  1.00  0.00    -0.395 OA
ATOM     31  H3  UNL     1      51.057  22.701  32.484  1.00  0.00     0.210 HD
ENDBRANCH  29  30
BRANCH  29  32
HETATM   32  C17 UNL     1      49.037  22.603  30.859  1.00  0.00     0.117 C 
BRANCH  32  33
HETATM   33  C18 UNL     1      50.101  21.566  30.726  1.00  0.00     0.141 A 
HETATM   34  N2  UNL     1      51.380  21.719  30.336  1.00  0.00    -0.282 N 
HETATM   35  N3  UNL     1      51.938  20.502  30.377  1.00  0.00    -0.288 N 
ATOM     36  H2  UNL     1      51.835  22.590  30.063  1.00  0.00     0.189 HD
HETATM   37  C19 UNL     1      51.017  19.613  30.786  1.00  0.00     0.251 A 
ATOM     38  H3  UNL     1      52.904  20.286  30.136  1.00  0.00     0.188 HD
HETATM   39  O4  UNL     1      49.919  20.294  30.988  1.00  0.00    -0.290 OA
ENDBRANCH  32  33
ENDBRANCH  29  32
ENDBRANCH  28  29
ENDBRANCH  27  28
ENDBRANCH  26  27
ENDBRANCH  25  26
ENDBRANCH  24  25
ENDBRANCH  23  24
ENDBRANCH  22  23
ENDBRANCH  19  22
ENDBRANCH  18  19
ENDBRANCH   5  18
BRANCH   4  40
HETATM   40  O1  UNL     1      47.646  30.939  30.159  1.00  0.00    -0.349 OA
ATOM     41  H1  UNL     1      47.835  30.925  29.228  1.00  0.00     0.219 HD
ENDBRANCH   4  40
BRANCH   1  42
HETATM   42  C2  UNL     1      48.488  32.959  34.313  1.00  0.00     0.028 C 
HETATM   43  C1  UNL     1      49.085  31.634  34.612  1.00  0.00     0.016 C 
HETATM   44  C3  UNL     1      47.294  33.092  35.290  1.00  0.00     0.016 C 
ENDBRANCH   1  42
BRANCH  17  45
HETATM   45  C26 UNL     1      49.121  35.428  32.812  1.00  0.00     0.423 C 
HETATM   46  F3  UNL     1      49.163  36.650  32.244  1.00  0.00    -0.166 F 
HETATM   47  F4  UNL     1      50.419  34.942  32.787  1.00  0.00    -0.166 F 
HETATM   48  F5  UNL     1      49.026  35.730  34.215  1.00  0.00    -0.166 F 
ENDBRANCH  17  45
TORSDOF 17
ENDMDL
MODEL 3
REMARK VINA RESULT: -7.947090157      2.330      4.555
REMARK  17 active torsions:
REMARK  status: ('A' for Active; 'I' for Inactive)
REMARK    1  A    between atoms: C2_2  and  C4_4 
REMARK    2  A    between atoms: C5_7  and  O1_8 
REMARK    3  A    between atoms: C6_10  and  C7_11 
REMARK    4  A    between atoms: C7_11  and  C8_12 
REMARK    5  A    between atoms: C8_12  and  O2_13 
REMARK    6  A    between atoms: C8_12  and  C9_15 
REMARK    7  A    between atoms: C9_15  and  C10_16 
REMARK    8  A    between atoms: C10_16  and  C11_17 
REMARK    9  A    between atoms: C11_17  and  C12_18 
REMARK   10  A    between atoms: C12_18  and  C13_19 
REMARK   11  A    between atoms: C13_19  and  C14_20 
REMARK   12  A    between atoms: C14_20  and  C15_21 
REMARK   13  A    between atoms: C15_21  and  C16_22 
REMARK   14  A    between atoms: C16_22  and  O3_23 
REMARK   15  A    between atoms: C16_22  and  C17_25 
REMARK   16  A    between atoms: C17_25  and  C18_26 
REMARK   17  A    between atoms: C25_44  and  C26_45 
ROOT
HETATM    1  C4  UNL     1      48.223  31.177  31.708  1.00  0.00     0.033 C 
HETATM    2  N1  UNL     1      48.505  30.932  30.347  1.00  0.00    -0.343 N 
ATOM      3  H1  UNL     1      48.740  29.944  30.252  1.00  0.00     0.167 HD
HETATM    4  C5  UNL     1      48.588  31.499  29.104  1.00  0.00     0.120 C 
HETATM    5  C6  UNL     1      49.520  32.387  28.394  1.00  0.00     0.065 C 
HETATM    6  C20 UNL     1      49.635  33.803  28.812  1.00  0.00     0.039 C 
HETATM    7  C21 UNL     1      48.507  34.706  28.374  1.00  0.00     0.168 C 
HETATM    8  O5  UNL     1      47.297  34.048  28.205  1.00  0.00    -0.389 OA
HETATM    9  C22 UNL     1      46.243  34.927  28.546  1.00  0.00     0.195 C 
HETATM   10  C23 UNL     1      45.787  34.498  29.926  1.00  0.00     0.266 C 
HETATM   11  N4  UNL     1      46.978  34.056  30.642  1.00  0.00    -0.003 N 
ATOM     12  H41 UNL     1      47.491  34.837  31.052  1.00  0.00     0.284 HD
ATOM     13  H42 UNL     1      47.703  33.719  30.009  1.00  0.00     0.284 HD
HETATM   14  C24 UNL     1      46.622  33.094  31.601  1.00  0.00     0.440 C 
HETATM   15  F1  UNL     1      45.752  33.740  32.499  1.00  0.00    -0.170 F 
HETATM   16  F2  UNL     1      45.844  32.089  31.059  1.00  0.00    -0.170 F 
HETATM   17  C25 UNL     1      47.758  32.389  32.333  1.00  0.00     0.148 C 
ENDROOT
BRANCH   5  18
HETATM   18  C7  UNL     1      50.941  31.867  28.280  1.00  0.00     0.044 C 
BRANCH  18  19
HETATM   19  C8  UNL     1      51.138  30.866  27.204  1.00  0.00     0.118 C 
BRANCH  19  20
HETATM   20  O2  UNL     1      50.389  31.281  26.100  1.00  0.00    -0.396 OA
ATOM     21  H2  UNL     1      49.517  31.496  26.411  1.00  0.00     0.210 HD
ENDBRANCH  19  20
BRANCH  19  22
HETATM   22  C9  UNL     1      50.574  29.491  27.587  1.00  0.00     0.032 C 
BRANCH  22  23
HETATM   23  C10 UNL     1      51.244  29.045  28.868  1.00  0.00     0.002 C 
BRANCH  23  24
HETATM   24  C11 UNL     1      50.577  27.816  29.431  1.00  0.00     0.000 C 
BRANCH  24  25
HETATM   25  C12 UNL     1      49.124  27.819  29.061  1.00  0.00     0.000 C 
BRANCH  25  26
HETATM   26  C13 UNL     1      48.330  26.727  29.751  1.00  0.00     0.000 C 
BRANCH  26  27
HETATM   27  C14 UNL     1      49.222  25.879  30.604  1.00  0.00     0.002 C 
BRANCH  27  28
HETATM   28  C15 UNL     1      48.401  25.227  31.684  1.00  0.00     0.032 C 
BRANCH  28  29
HETATM   29  C16 UNL     1      49.080  24.004  32.244  1.00  0.00     0.125 C 
BRANCH  29  30
HETATM   30  O3  UNL     1      48.239  22.892  32.048  1.00  0.00    -0.395 OA
ATOM     31  H3  UNL     1      48.365  22.285  32.768  1.00  0.00     0.210 HD
ENDBRANCH  29  30
BRANCH  29  32
HETATM   32  C17 UNL     1      50.373  23.720  31.504  1.00  0.00     0.117 C 
BRANCH  32  33
HETATM   33  C18 UNL     1      50.280  22.373  30.869  1.00  0.00     0.141 A 
HETATM   34  N2  UNL     1      49.650  22.022  29.733  1.00  0.00    -0.282 N 
HETATM   35  N3  UNL     1      49.851  20.706  29.579  1.00  0.00    -0.288 N 
ATOM     36  H2  UNL     1      49.123  22.635  29.112  1.00  0.00     0.189 HD
HETATM   37  C19 UNL     1      50.594  20.255  30.604  1.00  0.00     0.251 A 
ATOM     38  H3  UNL     1      49.497  20.139  28.809  1.00  0.00     0.188 HD
HETATM   39  O4  UNL     1      50.834  21.293  31.363  1.00  0.00    -0.290 OA
ENDBRANCH  32  33
ENDBRANCH  29  32
ENDBRANCH  28  29
ENDBRANCH  27  28
ENDBRANCH  26  27
ENDBRANCH  25  26
ENDBRANCH  24  25
ENDBRANCH  23  24
ENDBRANCH  22  23
ENDBRANCH  19  22
ENDBRANCH  18  19
ENDBRANCH   5  18
BRANCH   4  40
HETATM   40  O1  UNL     1      47.596  31.204  28.278  1.00  0.00    -0.349 OA
ATOM     41  H1  UNL     1      47.681  31.552  27.397  1.00  0.00     0.219 HD
ENDBRANCH   4  40
BRANCH   1  42
HETATM   42  C2  UNL     1      49.234  30.449  32.612  1.00  0.00     0.028 C 
HETATM   43  C1  UNL     1      50.636  30.508  32.129  1.00  0.00     0.016 C 
HETATM   44  C3  UNL     1      48.882  28.942  32.642  1.00  0.00     0.016 C 
ENDBRANCH   1  42
BRANCH  17  45
HETATM   45  C26 UNL     1      48.573  33.274  33.189  1.00  0.00     0.423 C 
HETATM   46  F3  UNL     1      48.064  34.445  33.623  1.00  0.00    -0.166 F 
HETATM   47  F4  UNL     1      49.859  33.550  32.747  1.00  0.00    -0.166 F 
HETATM   48  F5  UNL     1      48.902  32.595  34.413  1.00  0.00    -0.166 F 
ENDBRANCH  17  45
TORSDOF 17
ENDMDL
MODEL 4
REMARK VINA RESULT: -7.903358182      2.424      4.578
REMARK  17 active torsions:
REMARK  status: ('A' for Active; 'I' for Inactive)
REMARK    1  A    between atoms: C2_2  and  C4_4 
REMARK    2  A    between atoms: C5_7  and  O1_8 
REMARK    3  A    between atoms: C6_10  and  C7_11 
REMARK    4  A    between atoms: C7_11  and  C8_12 
REMARK    5  A    between atoms: C8_12  and  O2_13 
REMARK    6  A    between atoms: C8_12  and  C9_15 
REMARK    7  A    between atoms: C9_15  and  C10_16 
REMARK    8  A    between atoms: C10_16  and  C11_17 
REMARK    9  A    between atoms: C11_17  and  C12_18 
REMARK   10  A    between atoms: C12_18  and  C13_19 
REMARK   11  A    between atoms: C13_19  and  C14_20 
REMARK   12  A    between atoms: C14_20  and  C15_21 
REMARK   13  A    between atoms: C15_21  and  C16_22 
REMARK   14  A    between atoms: C16_22  and  O3_23 
REMARK   15  A    between atoms: C16_22  and  C17_25 
REMARK   16  A    between atoms: C17_25  and  C18_26 
REMARK   17  A    between atoms: C25_44  and  C26_45 
ROOT
HETATM    1  C4  UNL     1      48.660  31.886  32.539  1.00  0.00     0.033 C 
HETATM    2  N1  UNL     1      47.580  31.361  31.797  1.00  0.00    -0.343 N 
ATOM      3  H1  UNL     1      47.293  30.489  32.242  1.00  0.00     0.167 HD
HETATM    4  C5  UNL     1      46.767  31.562  30.715  1.00  0.00     0.120 C 
HETATM    5  C6  UNL     1      46.886  31.455  29.254  1.00  0.00     0.065 C 
HETATM    6  C20 UNL     1      47.739  32.420  28.521  1.00  0.00     0.039 C 
HETATM    7  C21 UNL     1      47.148  33.796  28.331  1.00  0.00     0.168 C 
HETATM    8  O5  UNL     1      46.245  34.160  29.319  1.00  0.00    -0.389 OA
HETATM    9  C22 UNL     1      46.328  35.557  29.527  1.00  0.00     0.195 C 
HETATM   10  C23 UNL     1      47.129  35.730  30.802  1.00  0.00     0.266 C 
HETATM   11  N4  UNL     1      48.126  34.667  30.818  1.00  0.00    -0.003 N 
ATOM     12  H41 UNL     1      48.950  34.904  30.266  1.00  0.00     0.284 HD
ATOM     13  H42 UNL     1      47.824  33.849  30.288  1.00  0.00     0.284 HD
HETATM   14  C24 UNL     1      48.453  34.346  32.146  1.00  0.00     0.440 C 
HETATM   15  F1  UNL     1      49.008  35.513  32.705  1.00  0.00    -0.170 F 
HETATM   16  F2  UNL     1      47.326  34.121  32.914  1.00  0.00    -0.170 F 
HETATM   17  C25 UNL     1      49.354  33.137  32.368  1.00  0.00     0.148 C 
ENDROOT
BRANCH   5  18
HETATM   18  C7  UNL     1      47.274  30.080  28.740  1.00  0.00     0.044 C 
BRANCH  18  19
HETATM   19  C8  UNL     1      48.615  30.023  28.111  1.00  0.00     0.118 C 
BRANCH  19  20
HETATM   20  O2  UNL     1      48.559  29.077  27.084  1.00  0.00    -0.396 OA
ATOM     21  H2  UNL     1      49.451  28.878  26.829  1.00  0.00     0.210 HD
ENDBRANCH  19  20
BRANCH  19  22
HETATM   22  C9  UNL     1      49.686  29.507  29.082  1.00  0.00     0.032 C 
BRANCH  22  23
HETATM   23  C10 UNL     1      50.493  28.441  28.375  1.00  0.00     0.002 C 
BRANCH  23  24
HETATM   24  C11 UNL     1      50.740  27.258  29.276  1.00  0.00     0.000 C 
BRANCH  24  25
HETATM   25  C12 UNL     1      49.677  27.200  30.331  1.00  0.00     0.000 C 
BRANCH  25  26
HETATM   26  C13 UNL     1      49.160  25.797  30.581  1.00  0.00     0.000 C 
BRANCH  26  27
HETATM   27  C14 UNL     1      48.325  25.751  31.823  1.00  0.00     0.002 C 
BRANCH  27  28
HETATM   28  C15 UNL     1      48.342  24.352  32.380  1.00  0.00     0.032 C 
BRANCH  28  29
HETATM   29  C16 UNL     1      49.438  23.519  31.768  1.00  0.00     0.125 C 
BRANCH  29  30
HETATM   30  O3  UNL     1      50.353  23.165  32.777  1.00  0.00    -0.395 OA
ATOM     31  H3  UNL     1      49.931  23.272  33.622  1.00  0.00     0.210 HD
ENDBRANCH  29  30
BRANCH  29  32
HETATM   32  C17 UNL     1      48.879  22.228  31.202  1.00  0.00     0.117 C 
BRANCH  32  33
HETATM   33  C18 UNL     1      50.014  21.331  30.833  1.00  0.00     0.141 A 
HETATM   34  N2  UNL     1      51.225  21.664  30.351  1.00  0.00    -0.282 N 
HETATM   35  N3  UNL     1      51.893  20.516  30.176  1.00  0.00    -0.288 N 
ATOM     36  H2  UNL     1      51.568  22.605  30.156  1.00  0.00     0.189 HD
HETATM   37  C19 UNL     1      51.105  19.492  30.546  1.00  0.00     0.251 A 
ATOM     38  H3  UNL     1      52.844  20.432  29.820  1.00  0.00     0.188 HD
HETATM   39  O4  UNL     1      49.976  20.025  30.938  1.00  0.00    -0.290 OA
ENDBRANCH  32  33
ENDBRANCH  29  32
ENDBRANCH  28  29
ENDBRANCH  27  28
ENDBRANCH  26  27
ENDBRANCH  25  26
ENDBRANCH  24  25
ENDBRANCH  23  24
ENDBRANCH  22  23
ENDBRANCH  19  22
ENDBRANCH  18  19
ENDBRANCH   5  18
BRANCH   4  40
HETATM   40  O1  UNL     1      45.534  31.955  30.996  1.00  0.00    -0.349 OA
ATOM     41  H1  UNL     1      45.462  32.795  31.434  1.00  0.00     0.219 HD
ENDBRANCH   4  40
BRANCH   1  42
HETATM   42  C2  UNL     1      49.640  30.768  32.937  1.00  0.00     0.028 C 
HETATM   43  C1  UNL     1      49.158  29.398  32.634  1.00  0.00     0.016 C 
HETATM   44  C3  UNL     1      49.832  30.796  34.473  1.00  0.00     0.016 C 
ENDBRANCH   1  42
BRANCH  17  45
HETATM   45  C26 UNL     1      50.720  33.288  31.826  1.00  0.00     0.423 C 
HETATM   46  F3  UNL     1      51.747  32.633  32.403  1.00  0.00    -0.166 F 
HETATM   47  F4  UNL     1      51.159  34.584  31.604  1.00  0.00    -0.166 F 
HETATM   48  F5  UNL     1      50.756  32.808  30.470  1.00  0.00    -0.166 F 
ENDBRANCH  17  45
TORSDOF 17
ENDMDL
MODEL 5
REMARK VINA RESULT: -7.898915921      3.561      7.153
REMARK  17 active torsions:
REMARK  status: ('A' for Active; 'I' for Inactive)
REMARK    1  A    between atoms: C2_2  and  C4_4 
REMARK    2  A    between atoms: C5_7  and  O1_8 
REMARK    3  A    between atoms: C6_10  and  C7_11 
REMARK    4  A    between atoms: C7_11  and  C8_12 
REMARK    5  A    between atoms: C8_12  and  O2_13 
REMARK    6  A    between atoms: C8_12  and  C9_15 
REMARK    7  A    between atoms: C9_15  and  C10_16 
REMARK    8  A    between atoms: C10_16  and  C11_17 
REMARK    9  A    between atoms: C11_17  and  C12_18 
REMARK   10  A    between atoms: C12_18  and  C13_19 
REMARK   11  A    between atoms: C13_19  and  C14_20 
REMARK   12  A    between atoms: C14_20  and  C15_21 
REMARK   13  A    between atoms: C15_21  and  C16_22 
REMARK   14  A    between atoms: C16_22  and  O3_23 
REMARK   15  A    between atoms: C16_22  and  C17_25 
REMARK   16  A    between atoms: C17_25  and  C18_26 
REMARK   17  A    between atoms: C25_44  and  C26_45 
ROOT
HETATM    1  C4  UNL     1      45.954  31.862  28.514  1.00  0.00     0.033 C 
HETATM    2  N1  UNL     1      47.138  31.634  27.778  1.00  0.00    -0.343 N 
ATOM      3  H1  UNL     1      46.992  30.801  27.207  1.00  0.00     0.167 HD
HETATM    4  C5  UNL     1      48.404  32.091  27.530  1.00  0.00     0.120 C 
HETATM    5  C6  UNL     1      49.696  32.093  28.231  1.00  0.00     0.065 C 
HETATM    6  C20 UNL     1      49.863  32.928  29.444  1.00  0.00     0.039 C 
HETATM    7  C21 UNL     1      50.042  34.407  29.196  1.00  0.00     0.168 C 
HETATM    8  O5  UNL     1      49.445  34.855  28.027  1.00  0.00    -0.389 OA
HETATM    9  C22 UNL     1      48.994  36.182  28.219  1.00  0.00     0.195 C 
HETATM   10  C23 UNL     1      47.497  36.076  28.430  1.00  0.00     0.266 C 
HETATM   11  N4  UNL     1      47.264  34.836  29.161  1.00  0.00    -0.003 N 
ATOM     12  H41 UNL     1      47.400  34.951  30.165  1.00  0.00     0.284 HD
ATOM     13  H42 UNL     1      47.997  34.147  28.992  1.00  0.00     0.284 HD
HETATM   14  C24 UNL     1      45.988  34.338  28.852  1.00  0.00     0.440 C 
HETATM   15  F1  UNL     1      45.072  35.315  29.288  1.00  0.00    -0.170 F 
HETATM   16  F2  UNL     1      45.774  34.277  27.489  1.00  0.00    -0.170 F 
HETATM   17  C25 UNL     1      45.630  32.958  29.391  1.00  0.00     0.148 C 
ENDROOT
BRANCH   5  18
HETATM   18  C7  UNL     1      50.233  30.720  28.592  1.00  0.00     0.044 C 
BRANCH  18  19
HETATM   19  C8  UNL     1      51.425  30.746  29.474  1.00  0.00     0.118 C 
BRANCH  19  20
HETATM   20  O2  UNL     1      52.447  30.052  28.822  1.00  0.00    -0.396 OA
ATOM     21  H2  UNL     1      52.595  29.245  29.300  1.00  0.00     0.210 HD
ENDBRANCH  19  20
BRANCH  19  22
HETATM   22  C9  UNL     1      51.188  29.985  30.786  1.00  0.00     0.032 C 
BRANCH  22  23
HETATM   23  C10 UNL     1      49.778  29.437  30.767  1.00  0.00     0.002 C 
BRANCH  23  24
HETATM   24  C11 UNL     1      49.153  29.497  32.138  1.00  0.00     0.000 C 
BRANCH  24  25
HETATM   25  C12 UNL     1      50.025  30.303  33.052  1.00  0.00     0.000 C 
BRANCH  25  26
HETATM   26  C13 UNL     1      49.328  31.526  33.617  1.00  0.00     0.000 C 
BRANCH  26  27
HETATM   27  C14 UNL     1      49.257  31.455  35.111  1.00  0.00     0.002 C 
BRANCH  27  28
HETATM   28  C15 UNL     1      48.099  32.288  35.592  1.00  0.00     0.032 C 
BRANCH  28  29
HETATM   29  C16 UNL     1      47.681  33.310  34.568  1.00  0.00     0.125 C 
BRANCH  29  30
HETATM   30  O3  UNL     1      46.303  33.164  34.321  1.00  0.00    -0.395 OA
ATOM     31  H3  UNL     1      45.842  33.887  34.731  1.00  0.00     0.210 HD
ENDBRANCH  29  30
BRANCH  29  32
HETATM   32  C17 UNL     1      47.892  34.717  35.093  1.00  0.00     0.117 C 
BRANCH  32  33
HETATM   33  C18 UNL     1      48.519  35.544  34.022  1.00  0.00     0.141 A 
HETATM   34  N2  UNL     1      48.674  36.880  33.974  1.00  0.00    -0.282 N 
HETATM   35  N3  UNL     1      49.290  37.150  32.816  1.00  0.00    -0.288 N 
ATOM     36  H2  UNL     1      48.381  37.555  34.681  1.00  0.00     0.189 HD
HETATM   37  C19 UNL     1      49.511  35.998  32.160  1.00  0.00     0.251 A 
ATOM     38  H3  UNL     1      49.549  38.079  32.485  1.00  0.00     0.188 HD
HETATM   39  O4  UNL     1      49.031  35.049  32.921  1.00  0.00    -0.290 OA
ENDBRANCH  32  33
ENDBRANCH  29  32
ENDBRANCH  28  29
ENDBRANCH  27  28
ENDBRANCH  26  27
ENDBRANCH  25  26
ENDBRANCH  24  25
ENDBRANCH  23  24
ENDBRANCH  22  23
ENDBRANCH  19  22
ENDBRANCH  18  19
ENDBRANCH   5  18
BRANCH   4  40
HETATM   40  O1  UNL     1      48.571  32.696  26.364  1.00  0.00    -0.349 OA
ATOM     41  H1  UNL     1      49.158  33.444  26.374  1.00  0.00     0.219 HD
ENDBRANCH   4  40
BRANCH   1  42
HETATM   42  C2  UNL     1      45.392  30.539  29.062  1.00  0.00     0.028 C 
HETATM   43  C1  UNL     1      46.393  29.449  29.170  1.00  0.00     0.016 C 
HETATM   44  C3  UNL     1      44.322  30.005  28.078  1.00  0.00     0.016 C 
ENDBRANCH   1  42
BRANCH  17  45
HETATM   45  C26 UNL     1      45.557  32.879  30.864  1.00  0.00     0.423 C 
HETATM   46  F3  UNL     1      44.459  32.367  31.455  1.00  0.00    -0.166 F 
HETATM   47  F4  UNL     1      45.874  34.034  31.563  1.00  0.00    -0.166 F 
HETATM   48  F5  UNL     1      46.609  32.029  31.354  1.00  0.00    -0.166 F 
ENDBRANCH  17  45
TORSDOF 17
ENDMDL
