MODEL 1
REMARK VINA RESULT: -7.633929888      0.000      0.000
REMARK  1 active torsions:
REMARK  status: ('A' for Active; 'I' for Inactive)
REMARK    1  A    between atoms: C1_2  and  C2_4 
ROOT
HETATM    1  C2  UNL     1      34.198  47.778   9.062  1.00  0.00     0.175 A 
HETATM    2  N2  UNL     1      33.801  49.029   9.437  1.00  0.00    -0.332 N 
ATOM      3  H2  UNL     1      32.822  49.179   9.684  1.00  0.00     0.168 HD
HETATM    4  C3  UNL     1      34.646  50.068   9.495  1.00  0.00     0.135 A 
HETATM    5  C4  UNL     1      34.279  51.337   9.867  1.00  0.00     0.278 A 
HETATM    6  O2  UNL     1      33.082  51.548  10.176  1.00  0.00    -0.265 OA
HETATM    7  N3  UNL     1      35.136  52.373   9.921  1.00  0.00    -0.274 N 
ATOM      8  H3  UNL     1      34.830  53.304  10.201  1.00  0.00     0.173 HD
HETATM    9  C5  UNL     1      36.420  52.122   9.585  1.00  0.00     0.327 A 
HETATM   10  O3  UNL     1      37.214  53.098   9.638  1.00  0.00    -0.247 OA
HETATM   11  N4  UNL     1      36.801  50.886   9.216  1.00  0.00    -0.302 N 
ATOM     12  H4  UNL     1      37.780  50.734   8.969  1.00  0.00     0.171 HD
HETATM   13  C6  UNL     1      35.966  49.847   9.158  1.00  0.00     0.137 A 
HETATM   14  C7  UNL     1      36.340  48.576   8.783  1.00  0.00     0.276 A 
HETATM   15  O4  UNL     1      37.537  48.381   8.478  1.00  0.00    -0.266 OA
HETATM   16  N5  UNL     1      35.481  47.556   8.733  1.00  0.00    -0.303 N 
ATOM     17  H5  UNL     1      35.793  46.626   8.450  1.00  0.00     0.171 HD
ENDROOT
BRANCH   1  18
HETATM   18  C1  UNL     1      33.231  46.712   9.026  1.00  0.00     0.298 C 
HETATM   19  N1  UNL     1      33.295  45.604   9.915  1.00  0.00    -0.054 NA
HETATM   20  O1  UNL     1      32.305  46.743   8.202  1.00  0.00    -0.268 OA
ENDBRANCH   1  18
TORSDOF 1
ENDMDL
MODEL 2
REMARK VINA RESULT: -7.508245975      1.447      4.844
REMARK  1 active torsions:
REMARK  status: ('A' for Active; 'I' for Inactive)
REMARK    1  A    between atoms: C1_2  and  C2_4 
ROOT
HETATM    1  C2  UNL     1      35.255  50.459   9.182  1.00  0.00     0.175 A 
HETATM    2  N2  UNL     1      34.188  49.629   8.991  1.00  0.00    -0.332 N 
ATOM      3  H2  UNL     1      33.249  50.027   9.008  1.00  0.00     0.168 HD
HETATM    4  C3  UNL     1      34.326  48.312   8.782  1.00  0.00     0.135 A 
HETATM    5  C4  UNL     1      33.276  47.451   8.588  1.00  0.00     0.278 A 
HETATM    6  O2  UNL     1      32.110  47.914   8.603  1.00  0.00    -0.265 OA
HETATM    7  N3  UNL     1      33.426  46.130   8.380  1.00  0.00    -0.274 N 
ATOM      8  H3  UNL     1      32.623  45.517   8.240  1.00  0.00     0.173 HD
HETATM    9  C5  UNL     1      34.690  45.653   8.367  1.00  0.00     0.327 A 
HETATM   10  O3  UNL     1      34.820  44.416   8.172  1.00  0.00    -0.247 OA
HETATM   11  N4  UNL     1      35.735  46.480   8.556  1.00  0.00    -0.302 N 
ATOM     12  H4  UNL     1      36.675  46.084   8.539  1.00  0.00     0.171 HD
HETATM   13  C6  UNL     1      35.604  47.791   8.763  1.00  0.00     0.137 A 
HETATM   14  C7  UNL     1      36.663  48.650   8.958  1.00  0.00     0.276 A 
HETATM   15  O4  UNL     1      37.818  48.174   8.940  1.00  0.00    -0.266 OA
HETATM   16  N5  UNL     1      36.502  49.959   9.164  1.00  0.00    -0.303 N 
ATOM     17  H5  UNL     1      37.309  50.567   9.305  1.00  0.00     0.171 HD
ENDROOT
BRANCH   1  18
HETATM   18  C1  UNL     1      35.026  51.864   9.399  1.00  0.00     0.298 C 
HETATM   19  N1  UNL     1      34.626  52.378  10.663  1.00  0.00    -0.054 NA
HETATM   20  O1  UNL     1      35.177  52.668   8.467  1.00  0.00    -0.268 OA
ENDBRANCH   1  18
TORSDOF 1
ENDMDL
MODEL 3
REMARK VINA RESULT: -6.543212129      1.342      5.453
REMARK  1 active torsions:
REMARK  status: ('A' for Active; 'I' for Inactive)
REMARK    1  A    between atoms: C1_2  and  C2_4 
ROOT
HETATM    1  C2  UNL     1      35.715  51.309   9.505  1.00  0.00     0.175 A 
HETATM    2  N2  UNL     1      36.328  50.139   9.161  1.00  0.00    -0.332 N 
ATOM      3  H2  UNL     1      37.348  50.105   9.148  1.00  0.00     0.168 HD
HETATM    4  C3  UNL     1      35.643  49.032   8.839  1.00  0.00     0.135 A 
HETATM    5  C4  UNL     1      36.227  47.841   8.489  1.00  0.00     0.278 A 
HETATM    6  O2  UNL     1      37.479  47.772   8.466  1.00  0.00    -0.265 OA
HETATM    7  N3  UNL     1      35.529  46.737   8.166  1.00  0.00    -0.274 N 
ATOM      8  H3  UNL     1      35.995  45.867   7.909  1.00  0.00     0.173 HD
HETATM    9  C5  UNL     1      34.183  46.834   8.198  1.00  0.00     0.327 A 
HETATM   10  O3  UNL     1      33.538  45.796   7.895  1.00  0.00    -0.247 OA
HETATM   11  N4  UNL     1      33.588  47.992   8.538  1.00  0.00    -0.302 N 
ATOM     12  H4  UNL     1      32.569  48.029   8.551  1.00  0.00     0.171 HD
HETATM   13  C6  UNL     1      34.264  49.097   8.861  1.00  0.00     0.137 A 
HETATM   14  C7  UNL     1      33.672  50.289   9.211  1.00  0.00     0.276 A 
HETATM   15  O4  UNL     1      32.423  50.343   9.229  1.00  0.00    -0.266 OA
HETATM   16  N5  UNL     1      34.374  51.379   9.528  1.00  0.00    -0.303 N 
ATOM     17  H5  UNL     1      33.902  52.246   9.783  1.00  0.00     0.171 HD
ENDROOT
BRANCH   1  18
HETATM   18  C1  UNL     1      36.521  52.455   9.840  1.00  0.00     0.298 C 
HETATM   19  N1  UNL     1      37.928  52.476   9.634  1.00  0.00    -0.054 NA
HETATM   20  O1  UNL     1      35.989  53.466  10.322  1.00  0.00    -0.268 OA
ENDBRANCH   1  18
TORSDOF 1
ENDMDL
MODEL 4
REMARK VINA RESULT: -6.517627548      1.374      5.455
REMARK  1 active torsions:
REMARK  status: ('A' for Active; 'I' for Inactive)
REMARK    1  A    between atoms: C1_2  and  C2_4 
ROOT
HETATM    1  C2  UNL     1      35.963  51.376   9.855  1.00  0.00     0.175 A 
HETATM    2  N2  UNL     1      36.298  50.240   9.178  1.00  0.00    -0.332 N 
ATOM      3  H2  UNL     1      37.096  50.265   8.542  1.00  0.00     0.168 HD
HETATM    4  C3  UNL     1      35.621  49.091   9.316  1.00  0.00     0.135 A 
HETATM    5  C4  UNL     1      35.931  47.932   8.651  1.00  0.00     0.278 A 
HETATM    6  O2  UNL     1      36.907  47.935   7.863  1.00  0.00    -0.265 OA
HETATM    7  N3  UNL     1      35.243  46.784   8.796  1.00  0.00    -0.274 N 
ATOM      8  H3  UNL     1      35.500  45.940   8.285  1.00  0.00     0.173 HD
HETATM    9  C5  UNL     1      34.197  46.803   9.649  1.00  0.00     0.327 A 
HETATM   10  O3  UNL     1      33.559  45.725   9.778  1.00  0.00    -0.247 OA
HETATM   11  N4  UNL     1      33.874  47.929  10.312  1.00  0.00    -0.302 N 
ATOM     12  H4  UNL     1      33.077  47.905  10.948  1.00  0.00     0.171 HD
HETATM   13  C6  UNL     1      34.545  49.074  10.180  1.00  0.00     0.137 A 
HETATM   14  C7  UNL     1      34.228  50.235  10.850  1.00  0.00     0.276 A 
HETATM   15  O4  UNL     1      33.253  50.216  11.632  1.00  0.00    -0.266 OA
HETATM   16  N5  UNL     1      34.917  51.368  10.698  1.00  0.00    -0.303 N 
ATOM     17  H5  UNL     1      34.655  52.210  11.211  1.00  0.00     0.171 HD
ENDROOT
BRANCH   1  18
HETATM   18  C1  UNL     1      36.741  52.572   9.655  1.00  0.00     0.298 C 
HETATM   19  N1  UNL     1      38.161  52.572   9.739  1.00  0.00    -0.054 NA
HETATM   20  O1  UNL     1      36.174  53.644   9.399  1.00  0.00    -0.268 OA
ENDBRANCH   1  18
TORSDOF 1
ENDMDL
MODEL 5
REMARK VINA RESULT: -6.133030140      1.114      1.114
REMARK  1 active torsions:
REMARK  status: ('A' for Active; 'I' for Inactive)
REMARK    1  A    between atoms: C1_2  and  C2_4 
ROOT
HETATM    1  C2  UNL     1      34.591  47.286   9.450  1.00  0.00     0.175 A 
HETATM    2  N2  UNL     1      34.028  48.364  10.068  1.00  0.00    -0.332 N 
ATOM      3  H2  UNL     1      33.131  48.245  10.540  1.00  0.00     0.168 HD
HETATM    4  C3  UNL     1      34.606  49.573  10.081  1.00  0.00     0.135 A 
HETATM    5  C4  UNL     1      34.068  50.677  10.692  1.00  0.00     0.278 A 
HETATM    6  O2  UNL     1      32.966  50.558  11.280  1.00  0.00    -0.265 OA
HETATM    7  N3  UNL     1      34.657  51.886  10.698  1.00  0.00    -0.274 N 
ATOM      8  H3  UNL     1      34.228  52.687  11.162  1.00  0.00     0.173 HD
HETATM    9  C5  UNL     1      35.843  51.991  10.060  1.00  0.00     0.327 A 
HETATM   10  O3  UNL     1      36.387  53.126  10.070  1.00  0.00    -0.247 OA
HETATM   11  N4  UNL     1      36.390  50.922   9.453  1.00  0.00    -0.302 N 
ATOM     12  H4  UNL     1      37.286  51.039   8.981  1.00  0.00     0.171 HD
HETATM   13  C6  UNL     1      35.819  49.716   9.438  1.00  0.00     0.137 A 
HETATM   14  C7  UNL     1      36.365  48.612   8.821  1.00  0.00     0.276 A 
HETATM   15  O4  UNL     1      37.464  48.746   8.240  1.00  0.00    -0.266 OA
HETATM   16  N5  UNL     1      35.771  47.417   8.822  1.00  0.00    -0.303 N 
ATOM     17  H5  UNL     1      36.205  46.620   8.355  1.00  0.00     0.171 HD
ENDROOT
BRANCH   1  18
HETATM   18  C1  UNL     1      33.908  46.018   9.481  1.00  0.00     0.298 C 
HETATM   19  N1  UNL     1      32.507  45.920   9.705  1.00  0.00    -0.054 NA
HETATM   20  O1  UNL     1      34.543  44.967   9.308  1.00  0.00    -0.268 OA
ENDBRANCH   1  18
TORSDOF 1
ENDMDL
