MODEL 1
REMARK VINA RESULT: -7.107675487      0.000      0.000
REMARK  5 active torsions:
REMARK  status: ('A' for Active; 'I' for Inactive)
REMARK    1  A    between atoms: C2_3  and  C3_5 
REMARK       I    between atoms: C3_5  and  N2_7 
REMARK    2  A    between atoms: N2_7  and  N3_9 
REMARK    3  A    between atoms: C4_11  and  C5_12 
REMARK    4  A    between atoms: C4_11  and  C6_15 
REMARK    5  A    between atoms: C6_15  and  O5_18 
ROOT
HETATM    1  C1  UNL     1      35.258  44.950   8.732  1.00  0.00     0.264 C 
HETATM    2  N1  UNL     1      34.175  45.792   8.629  1.00  0.00    -0.412 NA
HETATM    3  C2  UNL     1      33.099  46.628   8.526  1.00  0.00     0.380 C 
HETATM    4  O1  UNL     1      31.939  46.345   8.178  1.00  0.00    -0.246 OA
ENDROOT
BRANCH   3   5
HETATM    5  C3  UNL     1      33.307  48.053   8.857  1.00  0.00     0.342 C 
HETATM    6  O2  UNL     1      32.890  48.920   8.076  1.00  0.00    -0.259 OA
HETATM    7  N2  UNL     1      33.976  48.376  10.050  1.00  0.00    -0.260 N 
ATOM      8  H2  UNL     1      34.290  47.592  10.624  1.00  0.00     0.190 HD
BRANCH   7   9
HETATM    9  N3  UNL     1      34.253  49.636  10.527  1.00  0.00    -0.293 N 
HETATM   10  C4  UNL     1      35.240  50.349  10.207  1.00  0.00     0.136 C 
ATOM     11  H3  UNL     1      33.598  50.030  11.202  1.00  0.00     0.187 HD
BRANCH  10  12
HETATM   12  C5  UNL     1      36.234  49.890   9.253  1.00  0.00     0.227 C 
HETATM   13  O3  UNL     1      36.697  50.704   8.382  1.00  0.00    -0.643 OA
HETATM   14  O4  UNL     1      36.705  48.590   9.249  1.00  0.00    -0.643 OA
ENDBRANCH  10  12
BRANCH  10  15
HETATM   15  C6  UNL     1      35.399  51.696  10.853  1.00  0.00     0.101 C 
HETATM   16  C7  UNL     1      34.896  51.674  12.266  1.00  0.00     0.052 C 
HETATM   17  C8  UNL     1      34.598  52.717  10.040  1.00  0.00     0.052 C 
BRANCH  15  18
HETATM   18  O5  UNL     1      36.721  52.043  10.814  1.00  0.00    -0.384 OA
ATOM     19  H5  UNL     1      36.795  52.972  10.997  1.00  0.00     0.211 HD
ENDBRANCH  15  18
ENDBRANCH  10  15
ENDBRANCH   7   9
ENDBRANCH   3   5
TORSDOF 4
ENDMDL
MODEL 2
REMARK VINA RESULT: -6.900295346      1.170      1.444
REMARK  5 active torsions:
REMARK  status: ('A' for Active; 'I' for Inactive)
REMARK    1  A    between atoms: C2_3  and  C3_5 
REMARK       I    between atoms: C3_5  and  N2_7 
REMARK    2  A    between atoms: N2_7  and  N3_9 
REMARK    3  A    between atoms: C4_11  and  C5_12 
REMARK    4  A    between atoms: C4_11  and  C6_15 
REMARK    5  A    between atoms: C6_15  and  O5_18 
ROOT
HETATM    1  C1  UNL     1      34.863  44.639   8.975  1.00  0.00     0.264 C 
HETATM    2  N1  UNL     1      34.406  45.811   8.419  1.00  0.00    -0.412 NA
HETATM    3  C2  UNL     1      33.953  46.976   7.868  1.00  0.00     0.380 C 
HETATM    4  O1  UNL     1      33.629  47.189   6.687  1.00  0.00    -0.246 OA
ENDROOT
BRANCH   3   5
HETATM    5  C3  UNL     1      33.825  48.149   8.758  1.00  0.00     0.342 C 
HETATM    6  O2  UNL     1      32.865  48.918   8.606  1.00  0.00    -0.259 OA
HETATM    7  N2  UNL     1      34.802  48.354   9.748  1.00  0.00    -0.260 N 
ATOM      8  H2  UNL     1      35.558  47.670   9.789  1.00  0.00     0.190 HD
BRANCH   7   9
HETATM    9  N3  UNL     1      34.846  49.376  10.666  1.00  0.00    -0.293 N 
HETATM   10  C4  UNL     1      35.245  50.550  10.448  1.00  0.00     0.136 C 
ATOM     11  H3  UNL     1      34.525  49.165  11.610  1.00  0.00     0.187 HD
BRANCH  10  12
HETATM   12  C5  UNL     1      35.721  50.963   9.140  1.00  0.00     0.227 C 
HETATM   13  O3  UNL     1      36.743  50.388   8.628  1.00  0.00    -0.643 OA
HETATM   14  O4  UNL     1      35.106  51.968   8.417  1.00  0.00    -0.643 OA
ENDBRANCH  10  12
BRANCH  10  15
HETATM   15  C6  UNL     1      35.250  51.534  11.583  1.00  0.00     0.101 C 
HETATM   16  C7  UNL     1      33.890  51.636  12.207  1.00  0.00     0.052 C 
HETATM   17  C8  UNL     1      35.665  52.902  11.033  1.00  0.00     0.052 C 
BRANCH  15  18
HETATM   18  O5  UNL     1      36.177  51.132  12.505  1.00  0.00    -0.384 OA
ATOM     19  H5  UNL     1      35.927  51.474  13.354  1.00  0.00     0.211 HD
ENDBRANCH  15  18
ENDBRANCH  10  15
ENDBRANCH   7   9
ENDBRANCH   3   5
TORSDOF 4
ENDMDL
MODEL 3
REMARK VINA RESULT: -6.715020678      1.975      5.320
REMARK  5 active torsions:
REMARK  status: ('A' for Active; 'I' for Inactive)
REMARK    1  A    between atoms: C2_3  and  C3_5 
REMARK       I    between atoms: C3_5  and  N2_7 
REMARK    2  A    between atoms: N2_7  and  N3_9 
REMARK    3  A    between atoms: C4_11  and  C5_12 
REMARK    4  A    between atoms: C4_11  and  C6_15 
REMARK    5  A    between atoms: C6_15  and  O5_18 
ROOT
HETATM    1  C1  UNL     1      36.929  52.928   9.776  1.00  0.00     0.264 C 
HETATM    2  N1  UNL     1      35.865  52.516  10.545  1.00  0.00    -0.412 NA
HETATM    3  C2  UNL     1      34.809  52.106  11.309  1.00  0.00     0.380 C 
HETATM    4  O1  UNL     1      34.325  52.664  12.310  1.00  0.00    -0.246 OA
ENDROOT
BRANCH   3   5
HETATM    5  C3  UNL     1      34.138  50.845  10.928  1.00  0.00     0.342 C 
HETATM    6  O2  UNL     1      33.271  50.375  11.678  1.00  0.00    -0.259 OA
HETATM    7  N2  UNL     1      34.513  50.220   9.726  1.00  0.00    -0.260 N 
ATOM      8  H2  UNL     1      35.243  50.679   9.182  1.00  0.00     0.190 HD
BRANCH   7   9
HETATM    9  N3  UNL     1      33.999  49.055   9.207  1.00  0.00    -0.293 N 
HETATM   10  C4  UNL     1      34.663  48.117   8.694  1.00  0.00     0.136 C 
ATOM     11  H3  UNL     1      32.986  48.940   9.240  1.00  0.00     0.187 HD
BRANCH  10  12
HETATM   12  C5  UNL     1      36.111  48.172   8.596  1.00  0.00     0.227 C 
HETATM   13  O3  UNL     1      36.694  47.686   7.566  1.00  0.00    -0.643 OA
HETATM   14  O4  UNL     1      36.893  48.737   9.586  1.00  0.00    -0.643 OA
ENDBRANCH  10  12
BRANCH  10  15
HETATM   15  C6  UNL     1      33.929  46.925   8.148  1.00  0.00     0.101 C 
HETATM   16  C7  UNL     1      32.494  46.934   8.588  1.00  0.00     0.052 C 
HETATM   17  C8  UNL     1      34.614  45.658   8.667  1.00  0.00     0.052 C 
BRANCH  15  18
HETATM   18  O5  UNL     1      34.018  46.946   6.784  1.00  0.00    -0.384 OA
ATOM     19  H5  UNL     1      33.507  46.225   6.436  1.00  0.00     0.211 HD
ENDBRANCH  15  18
ENDBRANCH  10  15
ENDBRANCH   7   9
ENDBRANCH   3   5
TORSDOF 4
ENDMDL
MODEL 4
REMARK VINA RESULT: -6.642234822      1.658      5.312
REMARK  5 active torsions:
REMARK  status: ('A' for Active; 'I' for Inactive)
REMARK    1  A    between atoms: C2_3  and  C3_5 
REMARK       I    between atoms: C3_5  and  N2_7 
REMARK    2  A    between atoms: N2_7  and  N3_9 
REMARK    3  A    between atoms: C4_11  and  C5_12 
REMARK    4  A    between atoms: C4_11  and  C6_15 
REMARK    5  A    between atoms: C6_15  and  O5_18 
ROOT
HETATM    1  C1  UNL     1      34.091  52.232  13.152  1.00  0.00     0.264 C 
HETATM    2  N1  UNL     1      34.592  52.275  11.872  1.00  0.00    -0.412 NA
HETATM    3  C2  UNL     1      35.089  52.318  10.601  1.00  0.00     0.380 C 
HETATM    4  O1  UNL     1      35.844  53.171  10.101  1.00  0.00    -0.246 OA
ENDROOT
BRANCH   3   5
HETATM    5  C3  UNL     1      34.698  51.233   9.676  1.00  0.00     0.342 C 
HETATM    6  O2  UNL     1      34.733  51.440   8.455  1.00  0.00    -0.259 OA
HETATM    7  N2  UNL     1      34.295  50.000  10.218  1.00  0.00    -0.260 N 
ATOM      8  H2  UNL     1      34.292  49.928  11.236  1.00  0.00     0.190 HD
BRANCH   7   9
HETATM    9  N3  UNL     1      33.906  48.879   9.521  1.00  0.00    -0.293 N 
HETATM   10  C4  UNL     1      34.668  48.085   8.911  1.00  0.00     0.136 C 
ATOM     11  H3  UNL     1      32.908  48.673   9.497  1.00  0.00     0.187 HD
BRANCH  10  12
HETATM   12  C5  UNL     1      36.107  48.281   8.881  1.00  0.00     0.227 C 
HETATM   13  O3  UNL     1      36.763  47.982   7.825  1.00  0.00    -0.643 OA
HETATM   14  O4  UNL     1      36.803  48.782   9.965  1.00  0.00    -0.643 OA
ENDBRANCH  10  12
BRANCH  10  15
HETATM   15  C6  UNL     1      34.063  46.923   8.176  1.00  0.00     0.101 C 
HETATM   16  C7  UNL     1      32.580  46.866   8.395  1.00  0.00     0.052 C 
HETATM   17  C8  UNL     1      34.706  45.635   8.697  1.00  0.00     0.052 C 
BRANCH  15  18
HETATM   18  O5  UNL     1      34.351  47.051   6.845  1.00  0.00    -0.384 OA
ATOM     19  H5  UNL     1      34.205  47.954   6.590  1.00  0.00     0.211 HD
ENDBRANCH  15  18
ENDBRANCH  10  15
ENDBRANCH   7   9
ENDBRANCH   3   5
TORSDOF 4
ENDMDL
MODEL 5
REMARK VINA RESULT: -6.623045789      2.002      5.299
REMARK  5 active torsions:
REMARK  status: ('A' for Active; 'I' for Inactive)
REMARK    1  A    between atoms: C2_3  and  C3_5 
REMARK       I    between atoms: C3_5  and  N2_7 
REMARK    2  A    between atoms: N2_7  and  N3_9 
REMARK    3  A    between atoms: C4_11  and  C5_12 
REMARK    4  A    between atoms: C4_11  and  C6_15 
REMARK    5  A    between atoms: C6_15  and  O5_18 
ROOT
HETATM    1  C1  UNL     1      37.408  52.931   9.772  1.00  0.00     0.264 C 
HETATM    2  N1  UNL     1      36.251  52.518  10.391  1.00  0.00    -0.412 NA
HETATM    3  C2  UNL     1      35.103  52.106  11.005  1.00  0.00     0.380 C 
HETATM    4  O1  UNL     1      34.550  52.598  12.005  1.00  0.00    -0.246 OA
ENDROOT
BRANCH   3   5
HETATM    5  C3  UNL     1      34.408  50.930  10.440  1.00  0.00     0.342 C 
HETATM    6  O2  UNL     1      33.334  51.095   9.844  1.00  0.00    -0.259 OA
HETATM    7  N2  UNL     1      34.991  49.662  10.602  1.00  0.00    -0.260 N 
ATOM      8  H2  UNL     1      35.873  49.628  11.115  1.00  0.00     0.190 HD
BRANCH   7   9
HETATM    9  N3  UNL     1      34.500  48.462  10.142  1.00  0.00    -0.293 N 
HETATM   10  C4  UNL     1      35.012  47.750   9.240  1.00  0.00     0.136 C 
ATOM     11  H3  UNL     1      33.642  48.118  10.572  1.00  0.00     0.187 HD
BRANCH  10  12
HETATM   12  C5  UNL     1      36.235  48.141   8.561  1.00  0.00     0.227 C 
HETATM   13  O3  UNL     1      37.075  47.244   8.205  1.00  0.00    -0.643 OA
HETATM   14  O4  UNL     1      36.530  49.463   8.282  1.00  0.00    -0.643 OA
ENDBRANCH  10  12
BRANCH  10  15
HETATM   15  C6  UNL     1      34.320  46.477   8.844  1.00  0.00     0.101 C 
HETATM   16  C7  UNL     1      33.201  46.753   7.884  1.00  0.00     0.052 C 
HETATM   17  C8  UNL     1      33.759  45.820  10.108  1.00  0.00     0.052 C 
BRANCH  15  18
HETATM   18  O5  UNL     1      35.242  45.636   8.284  1.00  0.00    -0.384 OA
ATOM     19  H5  UNL     1      35.092  44.759   8.615  1.00  0.00     0.211 HD
ENDBRANCH  15  18
ENDBRANCH  10  15
ENDBRANCH   7   9
ENDBRANCH   3   5
TORSDOF 4
ENDMDL
