MODEL 1
REMARK VINA RESULT: -6.778034757      0.000      0.000
REMARK  5 active torsions:
REMARK  status: ('A' for Active; 'I' for Inactive)
REMARK    1  A    between atoms: C2_2  and  N1_3 
REMARK    2  A    between atoms: N1_3  and  C3_5 
REMARK    3  A    between atoms: C6_12  and  N4_13 
REMARK       I    between atoms: N4_13  and  C7_15 
REMARK    4  A    between atoms: C7_15  and  C8_17 
REMARK    5  A    between atoms: C8_17  and  N5_19 
ROOT
HETATM    1  C3  UNL     1      35.692  50.474   9.366  1.00  0.00     0.694 A 
HETATM    2  N2  UNL     1      35.237  51.110  10.460  1.00  0.00    -0.180 N 
ATOM      3  H2  UNL     1      35.757  51.911  10.818  1.00  0.00     0.185 HD
HETATM    4  C4  UNL     1      34.112  50.721  11.099  1.00  0.00     0.109 A 
HETATM    5  C5  UNL     1      33.588  51.408  12.309  1.00  0.00     0.090 C 
HETATM    6  N3  UNL     1      33.440  49.662  10.613  1.00  0.00    -0.180 N 
ATOM      7  H3  UNL     1      32.590  49.355  11.085  1.00  0.00     0.185 HD
HETATM    8  C6  UNL     1      33.857  48.995   9.522  1.00  0.00     0.700 A 
HETATM    9  N6  UNL     1      34.997  49.419   8.905  1.00  0.00    -0.022 N 
ATOM     10  H6  UNL     1      35.329  48.926   8.076  1.00  0.00     0.203 HD
ENDROOT
BRANCH   8  11
HETATM   11  N4  UNL     1      33.213  47.981   9.057  1.00  0.00    -0.157 N 
HETATM   12  C7  UNL     1      33.916  47.079   8.226  1.00  0.00     0.266 C 
HETATM   13  O1  UNL     1      33.945  47.255   6.995  1.00  0.00    -0.270 OA
ATOM     14  H4  UNL     1      32.229  47.834   9.281  1.00  0.00     0.187 HD
BRANCH  12  15
HETATM   15  C8  UNL     1      34.610  45.932   8.837  1.00  0.00     0.271 C 
HETATM   16  C9  UNL     1      34.032  45.762  10.247  1.00  0.00     0.050 C 
BRANCH  15  17
HETATM   17  N5  UNL     1      34.443  44.711   8.108  1.00  0.00    -0.067 N 
ATOM     18  H53 UNL     1      33.536  44.290   8.312  1.00  0.00     0.275 HD
ATOM     19  H52 UNL     1      34.323  44.898   7.113  1.00  0.00     0.275 HD
ATOM     20  H51 UNL     1      35.196  44.039   8.262  1.00  0.00     0.275 HD
ENDBRANCH  15  17
ENDBRANCH  12  15
ENDBRANCH   8  11
BRANCH   1  21
HETATM   21  N1  UNL     1      36.769  50.880   8.789  1.00  0.00    -0.226 N 
ATOM     22  H1  UNL     1      37.480  50.184   8.567  1.00  0.00     0.177 HD
BRANCH  21  23
HETATM   23  C2  UNL     1      37.039  52.239   8.437  1.00  0.00     0.133 C 
HETATM   24  C1  UNL     1      37.867  52.859   9.550  1.00  0.00     0.027 C 
ENDBRANCH  21  23
ENDBRANCH   1  21
TORSDOF 5
ENDMDL
MODEL 2
REMARK VINA RESULT: -6.417152502      1.075      2.746
REMARK  5 active torsions:
REMARK  status: ('A' for Active; 'I' for Inactive)
REMARK    1  A    between atoms: C2_2  and  N1_3 
REMARK    2  A    between atoms: N1_3  and  C3_5 
REMARK    3  A    between atoms: C6_12  and  N4_13 
REMARK       I    between atoms: N4_13  and  C7_15 
REMARK    4  A    between atoms: C7_15  and  C8_17 
REMARK    5  A    between atoms: C8_17  and  N5_19 
ROOT
HETATM    1  C3  UNL     1      33.960  51.197  10.111  1.00  0.00     0.694 A 
HETATM    2  N2  UNL     1      35.243  51.291   9.719  1.00  0.00    -0.180 N 
ATOM      3  H2  UNL     1      35.774  52.126   9.964  1.00  0.00     0.185 HD
HETATM    4  C4  UNL     1      35.849  50.314   9.010  1.00  0.00     0.109 A 
HETATM    5  C5  UNL     1      37.266  50.394   8.566  1.00  0.00     0.090 C 
HETATM    6  N3  UNL     1      35.132  49.220   8.696  1.00  0.00    -0.180 N 
ATOM      7  H3  UNL     1      35.576  48.474   8.160  1.00  0.00     0.185 HD
HETATM    8  C6  UNL     1      33.847  49.082   9.066  1.00  0.00     0.700 A 
HETATM    9  N6  UNL     1      33.270  50.091   9.780  1.00  0.00    -0.022 N 
ATOM     10  H6  UNL     1      32.296  50.004  10.070  1.00  0.00     0.203 HD
ENDROOT
BRANCH   8  11
HETATM   11  N4  UNL     1      33.160  48.034   8.764  1.00  0.00    -0.157 N 
HETATM   12  C7  UNL     1      33.817  46.995   8.068  1.00  0.00     0.266 C 
HETATM   13  O1  UNL     1      33.830  46.986   6.823  1.00  0.00    -0.270 OA
ATOM     14  H4  UNL     1      32.176  47.958   9.020  1.00  0.00     0.187 HD
BRANCH  12  15
HETATM   15  C8  UNL     1      34.483  45.926   8.833  1.00  0.00     0.271 C 
HETATM   16  C9  UNL     1      33.803  45.873  10.206  1.00  0.00     0.050 C 
BRANCH  15  17
HETATM   17  N5  UNL     1      34.393  44.639   8.211  1.00  0.00    -0.067 N 
ATOM     18  H53 UNL     1      34.311  44.732   7.199  1.00  0.00     0.275 HD
ATOM     19  H52 UNL     1      35.286  44.150   8.266  1.00  0.00     0.275 HD
ATOM     20  H51 UNL     1      33.639  44.060   8.584  1.00  0.00     0.275 HD
ENDBRANCH  15  17
ENDBRANCH  12  15
ENDBRANCH   8  11
BRANCH   1  21
HETATM   21  N1  UNL     1      33.423  52.154  10.785  1.00  0.00    -0.226 N 
ATOM     22  H1  UNL     1      33.095  52.971  10.270  1.00  0.00     0.177 HD
BRANCH  21  23
HETATM   23  C2  UNL     1      33.253  52.152  12.204  1.00  0.00     0.133 C 
HETATM   24  C1  UNL     1      34.564  51.714  12.835  1.00  0.00     0.027 C 
ENDBRANCH  21  23
ENDBRANCH   1  21
TORSDOF 5
ENDMDL
MODEL 3
REMARK VINA RESULT: -6.140117009      1.579      3.232
REMARK  5 active torsions:
REMARK  status: ('A' for Active; 'I' for Inactive)
REMARK    1  A    between atoms: C2_2  and  N1_3 
REMARK    2  A    between atoms: N1_3  and  C3_5 
REMARK    3  A    between atoms: C6_12  and  N4_13 
REMARK       I    between atoms: N4_13  and  C7_15 
REMARK    4  A    between atoms: C7_15  and  C8_17 
REMARK    5  A    between atoms: C8_17  and  N5_19 
ROOT
HETATM    1  C3  UNL     1      34.205  50.733  10.252  1.00  0.00     0.694 A 
HETATM    2  N2  UNL     1      35.101  51.567   9.696  1.00  0.00    -0.180 N 
ATOM      3  H2  UNL     1      34.959  52.573   9.783  1.00  0.00     0.185 HD
HETATM    4  C4  UNL     1      36.183  51.114   9.024  1.00  0.00     0.109 A 
HETATM    5  C5  UNL     1      37.187  52.016   8.402  1.00  0.00     0.090 C 
HETATM    6  N3  UNL     1      36.352  49.783   8.919  1.00  0.00    -0.180 N 
ATOM      7  H3  UNL     1      37.163  49.426   8.414  1.00  0.00     0.185 HD
HETATM    8  C6  UNL     1      35.482  48.911   9.459  1.00  0.00     0.700 A 
HETATM    9  N6  UNL     1      34.403  49.408  10.129  1.00  0.00    -0.022 N 
ATOM     10  H6  UNL     1      33.733  48.762  10.545  1.00  0.00     0.203 HD
ENDROOT
BRANCH   8  11
HETATM   11  N4  UNL     1      35.645  47.637   9.358  1.00  0.00    -0.157 N 
HETATM   12  C7  UNL     1      34.497  46.817   9.443  1.00  0.00     0.266 C 
HETATM   13  O1  UNL     1      34.117  46.386  10.547  1.00  0.00    -0.270 OA
ATOM     14  H4  UNL     1      36.572  47.234   9.220  1.00  0.00     0.187 HD
BRANCH  12  15
HETATM   15  C8  UNL     1      33.761  46.482   8.212  1.00  0.00     0.271 C 
HETATM   16  C9  UNL     1      32.388  47.156   8.318  1.00  0.00     0.050 C 
BRANCH  15  17
HETATM   17  N5  UNL     1      34.414  46.926   7.018  1.00  0.00    -0.067 N 
ATOM     18  H53 UNL     1      34.001  47.796   6.683  1.00  0.00     0.275 HD
ATOM     19  H52 UNL     1      35.358  47.254   7.223  1.00  0.00     0.275 HD
ATOM     20  H51 UNL     1      34.428  46.224   6.278  1.00  0.00     0.275 HD
ENDBRANCH  15  17
ENDBRANCH  12  15
ENDBRANCH   8  11
BRANCH   1  21
HETATM   21  N1  UNL     1      33.189  51.210  10.883  1.00  0.00    -0.226 N 
ATOM     22  H1  UNL     1      32.403  51.549  10.328  1.00  0.00     0.177 HD
BRANCH  21  23
HETATM   23  C2  UNL     1      33.084  51.298  12.305  1.00  0.00     0.133 C 
HETATM   24  C1  UNL     1      34.336  51.979  12.829  1.00  0.00     0.027 C 
ENDBRANCH  21  23
ENDBRANCH   1  21
TORSDOF 5
ENDMDL
MODEL 4
REMARK VINA RESULT: -6.034052480      1.285      1.316
REMARK  5 active torsions:
REMARK  status: ('A' for Active; 'I' for Inactive)
REMARK    1  A    between atoms: C2_2  and  N1_3 
REMARK    2  A    between atoms: N1_3  and  C3_5 
REMARK    3  A    between atoms: C6_12  and  N4_13 
REMARK       I    between atoms: N4_13  and  C7_15 
REMARK    4  A    between atoms: C7_15  and  C8_17 
REMARK    5  A    between atoms: C8_17  and  N5_19 
ROOT
HETATM    1  C3  UNL     1      35.027  51.603   9.537  1.00  0.00     0.694 A 
HETATM    2  N2  UNL     1      34.726  52.077  10.759  1.00  0.00    -0.180 N 
ATOM      3  H2  UNL     1      35.059  53.004  11.025  1.00  0.00     0.185 HD
HETATM    4  C4  UNL     1      33.996  51.365  11.645  1.00  0.00     0.109 A 
HETATM    5  C5  UNL     1      33.649  51.868  13.000  1.00  0.00     0.090 C 
HETATM    6  N3  UNL     1      33.566  50.145  11.276  1.00  0.00    -0.180 N 
ATOM      7  H3  UNL     1      33.014  49.594  11.934  1.00  0.00     0.185 HD
HETATM    8  C6  UNL     1      33.842  49.629  10.065  1.00  0.00     0.700 A 
HETATM    9  N6  UNL     1      34.582  50.380   9.199  1.00  0.00    -0.022 N 
ATOM     10  H6  UNL     1      34.801  50.005   8.276  1.00  0.00     0.203 HD
ENDROOT
BRANCH   8  11
HETATM   11  N4  UNL     1      33.430  48.461   9.713  1.00  0.00    -0.157 N 
HETATM   12  C7  UNL     1      34.087  47.828   8.634  1.00  0.00     0.266 C 
HETATM   13  O1  UNL     1      33.686  47.999   7.468  1.00  0.00    -0.270 OA
ATOM     14  H4  UNL     1      32.654  48.008  10.196  1.00  0.00     0.187 HD
BRANCH  12  15
HETATM   15  C8  UNL     1      35.249  46.965   8.908  1.00  0.00     0.271 C 
HETATM   16  C9  UNL     1      34.812  45.524   8.617  1.00  0.00     0.050 C 
BRANCH  15  17
HETATM   17  N5  UNL     1      36.395  47.281   8.110  1.00  0.00    -0.067 N 
ATOM     18  H53 UNL     1      36.133  47.392   7.130  1.00  0.00     0.275 HD
ATOM     19  H52 UNL     1      36.723  48.226   8.307  1.00  0.00     0.275 HD
ATOM     20  H51 UNL     1      37.156  46.607   8.206  1.00  0.00     0.275 HD
ENDBRANCH  15  17
ENDBRANCH  12  15
ENDBRANCH   8  11
BRANCH   1  21
HETATM   21  N1  UNL     1      35.726  52.317   8.725  1.00  0.00    -0.226 N 
ATOM     22  H1  UNL     1      35.255  53.080   8.238  1.00  0.00     0.177 HD
BRANCH  21  23
HETATM   23  C2  UNL     1      37.116  52.117   8.458  1.00  0.00     0.133 C 
HETATM   24  C1  UNL     1      37.911  52.843   9.529  1.00  0.00     0.027 C 
ENDBRANCH  21  23
ENDBRANCH   1  21
TORSDOF 5
ENDMDL
MODEL 5
REMARK VINA RESULT: -5.994167413      1.675      2.800
REMARK  5 active torsions:
REMARK  status: ('A' for Active; 'I' for Inactive)
REMARK    1  A    between atoms: C2_2  and  N1_3 
REMARK    2  A    between atoms: N1_3  and  C3_5 
REMARK    3  A    between atoms: C6_12  and  N4_13 
REMARK       I    between atoms: N4_13  and  C7_15 
REMARK    4  A    between atoms: C7_15  and  C8_17 
REMARK    5  A    between atoms: C8_17  and  N5_19 
ROOT
HETATM    1  C3  UNL     1      34.627  50.956   9.826  1.00  0.00     0.694 A 
HETATM    2  N2  UNL     1      35.901  50.583   9.612  1.00  0.00    -0.180 N 
ATOM      3  H2  UNL     1      36.652  51.228   9.858  1.00  0.00     0.185 HD
HETATM    4  C4  UNL     1      36.216  49.381   9.082  1.00  0.00     0.109 A 
HETATM    5  C5  UNL     1      37.617  48.945   8.837  1.00  0.00     0.090 C 
HETATM    6  N3  UNL     1      35.212  48.545   8.764  1.00  0.00    -0.180 N 
ATOM      7  H3  UNL     1      35.434  47.634   8.362  1.00  0.00     0.185 HD
HETATM    8  C6  UNL     1      33.923  48.875   8.960  1.00  0.00     0.700 A 
HETATM    9  N6  UNL     1      33.646  50.097   9.498  1.00  0.00    -0.022 N 
ATOM     10  H6  UNL     1      32.674  50.365   9.654  1.00  0.00     0.203 HD
ENDROOT
BRANCH   8  11
HETATM   11  N4  UNL     1      32.961  48.073   8.655  1.00  0.00    -0.157 N 
HETATM   12  C7  UNL     1      33.302  46.800   8.146  1.00  0.00     0.266 C 
HETATM   13  O1  UNL     1      33.440  46.632   6.921  1.00  0.00    -0.270 OA
ATOM     14  H4  UNL     1      31.987  48.349   8.778  1.00  0.00     0.187 HD
BRANCH  12  15
HETATM   15  C8  UNL     1      33.490  45.679   9.083  1.00  0.00     0.271 C 
HETATM   16  C9  UNL     1      34.755  44.935   8.638  1.00  0.00     0.050 C 
BRANCH  15  17
HETATM   17  N5  UNL     1      33.641  46.093  10.445  1.00  0.00    -0.067 N 
ATOM     18  H53 UNL     1      33.374  47.071  10.557  1.00  0.00     0.275 HD
ATOM     19  H52 UNL     1      32.934  45.655  11.036  1.00  0.00     0.275 HD
ATOM     20  H51 UNL     1      34.577  45.929  10.819  1.00  0.00     0.275 HD
ENDBRANCH  15  17
ENDBRANCH  12  15
ENDBRANCH   8  11
BRANCH   1  21
HETATM   21  N1  UNL     1      34.373  52.112  10.334  1.00  0.00    -0.226 N 
ATOM     22  H1  UNL     1      33.902  52.797   9.743  1.00  0.00     0.177 HD
BRANCH  21  23
HETATM   23  C2  UNL     1      34.705  52.504  11.668  1.00  0.00     0.133 C 
HETATM   24  C1  UNL     1      33.871  51.672  12.625  1.00  0.00     0.027 C 
ENDBRANCH  21  23
ENDBRANCH   1  21
TORSDOF 5
ENDMDL
