MODEL 1
REMARK VINA RESULT: -7.469174330      0.000      0.000
REMARK  4 active torsions:
REMARK  status: ('A' for Active; 'I' for Inactive)
REMARK    1  A    between atoms: C3_5  and  S1_6 
REMARK    2  A    between atoms: S1_6  and  N2_7 
REMARK    3  A    between atoms: C4_14  and  C5_15 
REMARK       I    between atoms: C5_15  and  N4_17 
REMARK    4  A    between atoms: N4_17  and  N5_19 
ROOT
HETATM    1  C1  UNL     1      37.154  47.989   8.323  1.00  0.00     0.071 C 
HETATM    2  C2  UNL     1      35.997  48.541   9.044  1.00  0.00     0.040 A 
HETATM    3  N1  UNL     1      36.040  49.703   9.754  1.00  0.00    -0.333 N 
ATOM      4  H1  UNL     1      36.844  50.319   9.875  1.00  0.00     0.168 HD
HETATM    5  C3  UNL     1      34.808  49.873  10.261  1.00  0.00     0.224 A 
HETATM    6  N3  UNL     1      34.027  48.845   9.875  1.00  0.00    -0.325 N 
ATOM      7  H3  UNL     1      33.044  48.725  10.121  1.00  0.00     0.168 HD
HETATM    8  C4  UNL     1      34.748  48.002   9.115  1.00  0.00     0.127 A 
ENDROOT
BRANCH   8   9
HETATM    9  C5  UNL     1      34.253  46.771   8.510  1.00  0.00     0.288 C 
HETATM   10  O3  UNL     1      33.163  46.718   7.886  1.00  0.00    -0.264 OA
HETATM   11  N4  UNL     1      35.005  45.571   8.613  1.00  0.00    -0.271 N 
ATOM     12  H4  UNL     1      35.893  45.586   9.114  1.00  0.00     0.189 HD
BRANCH  11  13
HETATM   13  N5  UNL     1      34.565  44.372   8.049  1.00  0.00    -0.342 N 
ATOM     14  H52 UNL     1      33.630  44.349   7.642  1.00  0.00     0.176 HD
ATOM     15  H51 UNL     1      35.149  43.535   8.036  1.00  0.00     0.176 HD
ENDBRANCH  11  13
ENDBRANCH   8   9
BRANCH   5  16
HETATM   16  S1  UNL     1      34.315  51.218  11.260  1.00  0.00     0.288 S 
HETATM   17  O1  UNL     1      33.910  52.392  10.391  1.00  0.00    -0.198 OA
HETATM   18  O2  UNL     1      33.128  50.830  12.091  1.00  0.00    -0.198 OA
BRANCH  16  19
HETATM   19  N2  UNL     1      35.563  51.711  12.338  1.00  0.00    -0.322 N 
ATOM     20  H22 UNL     1      36.346  51.111  12.597  1.00  0.00     0.169 HD
ATOM     21  H21 UNL     1      35.421  52.662  12.676  1.00  0.00     0.169 HD
ENDBRANCH  16  19
ENDBRANCH   5  16
TORSDOF 4
ENDMDL
MODEL 2
REMARK VINA RESULT: -7.437804086      1.091      1.369
REMARK  4 active torsions:
REMARK  status: ('A' for Active; 'I' for Inactive)
REMARK    1  A    between atoms: C3_5  and  S1_6 
REMARK    2  A    between atoms: S1_6  and  N2_7 
REMARK    3  A    between atoms: C4_14  and  C5_15 
REMARK       I    between atoms: C5_15  and  N4_17 
REMARK    4  A    between atoms: N4_17  and  N5_19 
ROOT
HETATM    1  C1  UNL     1      37.062  47.938   8.221  1.00  0.00     0.071 C 
HETATM    2  C2  UNL     1      36.044  48.571   9.073  1.00  0.00     0.040 A 
HETATM    3  N1  UNL     1      36.221  49.774   9.687  1.00  0.00    -0.333 N 
ATOM      4  H1  UNL     1      37.047  50.371   9.640  1.00  0.00     0.168 HD
HETATM    5  C3  UNL     1      35.087  50.015  10.365  1.00  0.00     0.224 A 
HETATM    6  N3  UNL     1      34.234  48.988  10.175  1.00  0.00    -0.325 N 
ATOM      7  H3  UNL     1      33.299  48.915  10.577  1.00  0.00     0.168 HD
HETATM    8  C4  UNL     1      34.811  48.077   9.372  1.00  0.00     0.127 A 
ENDROOT
BRANCH   8   9
HETATM    9  C5  UNL     1      34.202  46.825   8.936  1.00  0.00     0.288 C 
HETATM   10  O3  UNL     1      32.956  46.672   8.863  1.00  0.00    -0.264 OA
HETATM   11  N4  UNL     1      35.017  45.721   8.575  1.00  0.00    -0.271 N 
ATOM     12  H4  UNL     1      36.031  45.818   8.625  1.00  0.00     0.189 HD
BRANCH  11  13
HETATM   13  N5  UNL     1      34.473  44.506   8.154  1.00  0.00    -0.342 N 
ATOM     14  H52 UNL     1      33.797  44.047   8.764  1.00  0.00     0.176 HD
ATOM     15  H51 UNL     1      34.733  44.077   7.266  1.00  0.00     0.176 HD
ENDBRANCH  11  13
ENDBRANCH   8   9
BRANCH   5  16
HETATM   16  S1  UNL     1      34.785  51.435  11.334  1.00  0.00     0.288 S 
HETATM   17  O1  UNL     1      35.709  51.455  12.534  1.00  0.00    -0.198 OA
HETATM   18  O2  UNL     1      35.053  52.672  10.526  1.00  0.00    -0.198 OA
BRANCH  16  19
HETATM   19  N2  UNL     1      33.152  51.513  11.871  1.00  0.00    -0.322 N 
ATOM     20  H22 UNL     1      32.730  50.811  12.479  1.00  0.00     0.169 HD
ATOM     21  H21 UNL     1      32.670  52.336  11.510  1.00  0.00     0.169 HD
ENDBRANCH  16  19
ENDBRANCH   5  16
TORSDOF 4
ENDMDL
MODEL 3
REMARK VINA RESULT: -7.325840617      1.734      2.155
REMARK  4 active torsions:
REMARK  status: ('A' for Active; 'I' for Inactive)
REMARK    1  A    between atoms: C3_5  and  S1_6 
REMARK    2  A    between atoms: S1_6  and  N2_7 
REMARK    3  A    between atoms: C4_14  and  C5_15 
REMARK       I    between atoms: C5_15  and  N4_17 
REMARK    4  A    between atoms: N4_17  and  N5_19 
ROOT
HETATM    1  C1  UNL     1      32.482  48.642   7.922  1.00  0.00     0.071 C 
HETATM    2  C2  UNL     1      33.462  49.001   8.959  1.00  0.00     0.040 A 
HETATM    3  N1  UNL     1      33.703  50.282   9.354  1.00  0.00    -0.333 N 
ATOM      4  H1  UNL     1      33.256  51.127   8.999  1.00  0.00     0.168 HD
HETATM    5  C3  UNL     1      34.648  50.206  10.305  1.00  0.00     0.224 A 
HETATM    6  N3  UNL     1      34.981  48.913  10.492  1.00  0.00    -0.325 N 
ATOM      7  H3  UNL     1      35.675  48.572  11.158  1.00  0.00     0.168 HD
HETATM    8  C4  UNL     1      34.253  48.144   9.663  1.00  0.00     0.127 A 
ENDROOT
BRANCH   8   9
HETATM    9  C5  UNL     1      34.329  46.690   9.570  1.00  0.00     0.288 C 
HETATM   10  O3  UNL     1      33.985  45.937  10.515  1.00  0.00    -0.264 OA
HETATM   11  N4  UNL     1      34.805  46.074   8.383  1.00  0.00    -0.271 N 
ATOM     12  H4  UNL     1      35.091  46.663   7.601  1.00  0.00     0.189 HD
BRANCH  11  13
HETATM   13  N5  UNL     1      34.894  44.687   8.254  1.00  0.00    -0.342 N 
ATOM     14  H52 UNL     1      34.047  44.138   8.401  1.00  0.00     0.176 HD
ATOM     15  H51 UNL     1      35.771  44.221   8.021  1.00  0.00     0.176 HD
ENDBRANCH  11  13
ENDBRANCH   8   9
BRANCH   5  16
HETATM   16  S1  UNL     1      35.325  51.574  11.153  1.00  0.00     0.288 S 
HETATM   17  O1  UNL     1      34.216  52.467  11.672  1.00  0.00    -0.198 OA
HETATM   18  O2  UNL     1      36.124  51.100  12.332  1.00  0.00    -0.198 OA
BRANCH  16  19
HETATM   19  N2  UNL     1      36.378  52.495  10.151  1.00  0.00    -0.322 N 
ATOM     20  H22 UNL     1      36.406  52.402   9.136  1.00  0.00     0.169 HD
ATOM     21  H21 UNL     1      36.958  53.135  10.693  1.00  0.00     0.169 HD
ENDBRANCH  16  19
ENDBRANCH   5  16
TORSDOF 4
ENDMDL
MODEL 4
REMARK VINA RESULT: -7.270742383      1.622      2.158
REMARK  4 active torsions:
REMARK  status: ('A' for Active; 'I' for Inactive)
REMARK    1  A    between atoms: C3_5  and  S1_6 
REMARK    2  A    between atoms: S1_6  and  N2_7 
REMARK    3  A    between atoms: C4_14  and  C5_15 
REMARK       I    between atoms: C5_15  and  N4_17 
REMARK    4  A    between atoms: N4_17  and  N5_19 
ROOT
HETATM    1  C1  UNL     1      32.419  48.549   7.984  1.00  0.00     0.071 C 
HETATM    2  C2  UNL     1      33.495  48.923   8.915  1.00  0.00     0.040 A 
HETATM    3  N1  UNL     1      33.787  50.212   9.246  1.00  0.00    -0.333 N 
ATOM      4  H1  UNL     1      33.321  51.053   8.907  1.00  0.00     0.168 HD
HETATM    5  C3  UNL     1      34.815  50.149  10.108  1.00  0.00     0.224 A 
HETATM    6  N3  UNL     1      35.148  48.858  10.305  1.00  0.00    -0.325 N 
ATOM      7  H3  UNL     1      35.896  48.526  10.914  1.00  0.00     0.168 HD
HETATM    8  C4  UNL     1      34.337  48.076   9.570  1.00  0.00     0.127 A 
ENDROOT
BRANCH   8   9
HETATM    9  C5  UNL     1      34.385  46.619   9.515  1.00  0.00     0.288 C 
HETATM   10  O3  UNL     1      34.044  45.897  10.486  1.00  0.00    -0.264 OA
HETATM   11  N4  UNL     1      34.831  45.962   8.338  1.00  0.00    -0.271 N 
ATOM     12  H4  UNL     1      35.114  46.524   7.536  1.00  0.00     0.189 HD
BRANCH  11  13
HETATM   13  N5  UNL     1      34.893  44.570   8.246  1.00  0.00    -0.342 N 
ATOM     14  H52 UNL     1      34.220  44.100   7.640  1.00  0.00     0.176 HD
ATOM     15  H51 UNL     1      35.583  44.025   8.762  1.00  0.00     0.176 HD
ENDBRANCH  11  13
ENDBRANCH   8   9
BRANCH   5  16
HETATM   16  S1  UNL     1      35.585  51.531  10.847  1.00  0.00     0.288 S 
HETATM   17  O1  UNL     1      36.838  51.902  10.081  1.00  0.00    -0.198 OA
HETATM   18  O2  UNL     1      34.658  52.712  10.813  1.00  0.00    -0.198 OA
BRANCH  16  19
HETATM   19  N2  UNL     1      35.989  51.239  12.494  1.00  0.00    -0.322 N 
ATOM     20  H22 UNL     1      36.845  50.765  12.783  1.00  0.00     0.169 HD
ATOM     21  H21 UNL     1      35.277  51.594  13.131  1.00  0.00     0.169 HD
ENDBRANCH  16  19
ENDBRANCH   5  16
TORSDOF 4
ENDMDL
MODEL 5
REMARK VINA RESULT: -7.186512231      1.014      1.241
REMARK  4 active torsions:
REMARK  status: ('A' for Active; 'I' for Inactive)
REMARK    1  A    between atoms: C3_5  and  S1_6 
REMARK    2  A    between atoms: S1_6  and  N2_7 
REMARK    3  A    between atoms: C4_14  and  C5_15 
REMARK       I    between atoms: C5_15  and  N4_17 
REMARK    4  A    between atoms: N4_17  and  N5_19 
ROOT
HETATM    1  C1  UNL     1      37.178  47.998   8.372  1.00  0.00     0.071 C 
HETATM    2  C2  UNL     1      35.978  48.498   9.061  1.00  0.00     0.040 A 
HETATM    3  N1  UNL     1      35.960  49.637   9.807  1.00  0.00    -0.333 N 
ATOM      4  H1  UNL     1      36.742  50.269   9.981  1.00  0.00     0.168 HD
HETATM    5  C3  UNL     1      34.704  49.760  10.266  1.00  0.00     0.224 A 
HETATM    6  N3  UNL     1      33.968  48.725   9.816  1.00  0.00    -0.325 N 
ATOM      7  H3  UNL     1      32.979  48.573  10.016  1.00  0.00     0.168 HD
HETATM    8  C4  UNL     1      34.742  47.926   9.062  1.00  0.00     0.127 A 
ENDROOT
BRANCH   8   9
HETATM    9  C5  UNL     1      34.306  46.702   8.399  1.00  0.00     0.288 C 
HETATM   10  O3  UNL     1      33.320  46.674   7.619  1.00  0.00    -0.264 OA
HETATM   11  N4  UNL     1      34.996  45.482   8.623  1.00  0.00    -0.271 N 
ATOM     12  H4  UNL     1      35.799  45.477   9.251  1.00  0.00     0.189 HD
BRANCH  11  13
HETATM   13  N5  UNL     1      34.609  44.290   8.008  1.00  0.00    -0.342 N 
ATOM     14  H52 UNL     1      33.669  43.939   8.193  1.00  0.00     0.176 HD
ATOM     15  H51 UNL     1      35.234  43.773   7.390  1.00  0.00     0.176 HD
ENDBRANCH  11  13
ENDBRANCH   8   9
BRANCH   5  16
HETATM   16  S1  UNL     1      34.135  51.060  11.284  1.00  0.00     0.288 S 
HETATM   17  O1  UNL     1      33.075  50.549  12.238  1.00  0.00    -0.198 OA
HETATM   18  O2  UNL     1      35.270  51.601  12.105  1.00  0.00    -0.198 OA
BRANCH  16  19
HETATM   19  N2  UNL     1      33.494  52.365  10.364  1.00  0.00    -0.322 N 
ATOM     20  H22 UNL     1      32.818  52.238   9.611  1.00  0.00     0.169 HD
ATOM     21  H21 UNL     1      33.870  53.264  10.664  1.00  0.00     0.169 HD
ENDBRANCH  16  19
ENDBRANCH   5  16
TORSDOF 4
ENDMDL
