MODEL 1
REMARK VINA RESULT: -3.296509854      0.000      0.000
REMARK  3 active torsions:
REMARK  status: ('A' for Active; 'I' for Inactive)
REMARK    1  A    between atoms: C2_3  and  C3_4 
REMARK    2  A    between atoms: C2_3  and  C4_8 
REMARK       I    between atoms: C4_8  and  N3_10 
REMARK    3  A    between atoms: N3_10  and  N4_12 
REMARK       I    between atoms: N4_12  and  C5_14 
REMARK       I    between atoms: C5_14  and  N5_16 
ROOT
HETATM    1  N1  UNL     1      34.721  52.467  12.399  1.00  0.00    -0.196 NA
HETATM    2  C1  UNL     1      34.857  52.505  11.250  1.00  0.00     0.079 C 
HETATM    3  C2  UNL     1      35.027  52.528   9.795  1.00  0.00     0.224 C 
ENDROOT
BRANCH   3   4
HETATM    4  C3  UNL     1      36.332  53.105   9.383  1.00  0.00     0.081 C 
HETATM    5  N2  UNL     1      37.373  52.908  10.110  1.00  0.00    -0.409 N 
ATOM      6  H22 UNL     1      37.287  52.355  10.962  1.00  0.00     0.155 HD
ATOM      7  H21 UNL     1      38.270  53.304   9.827  1.00  0.00     0.155 HD
ENDBRANCH   3   4
BRANCH   3   8
HETATM    8  C4  UNL     1      34.941  51.141   9.294  1.00  0.00     0.259 C 
HETATM    9  O1  UNL     1      35.987  50.560   8.940  1.00  0.00    -0.270 OA
HETATM   10  N3  UNL     1      33.697  50.492   9.220  1.00  0.00    -0.265 N 
ATOM     11  H3  UNL     1      32.851  50.981   9.512  1.00  0.00     0.190 HD
BRANCH  10  12
HETATM   12  N4  UNL     1      33.615  49.183   8.748  1.00  0.00    -0.249 N 
HETATM   13  C5  UNL     1      33.838  48.115   9.651  1.00  0.00     0.337 C 
HETATM   14  O2  UNL     1      34.110  48.327  10.874  1.00  0.00    -0.245 OA
HETATM   15  N5  UNL     1      33.758  46.783   9.192  1.00  0.00    -0.330 N 
HETATM   16  C6  UNL     1      33.456  46.537   7.803  1.00  0.00     0.155 C 
HETATM   17  C9  UNL     1      33.976  45.668  10.121  1.00  0.00     0.155 C 
HETATM   18  C7  UNL     1      33.806  45.098   7.499  1.00  0.00     0.252 C 
HETATM   19  N6  UNL     1      35.119  44.848   8.109  1.00  0.00    -0.072 N 
HETATM   20  C8  UNL     1      34.969  44.689   9.543  1.00  0.00     0.252 C 
ATOM     21  H62 UNL     1      35.597  44.054   7.683  1.00  0.00     0.277 HD
ATOM     22  H61 UNL     1      35.797  45.572   7.871  1.00  0.00     0.277 HD
ATOM     23  H4  UNL     1      33.399  48.998   7.768  1.00  0.00     0.192 HD
ENDBRANCH  10  12
ENDBRANCH   3   8
TORSDOF 3
ENDMDL
MODEL 2
REMARK VINA RESULT: -3.115728366      1.760      2.426
REMARK  3 active torsions:
REMARK  status: ('A' for Active; 'I' for Inactive)
REMARK    1  A    between atoms: C2_3  and  C3_4 
REMARK    2  A    between atoms: C2_3  and  C4_8 
REMARK       I    between atoms: C4_8  and  N3_10 
REMARK    3  A    between atoms: N3_10  and  N4_12 
REMARK       I    between atoms: N4_12  and  C5_14 
REMARK       I    between atoms: C5_14  and  N5_16 
ROOT
HETATM    1  N1  UNL     1      38.676  52.887   9.423  1.00  0.00    -0.196 NA
HETATM    2  C1  UNL     1      37.625  52.665   9.853  1.00  0.00     0.079 C 
HETATM    3  C2  UNL     1      36.296  52.360  10.390  1.00  0.00     0.224 C 
ENDROOT
BRANCH   3   4
HETATM    4  C3  UNL     1      35.218  53.123   9.712  1.00  0.00     0.081 C 
HETATM    5  N2  UNL     1      34.191  52.502   9.252  1.00  0.00    -0.409 N 
ATOM      6  H22 UNL     1      34.132  51.490   9.360  1.00  0.00     0.155 HD
ATOM      7  H21 UNL     1      33.450  53.027   8.786  1.00  0.00     0.155 HD
ENDBRANCH   3   4
BRANCH   3   8
HETATM    8  C4  UNL     1      36.041  50.916  10.210  1.00  0.00     0.259 C 
HETATM    9  O1  UNL     1      35.597  50.254  11.170  1.00  0.00    -0.270 OA
HETATM   10  N3  UNL     1      36.297  50.302   8.972  1.00  0.00    -0.265 N 
ATOM     11  H3  UNL     1      36.662  50.856   8.196  1.00  0.00     0.190 HD
BRANCH  10  12
HETATM   12  N4  UNL     1      36.056  48.940   8.799  1.00  0.00    -0.249 N 
HETATM   13  C5  UNL     1      34.719  48.496   8.651  1.00  0.00     0.337 C 
HETATM   14  O2  UNL     1      33.744  49.310   8.672  1.00  0.00    -0.245 OA
HETATM   15  N5  UNL     1      34.455  47.121   8.474  1.00  0.00    -0.330 N 
HETATM   16  C6  UNL     1      35.559  46.192   8.455  1.00  0.00     0.155 C 
HETATM   17  C9  UNL     1      33.076  46.650   8.308  1.00  0.00     0.155 C 
HETATM   18  C7  UNL     1      34.998  44.800   8.641  1.00  0.00     0.252 C 
HETATM   19  N6  UNL     1      34.018  44.887   9.732  1.00  0.00    -0.072 N 
HETATM   20  C8  UNL     1      32.797  45.499   9.244  1.00  0.00     0.252 C 
ATOM     21  H62 UNL     1      33.845  43.980  10.167  1.00  0.00     0.277 HD
ATOM     22  H61 UNL     1      34.392  45.371  10.548  1.00  0.00     0.277 HD
ATOM     23  H4  UNL     1      36.829  48.275   8.781  1.00  0.00     0.192 HD
ENDBRANCH  10  12
ENDBRANCH   3   8
TORSDOF 3
ENDMDL
MODEL 3
REMARK VINA RESULT: -2.940670975      1.640      2.328
REMARK  3 active torsions:
REMARK  status: ('A' for Active; 'I' for Inactive)
REMARK    1  A    between atoms: C2_3  and  C3_4 
REMARK    2  A    between atoms: C2_3  and  C4_8 
REMARK       I    between atoms: C4_8  and  N3_10 
REMARK    3  A    between atoms: N3_10  and  N4_12 
REMARK       I    between atoms: N4_12  and  C5_14 
REMARK       I    between atoms: C5_14  and  N5_16 
ROOT
HETATM    1  N1  UNL     1      35.630  53.469   8.239  1.00  0.00    -0.196 NA
HETATM    2  C1  UNL     1      35.787  52.941   9.258  1.00  0.00     0.079 C 
HETATM    3  C2  UNL     1      35.981  52.251  10.535  1.00  0.00     0.224 C 
ENDROOT
BRANCH   3   4
HETATM    4  C3  UNL     1      35.010  52.688  11.572  1.00  0.00     0.081 C 
HETATM    5  N2  UNL     1      33.823  52.196  11.579  1.00  0.00    -0.409 N 
ATOM      6  H22 UNL     1      33.564  51.511  10.870  1.00  0.00     0.155 HD
ATOM      7  H21 UNL     1      33.156  52.496  12.291  1.00  0.00     0.155 HD
ENDBRANCH   3   4
BRANCH   3   8
HETATM    8  C4  UNL     1      35.816  50.800  10.312  1.00  0.00     0.259 C 
HETATM    9  O1  UNL     1      35.661  50.049  11.295  1.00  0.00    -0.270 OA
HETATM   10  N3  UNL     1      35.835  50.280   9.006  1.00  0.00    -0.265 N 
ATOM     11  H3  UNL     1      35.964  50.907   8.211  1.00  0.00     0.190 HD
BRANCH  10  12
HETATM   12  N4  UNL     1      35.678  48.912   8.793  1.00  0.00    -0.249 N 
HETATM   13  C5  UNL     1      34.369  48.375   8.726  1.00  0.00     0.337 C 
HETATM   14  O2  UNL     1      33.343  49.113   8.856  1.00  0.00    -0.245 OA
HETATM   15  N5  UNL     1      34.190  46.993   8.510  1.00  0.00    -0.330 N 
HETATM   16  C6  UNL     1      35.352  46.149   8.367  1.00  0.00     0.155 C 
HETATM   17  C9  UNL     1      32.839  46.427   8.427  1.00  0.00     0.155 C 
HETATM   18  C7  UNL     1      34.908  44.714   8.535  1.00  0.00     0.252 C 
HETATM   19  N6  UNL     1      34.012  44.685   9.699  1.00  0.00    -0.072 N 
HETATM   20  C8  UNL     1      32.716  45.224   9.331  1.00  0.00     0.252 C 
ATOM     21  H62 UNL     1      33.938  43.752  10.105  1.00  0.00     0.277 HD
ATOM     22  H61 UNL     1      34.413  45.165  10.504  1.00  0.00     0.277 HD
ATOM     23  H4  UNL     1      36.493  48.307   8.688  1.00  0.00     0.192 HD
ENDBRANCH  10  12
ENDBRANCH   3   8
TORSDOF 3
ENDMDL
MODEL 4
REMARK VINA RESULT: -2.559313529      1.386      1.563
REMARK  3 active torsions:
REMARK  status: ('A' for Active; 'I' for Inactive)
REMARK    1  A    between atoms: C2_3  and  C3_4 
REMARK    2  A    between atoms: C2_3  and  C4_8 
REMARK       I    between atoms: C4_8  and  N3_10 
REMARK    3  A    between atoms: N3_10  and  N4_12 
REMARK       I    between atoms: N4_12  and  C5_14 
REMARK       I    between atoms: C5_14  and  N5_16 
ROOT
HETATM    1  N1  UNL     1      34.761  52.713  12.320  1.00  0.00    -0.196 NA
HETATM    2  C1  UNL     1      35.331  52.733  11.313  1.00  0.00     0.079 C 
HETATM    3  C2  UNL     1      36.049  52.733  10.035  1.00  0.00     0.224 C 
ENDROOT
BRANCH   3   4
HETATM    4  C3  UNL     1      37.479  53.105  10.185  1.00  0.00     0.081 C 
HETATM    5  N2  UNL     1      38.324  52.762   9.280  1.00  0.00    -0.409 N 
ATOM      6  H22 UNL     1      37.999  52.237   8.469  1.00  0.00     0.155 HD
ATOM      7  H21 UNL     1      39.306  53.018   9.383  1.00  0.00     0.155 HD
ENDBRANCH   3   4
BRANCH   3   8
HETATM    8  C4  UNL     1      35.970  51.376   9.457  1.00  0.00     0.259 C 
HETATM    9  O1  UNL     1      36.147  51.229   8.231  1.00  0.00    -0.270 OA
HETATM   10  N3  UNL     1      35.700  50.270  10.281  1.00  0.00    -0.265 N 
ATOM     11  H3  UNL     1      35.556  50.406  11.282  1.00  0.00     0.190 HD
BRANCH  10  12
HETATM   12  N4  UNL     1      35.627  48.989   9.737  1.00  0.00    -0.249 N 
HETATM   13  C5  UNL     1      34.357  48.463   9.393  1.00  0.00     0.337 C 
HETATM   14  O2  UNL     1      33.292  49.132   9.572  1.00  0.00    -0.245 OA
HETATM   15  N5  UNL     1      34.264  47.169   8.840  1.00  0.00    -0.330 N 
HETATM   16  C6  UNL     1      35.470  46.402   8.640  1.00  0.00     0.155 C 
HETATM   17  C9  UNL     1      32.956  46.617   8.470  1.00  0.00     0.155 C 
HETATM   18  C7  UNL     1      35.073  44.961   8.413  1.00  0.00     0.252 C 
HETATM   19  N6  UNL     1      34.057  44.642   9.425  1.00  0.00    -0.072 N 
HETATM   20  C8  UNL     1      32.787  45.232   9.046  1.00  0.00     0.252 C 
ATOM     21  H62 UNL     1      33.980  43.638   9.590  1.00  0.00     0.277 HD
ATOM     22  H61 UNL     1      34.347  44.923  10.362  1.00  0.00     0.277 HD
ATOM     23  H4  UNL     1      36.474  48.440   9.588  1.00  0.00     0.192 HD
ENDBRANCH  10  12
ENDBRANCH   3   8
TORSDOF 3
ENDMDL
MODEL 5
REMARK VINA RESULT: -1.693711963      1.816      6.491
REMARK  3 active torsions:
REMARK  status: ('A' for Active; 'I' for Inactive)
REMARK    1  A    between atoms: C2_3  and  C3_4 
REMARK    2  A    between atoms: C2_3  and  C4_8 
REMARK       I    between atoms: C4_8  and  N3_10 
REMARK    3  A    between atoms: N3_10  and  N4_12 
REMARK       I    between atoms: N4_12  and  C5_14 
REMARK       I    between atoms: C5_14  and  N5_16 
ROOT
HETATM    1  N1  UNL     1      35.797  43.887   8.280  1.00  0.00    -0.196 NA
HETATM    2  C1  UNL     1      34.883  44.598   8.283  1.00  0.00     0.079 C 
HETATM    3  C2  UNL     1      33.742  45.518   8.288  1.00  0.00     0.224 C 
ENDROOT
BRANCH   3   4
HETATM    4  C3  UNL     1      32.879  45.349   9.485  1.00  0.00     0.081 C 
HETATM    5  N2  UNL     1      33.106  46.049  10.538  1.00  0.00    -0.409 N 
ATOM      6  H22 UNL     1      33.879  46.714  10.535  1.00  0.00     0.155 HD
ATOM      7  H21 UNL     1      32.513  45.933  11.360  1.00  0.00     0.155 HD
ENDBRANCH   3   4
BRANCH   3   8
HETATM    8  C4  UNL     1      34.259  46.901   8.267  1.00  0.00     0.259 C 
HETATM    9  O1  UNL     1      33.526  47.816   7.839  1.00  0.00    -0.270 OA
HETATM   10  N3  UNL     1      35.559  47.177   8.725  1.00  0.00    -0.265 N 
ATOM     11  H3  UNL     1      36.147  46.419   9.071  1.00  0.00     0.190 HD
BRANCH  10  12
HETATM   12  N4  UNL     1      36.048  48.482   8.707  1.00  0.00    -0.249 N 
HETATM   13  C5  UNL     1      35.630  49.383   9.718  1.00  0.00     0.337 C 
HETATM   14  O2  UNL     1      34.825  49.025  10.633  1.00  0.00    -0.245 OA
HETATM   15  N5  UNL     1      36.115  50.708   9.717  1.00  0.00    -0.330 N 
HETATM   16  C6  UNL     1      37.026  51.121   8.677  1.00  0.00     0.155 C 
HETATM   17  C9  UNL     1      35.699  51.647  10.764  1.00  0.00     0.155 C 
HETATM   18  C7  UNL     1      37.080  52.632   8.679  1.00  0.00     0.252 C 
HETATM   19  N6  UNL     1      35.692  53.100   8.787  1.00  0.00    -0.072 N 
HETATM   20  C8  UNL     1      35.228  52.943  10.152  1.00  0.00     0.252 C 
ATOM     21  H62 UNL     1      35.582  54.058   8.451  1.00  0.00     0.277 HD
ATOM     22  H61 UNL     1      35.078  52.638   8.116  1.00  0.00     0.277 HD
ATOM     23  H4  UNL     1      36.695  48.783   7.978  1.00  0.00     0.192 HD
ENDBRANCH  10  12
ENDBRANCH   3   8
TORSDOF 3
ENDMDL
