MODEL 1
REMARK VINA RESULT: -5.950160732      0.000      0.000
REMARK  5 active torsions:
REMARK  status: ('A' for Active; 'I' for Inactive)
REMARK    1  A    between atoms: C3_4  and  C4_5 
REMARK       I    between atoms: C4_5  and  N2_7 
REMARK    2  A    between atoms: N2_7  and  C5_9 
REMARK    3  A    between atoms: C5_9  and  N3_11 
REMARK    4  A    between atoms: N3_11  and  C6_13 
REMARK    5  A    between atoms: C6_13  and  O2_14 
ROOT
HETATM    1  N3  UNL     1      34.146  51.090   9.060  1.00  0.00    -0.316 N 
ATOM      2  H3  UNL     1      33.609  50.937   8.206  1.00  0.00     0.166 HD
ENDROOT
BRANCH   1   3
HETATM    3  C5  UNL     1      33.980  50.235  10.203  1.00  0.00     0.178 C 
HETATM    4  S1  UNL     1      33.610  50.878  11.661  1.00  0.00    -0.041 SA
BRANCH   3   5
HETATM    5  N2  UNL     1      34.131  48.851  10.088  1.00  0.00    -0.300 N 
HETATM    6  C4  UNL     1      35.131  48.281   9.265  1.00  0.00     0.248 C 
HETATM    7  O1  UNL     1      35.938  48.985   8.594  1.00  0.00    -0.268 OA
ATOM      8  H2  UNL     1      33.505  48.237  10.609  1.00  0.00     0.171 HD
BRANCH   6   9
HETATM    9  C3  UNL     1      35.287  46.826   9.147  1.00  0.00     0.096 C 
HETATM   10  C2  UNL     1      34.592  46.109   8.305  1.00  0.00     0.025 C 
HETATM   11  C1  UNL     1      34.793  44.658   8.233  1.00  0.00     0.065 C 
HETATM   12  N1  UNL     1      33.636  46.701   7.449  1.00  0.00    -0.107 NA
ENDBRANCH   6   9
ENDBRANCH   3   5
ENDBRANCH   1   3
BRANCH   1  13
HETATM   13  C6  UNL     1      35.092  52.164   9.156  1.00  0.00     0.234 C 
HETATM   14  C7  UNL     1      35.155  52.788  10.511  1.00  0.00     0.208 C 
HETATM   15  N4  UNL     1      36.533  53.252  10.582  1.00  0.00    -0.358 N 
HETATM   16  C8  UNL     1      37.259  52.632   9.704  1.00  0.00     0.188 C 
ATOM     17  H4  UNL     1      36.878  53.961  11.229  1.00  0.00     0.162 HD
HETATM   18  N5  UNL     1      38.665  52.827   9.483  1.00  0.00    -0.064 NA
HETATM   19  N6  UNL     1      36.464  51.710   8.969  1.00  0.00    -0.314 N 
ATOM     20  H6  UNL     1      36.784  50.906   8.428  1.00  0.00     0.167 HD
BRANCH  13  21
HETATM   21  O2  UNL     1      34.854  53.118   8.173  1.00  0.00    -0.352 OA
ATOM     22  H2  UNL     1      34.514  53.917   8.556  1.00  0.00     0.214 HD
ENDBRANCH  13  21
ENDBRANCH   1  13
TORSDOF 5
ENDMDL
MODEL 2
REMARK VINA RESULT: -5.849327910      1.075      1.099
REMARK  5 active torsions:
REMARK  status: ('A' for Active; 'I' for Inactive)
REMARK    1  A    between atoms: C3_4  and  C4_5 
REMARK       I    between atoms: C4_5  and  N2_7 
REMARK    2  A    between atoms: N2_7  and  C5_9 
REMARK    3  A    between atoms: C5_9  and  N3_11 
REMARK    4  A    between atoms: N3_11  and  C6_13 
REMARK    5  A    between atoms: C6_13  and  O2_14 
ROOT
HETATM    1  N3  UNL     1      34.106  51.109   9.144  1.00  0.00    -0.316 N 
ATOM      2  H3  UNL     1      33.514  50.974   8.324  1.00  0.00     0.166 HD
ENDROOT
BRANCH   1   3
HETATM    3  C5  UNL     1      33.990  50.253  10.292  1.00  0.00     0.178 C 
HETATM    4  S1  UNL     1      33.671  50.892  11.763  1.00  0.00    -0.041 SA
BRANCH   3   5
HETATM    5  N2  UNL     1      34.148  48.870  10.169  1.00  0.00    -0.300 N 
HETATM    6  C4  UNL     1      33.611  48.158   9.071  1.00  0.00     0.248 C 
HETATM    7  O1  UNL     1      32.964  48.726   8.146  1.00  0.00    -0.268 OA
ATOM      8  H2  UNL     1      34.662  48.362  10.889  1.00  0.00     0.171 HD
BRANCH   6   9
HETATM    9  C3  UNL     1      33.779  46.704   8.946  1.00  0.00     0.096 C 
HETATM   10  C2  UNL     1      34.900  46.155   8.561  1.00  0.00     0.025 C 
HETATM   11  C1  UNL     1      35.006  44.696   8.455  1.00  0.00     0.065 C 
HETATM   12  N1  UNL     1      36.031  46.939   8.238  1.00  0.00    -0.107 NA
ENDBRANCH   6   9
ENDBRANCH   3   5
ENDBRANCH   1   3
BRANCH   1  13
HETATM   13  C6  UNL     1      35.082  52.161   9.186  1.00  0.00     0.234 C 
HETATM   14  C7  UNL     1      35.186  52.829  10.518  1.00  0.00     0.208 C 
HETATM   15  N4  UNL     1      36.577  53.258  10.549  1.00  0.00    -0.358 N 
HETATM   16  C8  UNL     1      37.270  52.589   9.680  1.00  0.00     0.188 C 
ATOM     17  H4  UNL     1      36.952  53.979  11.164  1.00  0.00     0.162 HD
HETATM   18  N5  UNL     1      38.677  52.738   9.428  1.00  0.00    -0.064 NA
HETATM   19  N6  UNL     1      36.437  51.664   8.991  1.00  0.00    -0.314 N 
ATOM     20  H6  UNL     1      36.726  50.834   8.473  1.00  0.00     0.167 HD
BRANCH  13  21
HETATM   21  O2  UNL     1      34.851  53.086   8.175  1.00  0.00    -0.352 OA
ATOM     22  H2  UNL     1      34.403  52.677   7.443  1.00  0.00     0.214 HD
ENDBRANCH  13  21
ENDBRANCH   1  13
TORSDOF 5
ENDMDL
MODEL 3
REMARK VINA RESULT: -5.068703297      1.371      1.649
REMARK  5 active torsions:
REMARK  status: ('A' for Active; 'I' for Inactive)
REMARK    1  A    between atoms: C3_4  and  C4_5 
REMARK       I    between atoms: C4_5  and  N2_7 
REMARK    2  A    between atoms: N2_7  and  C5_9 
REMARK    3  A    between atoms: C5_9  and  N3_11 
REMARK    4  A    between atoms: N3_11  and  C6_13 
REMARK    5  A    between atoms: C6_13  and  O2_14 
ROOT
HETATM    1  N3  UNL     1      34.340  51.506   9.752  1.00  0.00    -0.316 N 
ATOM      2  H3  UNL     1      33.583  52.072   9.368  1.00  0.00     0.166 HD
ENDROOT
BRANCH   1   3
HETATM    3  C5  UNL     1      34.101  50.571  10.817  1.00  0.00     0.178 C 
HETATM    4  S1  UNL     1      33.715  51.111  12.312  1.00  0.00    -0.041 SA
BRANCH   3   5
HETATM    5  N2  UNL     1      34.194  49.196  10.592  1.00  0.00    -0.300 N 
HETATM    6  C4  UNL     1      33.704  48.604   9.405  1.00  0.00     0.248 C 
HETATM    7  O1  UNL     1      33.157  49.279   8.487  1.00  0.00    -0.268 OA
ATOM      8  H2  UNL     1      34.627  48.604  11.302  1.00  0.00     0.171 HD
BRANCH   6   9
HETATM    9  C3  UNL     1      33.804  47.157   9.172  1.00  0.00     0.096 C 
HETATM   10  C2  UNL     1      34.886  46.591   8.710  1.00  0.00     0.025 C 
HETATM   11  C1  UNL     1      34.926  45.140   8.499  1.00  0.00     0.065 C 
HETATM   12  N1  UNL     1      36.039  47.349   8.402  1.00  0.00    -0.107 NA
ENDBRANCH   6   9
ENDBRANCH   3   5
ENDBRANCH   1   3
BRANCH   1  13
HETATM   13  C6  UNL     1      35.678  51.620   9.246  1.00  0.00     0.234 C 
HETATM   14  C7  UNL     1      35.832  52.661   8.186  1.00  0.00     0.208 C 
HETATM   15  N4  UNL     1      37.214  53.086   8.360  1.00  0.00    -0.358 N 
HETATM   16  C8  UNL     1      37.640  52.751   9.539  1.00  0.00     0.188 C 
ATOM     17  H4  UNL     1      37.767  53.576   7.657  1.00  0.00     0.162 HD
HETATM   18  N5  UNL     1      38.952  53.005  10.065  1.00  0.00    -0.064 NA
HETATM   19  N6  UNL     1      36.614  52.081  10.262  1.00  0.00    -0.314 N 
ATOM     20  H6  UNL     1      36.549  51.952  11.272  1.00  0.00     0.167 HD
BRANCH  13  21
HETATM   21  O2  UNL     1      36.144  50.385   8.810  1.00  0.00    -0.352 OA
ATOM     22  H2  UNL     1      36.902  50.491   8.247  1.00  0.00     0.214 HD
ENDBRANCH  13  21
ENDBRANCH   1  13
TORSDOF 5
ENDMDL
MODEL 4
REMARK VINA RESULT: -4.532851636      1.447      1.554
REMARK  5 active torsions:
REMARK  status: ('A' for Active; 'I' for Inactive)
REMARK    1  A    between atoms: C3_4  and  C4_5 
REMARK       I    between atoms: C4_5  and  N2_7 
REMARK    2  A    between atoms: N2_7  and  C5_9 
REMARK    3  A    between atoms: C5_9  and  N3_11 
REMARK    4  A    between atoms: N3_11  and  C6_13 
REMARK    5  A    between atoms: C6_13  and  O2_14 
ROOT
HETATM    1  N3  UNL     1      33.672  51.865   9.958  1.00  0.00    -0.316 N 
ATOM      2  H3  UNL     1      32.774  52.240   9.654  1.00  0.00     0.166 HD
ENDROOT
BRANCH   1   3
HETATM    3  C5  UNL     1      33.752  50.901  11.021  1.00  0.00     0.178 C 
HETATM    4  S1  UNL     1      33.556  51.374  12.575  1.00  0.00    -0.041 SA
BRANCH   3   5
HETATM    5  N2  UNL     1      33.997  49.553  10.745  1.00  0.00    -0.300 N 
HETATM    6  C4  UNL     1      33.574  48.956   9.534  1.00  0.00     0.248 C 
HETATM    7  O1  UNL     1      32.954  49.602   8.642  1.00  0.00    -0.268 OA
ATOM      8  H2  UNL     1      34.494  48.986  11.433  1.00  0.00     0.171 HD
BRANCH   6   9
HETATM    9  C3  UNL     1      33.834  47.539   9.248  1.00  0.00     0.096 C 
HETATM   10  C2  UNL     1      34.945  47.124   8.702  1.00  0.00     0.025 C 
HETATM   11  C1  UNL     1      35.146  45.695   8.440  1.00  0.00     0.065 C 
HETATM   12  N1  UNL     1      35.975  48.026   8.350  1.00  0.00    -0.107 NA
ENDBRANCH   6   9
ENDBRANCH   3   5
ENDBRANCH   1   3
BRANCH   1  13
HETATM   13  C6  UNL     1      34.897  52.284   9.338  1.00  0.00     0.234 C 
HETATM   14  C7  UNL     1      35.863  52.915  10.286  1.00  0.00     0.208 C 
HETATM   15  N4  UNL     1      37.151  52.588   9.689  1.00  0.00    -0.358 N 
HETATM   16  C8  UNL     1      37.022  51.593   8.867  1.00  0.00     0.188 C 
ATOM     17  H4  UNL     1      38.027  53.070   9.888  1.00  0.00     0.162 HD
HETATM   18  N5  UNL     1      38.076  50.994   8.095  1.00  0.00    -0.064 NA
HETATM   19  N6  UNL     1      35.668  51.159   8.825  1.00  0.00    -0.314 N 
ATOM     20  H6  UNL     1      35.314  50.257   8.506  1.00  0.00     0.167 HD
BRANCH  13  21
HETATM   21  O2  UNL     1      34.639  53.113   8.253  1.00  0.00    -0.352 OA
ATOM     22  H2  UNL     1      35.184  53.890   8.288  1.00  0.00     0.214 HD
ENDBRANCH  13  21
ENDBRANCH   1  13
TORSDOF 5
ENDMDL
MODEL 5
REMARK VINA RESULT: -4.241626719      2.486      5.978
REMARK  5 active torsions:
REMARK  status: ('A' for Active; 'I' for Inactive)
REMARK    1  A    between atoms: C3_4  and  C4_5 
REMARK       I    between atoms: C4_5  and  N2_7 
REMARK    2  A    between atoms: N2_7  and  C5_9 
REMARK    3  A    between atoms: C5_9  and  N3_11 
REMARK    4  A    between atoms: N3_11  and  C6_13 
REMARK    5  A    between atoms: C6_13  and  O2_14 
ROOT
HETATM    1  N3  UNL     1      36.703  47.985   8.951  1.00  0.00    -0.316 N 
ATOM      2  H3  UNL     1      37.523  47.472   9.274  1.00  0.00     0.166 HD
ENDROOT
BRANCH   1   3
HETATM    3  C5  UNL     1      36.560  49.392   9.204  1.00  0.00     0.178 C 
HETATM    4  S1  UNL     1      37.265  50.481   8.208  1.00  0.00    -0.041 SA
BRANCH   3   5
HETATM    5  N2  UNL     1      35.822  49.849  10.299  1.00  0.00    -0.300 N 
HETATM    6  C4  UNL     1      34.632  50.596  10.131  1.00  0.00     0.248 C 
HETATM    7  O1  UNL     1      34.174  50.891   8.991  1.00  0.00    -0.268 OA
ATOM      8  H2  UNL     1      36.149  49.638  11.242  1.00  0.00     0.171 HD
BRANCH   6   9
HETATM    9  C3  UNL     1      33.859  51.073  11.285  1.00  0.00     0.096 C 
HETATM   10  C2  UNL     1      34.422  51.571  12.353  1.00  0.00     0.025 C 
HETATM   11  C1  UNL     1      33.596  52.032  13.473  1.00  0.00     0.065 C 
HETATM   12  N1  UNL     1      35.827  51.680  12.461  1.00  0.00    -0.107 NA
ENDBRANCH   6   9
ENDBRANCH   3   5
ENDBRANCH   1   3
BRANCH   1  13
HETATM   13  C6  UNL     1      35.653  47.323   8.229  1.00  0.00     0.234 C 
HETATM   14  C7  UNL     1      35.531  45.870   8.547  1.00  0.00     0.208 C 
HETATM   15  N4  UNL     1      34.112  45.618   8.332  1.00  0.00    -0.358 N 
HETATM   16  C8  UNL     1      33.451  46.733   8.360  1.00  0.00     0.188 C 
ATOM     17  H4  UNL     1      33.699  44.698   8.182  1.00  0.00     0.162 HD
HETATM   18  N5  UNL     1      32.033  46.877   8.187  1.00  0.00    -0.064 NA
HETATM   19  N6  UNL     1      34.334  47.825   8.590  1.00  0.00    -0.314 N 
ATOM     20  H6  UNL     1      34.096  48.755   8.933  1.00  0.00     0.167 HD
BRANCH  13  21
HETATM   21  O2  UNL     1      35.794  47.529   6.861  1.00  0.00    -0.352 OA
ATOM     22  H2  UNL     1      35.114  48.110   6.538  1.00  0.00     0.214 HD
ENDBRANCH  13  21
ENDBRANCH   1  13
TORSDOF 5
ENDMDL
