MODEL 1
REMARK VINA RESULT: -6.966200789      0.000      0.000
REMARK  4 active torsions:
REMARK  status: ('A' for Active; 'I' for Inactive)
REMARK    1  A    between atoms: N2_3  and  C2_5 
REMARK    2  A    between atoms: C2_5  and  N3_7 
REMARK    3  A    between atoms: N3_7  and  N4_9 
REMARK    4  A    between atoms: N4_9  and  C3_11 
ROOT
HETATM    1  N1  UNL     1      32.766  49.392   8.174  1.00  0.00    -0.172 NA
HETATM    2  C1  UNL     1      32.987  48.239   8.185  1.00  0.00     0.184 C 
HETATM    3  N2  UNL     1      33.243  46.864   8.177  1.00  0.00    -0.269 N 
ATOM      4  H2  UNL     1      32.459  46.212   8.208  1.00  0.00     0.180 HD
ENDROOT
BRANCH   3   5
HETATM    5  C2  UNL     1      34.571  46.354   8.126  1.00  0.00     0.199 C 
HETATM    6  S1  UNL     1      34.892  44.816   8.574  1.00  0.00    -0.038 SA
BRANCH   5   7
HETATM    7  N3  UNL     1      35.604  47.215   7.677  1.00  0.00    -0.276 N 
ATOM      8  H3  UNL     1      35.762  47.344   6.678  1.00  0.00     0.189 HD
BRANCH   7   9
HETATM    9  N4  UNL     1      36.405  47.886   8.605  1.00  0.00    -0.309 N 
ATOM     10  H4  UNL     1      36.804  47.371   9.390  1.00  0.00     0.186 HD
BRANCH   9  11
HETATM   11  C3  UNL     1      36.647  49.147   8.484  1.00  0.00     0.127 C 
HETATM   12  C4  UNL     1      36.130  50.130   9.412  1.00  0.00     0.090 A 
HETATM   13  C5  UNL     1      35.346  49.677  10.467  1.00  0.00     0.137 A 
HETATM   14  C7  UNL     1      36.411  51.471   9.251  1.00  0.00     0.264 A 
HETATM   15  N5  UNL     1      35.089  48.283  10.584  1.00  0.00    -0.081 NA
HETATM   16  N6  UNL     1      34.872  50.601  11.321  1.00  0.00    -0.296 N 
HETATM   17  C6  UNL     1      35.154  51.923  11.156  1.00  0.00     0.328 A 
ATOM     18  H6  UNL     1      34.293  50.306  12.107  1.00  0.00     0.171 HD
HETATM   19  O1  UNL     1      34.659  52.708  12.014  1.00  0.00    -0.247 OA
HETATM   20  N7  UNL     1      35.914  52.356  10.133  1.00  0.00    -0.275 N 
ATOM     21  H7  UNL     1      36.112  53.351  10.027  1.00  0.00     0.173 HD
HETATM   22  O2  UNL     1      37.122  51.902   8.299  1.00  0.00    -0.267 OA
ENDBRANCH   9  11
ENDBRANCH   7   9
ENDBRANCH   5   7
ENDBRANCH   3   5
TORSDOF 4
ENDMDL
MODEL 2
REMARK VINA RESULT: -6.304883329      3.429      5.754
REMARK  4 active torsions:
REMARK  status: ('A' for Active; 'I' for Inactive)
REMARK    1  A    between atoms: N2_3  and  C2_5 
REMARK    2  A    between atoms: C2_5  and  N3_7 
REMARK    3  A    between atoms: N3_7  and  N4_9 
REMARK    4  A    between atoms: N4_9  and  C3_11 
ROOT
HETATM    1  N1  UNL     1      37.343  52.363   9.342  1.00  0.00    -0.172 NA
HETATM    2  C1  UNL     1      36.440  52.543  10.071  1.00  0.00     0.184 C 
HETATM    3  N2  UNL     1      35.360  52.776  10.927  1.00  0.00    -0.269 N 
ATOM      4  H2  UNL     1      35.391  53.573  11.563  1.00  0.00     0.180 HD
ENDROOT
BRANCH   3   5
HETATM    5  C2  UNL     1      34.216  51.927  10.931  1.00  0.00     0.199 C 
HETATM    6  S1  UNL     1      33.590  51.378  12.337  1.00  0.00    -0.038 SA
BRANCH   5   7
HETATM    7  N3  UNL     1      33.640  51.572   9.686  1.00  0.00    -0.276 N 
ATOM      8  H3  UNL     1      32.861  52.114   9.311  1.00  0.00     0.189 HD
BRANCH   7   9
HETATM    9  N4  UNL     1      34.138  50.479   8.973  1.00  0.00    -0.309 N 
ATOM     10  H4  UNL     1      35.099  50.497   8.632  1.00  0.00     0.186 HD
BRANCH   9  11
HETATM   11  C3  UNL     1      33.401  49.446   8.740  1.00  0.00     0.127 C 
HETATM   12  C4  UNL     1      33.948  48.111   8.628  1.00  0.00     0.090 A 
HETATM   13  C5  UNL     1      35.322  47.957   8.782  1.00  0.00     0.137 A 
HETATM   14  C7  UNL     1      33.128  47.029   8.379  1.00  0.00     0.264 A 
HETATM   15  N5  UNL     1      36.119  49.107   9.038  1.00  0.00    -0.081 NA
HETATM   16  N6  UNL     1      35.816  46.711   8.676  1.00  0.00    -0.296 N 
HETATM   17  C6  UNL     1      35.001  45.649   8.429  1.00  0.00     0.328 A 
ATOM     18  H6  UNL     1      36.819  46.560   8.783  1.00  0.00     0.171 HD
HETATM   19  O1  UNL     1      35.567  44.521   8.348  1.00  0.00    -0.247 OA
HETATM   20  N7  UNL     1      33.672  45.804   8.282  1.00  0.00    -0.275 N 
ATOM     21  H7  UNL     1      33.079  44.994   8.098  1.00  0.00     0.173 HD
HETATM   22  O2  UNL     1      31.878  47.149   8.237  1.00  0.00    -0.267 OA
ENDBRANCH   9  11
ENDBRANCH   7   9
ENDBRANCH   5   7
ENDBRANCH   3   5
TORSDOF 4
ENDMDL
MODEL 3
REMARK VINA RESULT: -6.090128572      3.057      5.471
REMARK  4 active torsions:
REMARK  status: ('A' for Active; 'I' for Inactive)
REMARK    1  A    between atoms: N2_3  and  C2_5 
REMARK    2  A    between atoms: C2_5  and  N3_7 
REMARK    3  A    between atoms: N3_7  and  N4_9 
REMARK    4  A    between atoms: N4_9  and  C3_11 
ROOT
HETATM    1  N1  UNL     1      37.447  52.405   9.338  1.00  0.00    -0.172 NA
HETATM    2  C1  UNL     1      36.556  52.578  10.083  1.00  0.00     0.184 C 
HETATM    3  N2  UNL     1      35.491  52.804  10.960  1.00  0.00    -0.269 N 
ATOM      4  H2  UNL     1      35.572  53.537  11.664  1.00  0.00     0.180 HD
ENDROOT
BRANCH   3   5
HETATM    5  C2  UNL     1      34.295  52.033  10.892  1.00  0.00     0.199 C 
HETATM    6  S1  UNL     1      33.611  51.434  12.249  1.00  0.00    -0.038 SA
BRANCH   5   7
HETATM    7  N3  UNL     1      33.716  51.803   9.619  1.00  0.00    -0.276 N 
ATOM      8  H3  UNL     1      33.273  52.570   9.113  1.00  0.00     0.189 HD
BRANCH   7   9
HETATM    9  N4  UNL     1      33.754  50.524   9.057  1.00  0.00    -0.309 N 
ATOM     10  H4  UNL     1      32.900  50.116   8.678  1.00  0.00     0.186 HD
BRANCH   9  11
HETATM   11  C3  UNL     1      34.854  49.852   9.010  1.00  0.00     0.127 C 
HETATM   12  C4  UNL     1      34.884  48.429   8.748  1.00  0.00     0.090 A 
HETATM   13  C5  UNL     1      33.670  47.781   8.541  1.00  0.00     0.137 A 
HETATM   14  C7  UNL     1      36.080  47.742   8.704  1.00  0.00     0.264 A 
HETATM   15  N5  UNL     1      32.468  48.539   8.597  1.00  0.00    -0.081 NA
HETATM   16  N6  UNL     1      33.712  46.460   8.298  1.00  0.00    -0.296 N 
HETATM   17  C6  UNL     1      34.897  45.789   8.257  1.00  0.00     0.328 A 
ATOM     18  H6  UNL     1      32.842  45.951   8.142  1.00  0.00     0.171 HD
HETATM   19  O1  UNL     1      34.825  44.549   8.022  1.00  0.00    -0.247 OA
HETATM   20  N7  UNL     1      36.068  46.421   8.458  1.00  0.00    -0.275 N 
ATOM     21  H7  UNL     1      36.945  45.899   8.422  1.00  0.00     0.173 HD
HETATM   22  O2  UNL     1      37.192  48.313   8.889  1.00  0.00    -0.267 OA
ENDBRANCH   9  11
ENDBRANCH   7   9
ENDBRANCH   5   7
ENDBRANCH   3   5
TORSDOF 4
ENDMDL
MODEL 4
REMARK VINA RESULT: -5.892758989      3.172      5.418
REMARK  4 active torsions:
REMARK  status: ('A' for Active; 'I' for Inactive)
REMARK    1  A    between atoms: N2_3  and  C2_5 
REMARK    2  A    between atoms: C2_5  and  N3_7 
REMARK    3  A    between atoms: N3_7  and  N4_9 
REMARK    4  A    between atoms: N4_9  and  C3_11 
ROOT
HETATM    1  N1  UNL     1      33.542  51.237  12.615  1.00  0.00    -0.172 NA
HETATM    2  C1  UNL     1      34.373  51.912  12.133  1.00  0.00     0.184 C 
HETATM    3  N2  UNL     1      35.378  52.704  11.570  1.00  0.00    -0.269 N 
ATOM      4  H2  UNL     1      35.893  53.353  12.166  1.00  0.00     0.180 HD
ENDROOT
BRANCH   3   5
HETATM    5  C2  UNL     1      35.701  52.626  10.185  1.00  0.00     0.199 C 
HETATM    6  S1  UNL     1      37.198  53.007   9.655  1.00  0.00    -0.038 SA
BRANCH   5   7
HETATM    7  N3  UNL     1      34.690  52.209   9.284  1.00  0.00    -0.276 N 
ATOM      8  H3  UNL     1      34.127  52.903   8.791  1.00  0.00     0.189 HD
BRANCH   7   9
HETATM    9  N4  UNL     1      34.464  50.847   9.071  1.00  0.00    -0.309 N 
ATOM     10  H4  UNL     1      33.507  50.498   9.019  1.00  0.00     0.186 HD
BRANCH   9  11
HETATM   11  C3  UNL     1      35.448  50.023   8.938  1.00  0.00     0.127 C 
HETATM   12  C4  UNL     1      35.251  48.607   8.716  1.00  0.00     0.090 A 
HETATM   13  C5  UNL     1      33.944  48.136   8.646  1.00  0.00     0.137 A 
HETATM   14  C7  UNL     1      36.328  47.756   8.577  1.00  0.00     0.264 A 
HETATM   15  N5  UNL     1      32.871  49.059   8.796  1.00  0.00    -0.081 NA
HETATM   16  N6  UNL     1      33.775  46.819   8.439  1.00  0.00    -0.296 N 
HETATM   17  C6  UNL     1      34.843  45.985   8.303  1.00  0.00     0.328 A 
ATOM     18  H6  UNL     1      32.831  46.437   8.383  1.00  0.00     0.171 HD
HETATM   19  O1  UNL     1      34.574  44.765   8.113  1.00  0.00    -0.247 OA
HETATM   20  N7  UNL     1      36.106  46.446   8.371  1.00  0.00    -0.275 N 
ATOM     21  H7  UNL     1      36.892  45.804   8.267  1.00  0.00     0.173 HD
HETATM   22  O2  UNL     1      37.522  48.165   8.637  1.00  0.00    -0.267 OA
ENDBRANCH   9  11
ENDBRANCH   7   9
ENDBRANCH   5   7
ENDBRANCH   3   5
TORSDOF 4
ENDMDL
MODEL 5
REMARK VINA RESULT: -5.796256317      3.508      5.750
REMARK  4 active torsions:
REMARK  status: ('A' for Active; 'I' for Inactive)
REMARK    1  A    between atoms: N2_3  and  C2_5 
REMARK    2  A    between atoms: C2_5  and  N3_7 
REMARK    3  A    between atoms: N3_7  and  N4_9 
REMARK    4  A    between atoms: N4_9  and  C3_11 
ROOT
HETATM    1  N1  UNL     1      33.590  51.179  12.705  1.00  0.00    -0.172 NA
HETATM    2  C1  UNL     1      34.337  51.879  12.127  1.00  0.00     0.184 C 
HETATM    3  N2  UNL     1      35.241  52.705  11.455  1.00  0.00    -0.269 N 
ATOM      4  H2  UNL     1      35.580  53.550  11.914  1.00  0.00     0.180 HD
ENDROOT
BRANCH   3   5
HETATM    5  C2  UNL     1      35.700  52.395  10.143  1.00  0.00     0.199 C 
HETATM    6  S1  UNL     1      37.179  52.875   9.641  1.00  0.00    -0.038 SA
BRANCH   5   7
HETATM    7  N3  UNL     1      34.842  51.659   9.288  1.00  0.00    -0.276 N 
ATOM      8  H3  UNL     1      34.025  52.110   8.875  1.00  0.00     0.189 HD
BRANCH   7   9
HETATM    9  N4  UNL     1      35.115  50.317   9.013  1.00  0.00    -0.309 N 
ATOM     10  H4  UNL     1      36.082  49.994   8.992  1.00  0.00     0.186 HD
BRANCH   9  11
HETATM   11  C3  UNL     1      34.161  49.479   8.785  1.00  0.00     0.127 C 
HETATM   12  C4  UNL     1      34.396  48.060   8.621  1.00  0.00     0.090 A 
HETATM   13  C5  UNL     1      35.706  47.604   8.716  1.00  0.00     0.137 A 
HETATM   14  C7  UNL     1      33.350  47.193   8.379  1.00  0.00     0.264 A 
HETATM   15  N5  UNL     1      36.745  48.543   8.967  1.00  0.00    -0.081 NA
HETATM   16  N6  UNL     1      35.910  46.284   8.562  1.00  0.00    -0.296 N 
HETATM   17  C6  UNL     1      34.873  45.435   8.323  1.00  0.00     0.328 A 
ATOM     18  H6  UNL     1      36.858  45.913   8.625  1.00  0.00     0.171 HD
HETATM   19  O1  UNL     1      35.174  44.214   8.194  1.00  0.00    -0.247 OA
HETATM   20  N7  UNL     1      33.607  45.882   8.232  1.00  0.00    -0.275 N 
ATOM     21  H7  UNL     1      32.844  45.228   8.053  1.00  0.00     0.173 HD
HETATM   22  O2  UNL     1      32.153  47.589   8.290  1.00  0.00    -0.267 OA
ENDBRANCH   9  11
ENDBRANCH   7   9
ENDBRANCH   5   7
ENDBRANCH   3   5
TORSDOF 4
ENDMDL
