MODEL 1
REMARK VINA RESULT: -1.119833065      0.000      0.000
REMARK  2 active torsions:
REMARK  status: ('A' for Active; 'I' for Inactive)
REMARK    1  A    between atoms: N2_3  and  C2_5 
REMARK    2  A    between atoms: C8_19  and  N6_20 
ROOT
HETATM    1  N1  UNL     1      36.948  52.959   7.965  1.00  0.00    -0.172 NA
HETATM    2  C1  UNL     1      36.933  51.822   8.202  1.00  0.00     0.179 C 
HETATM    3  N2  UNL     1      36.890  50.437   8.479  1.00  0.00    -0.305 N 
ATOM      4  H2  UNL     1      37.372  49.793   7.853  1.00  0.00     0.173 HD
ENDROOT
BRANCH   3   5
HETATM    5  C2  UNL     1      36.183  49.905   9.625  1.00  0.00     0.222 C 
HETATM    6  N3  UNL     1      35.945  48.510   9.587  1.00  0.00    -0.398 N 
HETATM    7  C3  UNL     1      36.600  47.755   8.552  1.00  0.00     0.143 C 
ATOM      8  H3  UNL     1      35.334  48.059  10.268  1.00  0.00     0.155 HD
HETATM    9  C4  UNL     1      35.763  46.474   8.381  1.00  0.00     0.251 C 
HETATM   10  N4  UNL     1      34.489  46.842   7.788  1.00  0.00    -0.072 N 
HETATM   11  C5  UNL     1      33.417  46.946   8.775  1.00  0.00     0.259 C 
ATOM     12  H42 UNL     1      34.572  47.701   7.245  1.00  0.00     0.277 HD
ATOM     13  H41 UNL     1      34.236  46.198   7.038  1.00  0.00     0.277 HD
HETATM   14  C6  UNL     1      32.760  48.323   8.684  1.00  0.00     0.259 C 
HETATM   15  N5  UNL     1      33.773  49.228   8.218  1.00  0.00    -0.071 N 
HETATM   16  C7  UNL     1      33.814  50.472   8.898  1.00  0.00     0.272 C 
ATOM     17  H52 UNL     1      34.688  48.779   8.245  1.00  0.00     0.277 HD
ATOM     18  H51 UNL     1      33.679  49.377   7.212  1.00  0.00     0.277 HD
HETATM   19  C8  UNL     1      34.920  50.716   9.848  1.00  0.00     0.292 C 
BRANCH  19  20
HETATM   20  N6  UNL     1      34.446  50.694  11.196  1.00  0.00     0.125 N 
HETATM   21  C9  UNL     1      33.206  51.489  11.333  1.00  0.00     0.302 C 
HETATM   22  C10 UNL     1      33.096  51.531  12.853  1.00  0.00     0.264 C 
HETATM   23  N7  UNL     1      34.455  51.344  13.336  1.00  0.00    -0.047 N 
HETATM   24  C11 UNL     1      35.280  51.440  12.115  1.00  0.00     0.503 C 
ATOM     25  H72 UNL     1      34.729  51.986  14.080  1.00  0.00     0.279 HD
ATOM     26  H71 UNL     1      34.597  50.488  13.873  1.00  0.00     0.279 HD
ENDBRANCH  19  20
ENDBRANCH   3   5
TORSDOF 2
ENDMDL
MODEL 2
REMARK VINA RESULT: -0.385348646      1.525      4.980
REMARK  2 active torsions:
REMARK  status: ('A' for Active; 'I' for Inactive)
REMARK    1  A    between atoms: N2_3  and  C2_5 
REMARK    2  A    between atoms: C8_19  and  N6_20 
ROOT
HETATM    1  N1  UNL     1      33.249  52.487  12.572  1.00  0.00    -0.172 NA
HETATM    2  C1  UNL     1      33.384  51.365  12.302  1.00  0.00     0.179 C 
HETATM    3  N2  UNL     1      33.571  50.001  11.987  1.00  0.00    -0.305 N 
ATOM      4  H2  UNL     1      33.088  49.295  12.541  1.00  0.00     0.173 HD
ENDROOT
BRANCH   3   5
HETATM    5  C2  UNL     1      34.429  49.574  10.902  1.00  0.00     0.222 C 
HETATM    6  N3  UNL     1      35.665  50.258  10.811  1.00  0.00    -0.398 N 
HETATM    7  C3  UNL     1      36.022  51.127  11.901  1.00  0.00     0.143 C 
ATOM      8  H3  UNL     1      36.278  50.138  10.005  1.00  0.00     0.155 HD
HETATM    9  C4  UNL     1      37.038  52.126  11.318  1.00  0.00     0.251 C 
HETATM   10  N4  UNL     1      36.335  53.000  10.395  1.00  0.00    -0.072 N 
HETATM   11  C5  UNL     1      36.510  52.604   9.000  1.00  0.00     0.259 C 
ATOM     12  H42 UNL     1      35.346  53.067  10.635  1.00  0.00     0.277 HD
ATOM     13  H41 UNL     1      36.604  53.974  10.536  1.00  0.00     0.277 HD
HETATM   14  C6  UNL     1      35.144  52.408   8.340  1.00  0.00     0.259 C 
HETATM   15  N5  UNL     1      34.243  52.004   9.383  1.00  0.00    -0.071 N 
HETATM   16  C7  UNL     1      33.374  50.938   9.033  1.00  0.00     0.272 C 
ATOM     17  H52 UNL     1      34.762  51.776  10.231  1.00  0.00     0.277 HD
ATOM     18  H51 UNL     1      33.705  52.805   9.716  1.00  0.00     0.277 HD
HETATM   19  C8  UNL     1      33.639  49.601   9.607  1.00  0.00     0.292 C 
BRANCH  19  20
HETATM   20  N6  UNL     1      34.134  48.709   8.606  1.00  0.00     0.125 N 
HETATM   21  C9  UNL     1      33.184  47.600   8.370  1.00  0.00     0.302 C 
HETATM   22  C10 UNL     1      34.060  46.691   7.514  1.00  0.00     0.264 C 
HETATM   23  N7  UNL     1      35.426  47.038   7.870  1.00  0.00    -0.047 N 
HETATM   24  C11 UNL     1      35.272  47.925   9.041  1.00  0.00     0.503 C 
ATOM     25  H72 UNL     1      36.036  46.236   8.029  1.00  0.00     0.279 HD
ATOM     26  H71 UNL     1      35.971  47.439   7.107  1.00  0.00     0.279 HD
ENDBRANCH  19  20
ENDBRANCH   3   5
TORSDOF 2
ENDMDL
MODEL 3
REMARK VINA RESULT: -0.343256695      1.080      1.184
REMARK  2 active torsions:
REMARK  status: ('A' for Active; 'I' for Inactive)
REMARK    1  A    between atoms: N2_3  and  C2_5 
REMARK    2  A    between atoms: C8_19  and  N6_20 
ROOT
HETATM    1  N1  UNL     1      38.594  53.046   9.214  1.00  0.00    -0.172 NA
HETATM    2  C1  UNL     1      37.731  52.299   9.000  1.00  0.00     0.179 C 
HETATM    3  N2  UNL     1      36.663  51.410   8.743  1.00  0.00    -0.305 N 
ATOM      4  H2  UNL     1      36.461  51.147   7.779  1.00  0.00     0.173 HD
ENDROOT
BRANCH   3   5
HETATM    5  C2  UNL     1      35.847  50.862   9.805  1.00  0.00     0.222 C 
HETATM    6  N3  UNL     1      35.758  49.450   9.825  1.00  0.00    -0.398 N 
HETATM    7  C3  UNL     1      36.635  48.719   8.948  1.00  0.00     0.143 C 
ATOM      8  H3  UNL     1      35.099  48.969  10.437  1.00  0.00     0.155 HD
HETATM    9  C4  UNL     1      35.965  47.348   8.741  1.00  0.00     0.251 C 
HETATM   10  N4  UNL     1      34.766  47.545   7.946  1.00  0.00    -0.072 N 
HETATM   11  C5  UNL     1      33.552  47.582   8.757  1.00  0.00     0.259 C 
ATOM     12  H42 UNL     1      34.844  48.381   7.366  1.00  0.00     0.277 HD
ATOM     13  H41 UNL     1      34.695  46.841   7.211  1.00  0.00     0.277 HD
HETATM   14  C6  UNL     1      32.782  48.873   8.481  1.00  0.00     0.259 C 
HETATM   15  N5  UNL     1      33.758  49.858   8.109  1.00  0.00    -0.071 N 
HETATM   16  C7  UNL     1      33.571  51.132   8.705  1.00  0.00     0.272 C 
ATOM     17  H52 UNL     1      34.699  49.513   8.299  1.00  0.00     0.277 HD
ATOM     18  H51 UNL     1      33.804  49.945   7.093  1.00  0.00     0.277 HD
HETATM   19  C8  UNL     1      34.490  51.541   9.788  1.00  0.00     0.292 C 
BRANCH  19  20
HETATM   20  N6  UNL     1      33.822  51.535  11.051  1.00  0.00     0.125 N 
HETATM   21  C9  UNL     1      34.607  52.269  12.069  1.00  0.00     0.302 C 
HETATM   22  C10 UNL     1      33.838  51.867  13.322  1.00  0.00     0.264 C 
HETATM   23  N7  UNL     1      33.201  50.604  12.987  1.00  0.00    -0.047 N 
HETATM   24  C11 UNL     1      33.805  50.236  11.691  1.00  0.00     0.503 C 
ATOM     25  H72 UNL     1      33.284  49.887  13.708  1.00  0.00     0.279 HD
ATOM     26  H71 UNL     1      32.181  50.635  12.983  1.00  0.00     0.279 HD
ENDBRANCH  19  20
ENDBRANCH   3   5
TORSDOF 2
ENDMDL
MODEL 4
REMARK VINA RESULT: -0.256148227      1.431      4.528
REMARK  2 active torsions:
REMARK  status: ('A' for Active; 'I' for Inactive)
REMARK    1  A    between atoms: N2_3  and  C2_5 
REMARK    2  A    between atoms: C8_19  and  N6_20 
ROOT
HETATM    1  N1  UNL     1      37.619  52.903  10.029  1.00  0.00    -0.172 NA
HETATM    2  C1  UNL     1      37.334  52.032   9.315  1.00  0.00     0.179 C 
HETATM    3  N2  UNL     1      36.968  50.988   8.436  1.00  0.00    -0.305 N 
ATOM      4  H2  UNL     1      37.536  50.820   7.606  1.00  0.00     0.173 HD
ENDROOT
BRANCH   3   5
HETATM    5  C2  UNL     1      35.813  50.150   8.677  1.00  0.00     0.222 C 
HETATM    6  N3  UNL     1      34.639  50.843   9.058  1.00  0.00    -0.398 N 
HETATM    7  C3  UNL     1      34.657  52.279   8.960  1.00  0.00     0.143 C 
ATOM      8  H3  UNL     1      33.814  50.344   9.390  1.00  0.00     0.155 HD
HETATM    9  C4  UNL     1      33.568  52.774   9.928  1.00  0.00     0.251 C 
HETATM   10  N4  UNL     1      34.016  52.515  11.285  1.00  0.00    -0.072 N 
HETATM   11  C5  UNL     1      33.425  51.306  11.853  1.00  0.00     0.259 C 
ATOM     12  H42 UNL     1      35.034  52.483  11.335  1.00  0.00     0.277 HD
ATOM     13  H41 UNL     1      33.848  53.322  11.886  1.00  0.00     0.277 HD
HETATM   14  C6  UNL     1      34.529  50.367  12.339  1.00  0.00     0.259 C 
HETATM   15  N5  UNL     1      35.672  50.618  11.507  1.00  0.00    -0.071 N 
HETATM   16  C7  UNL     1      36.348  49.452  11.062  1.00  0.00     0.272 C 
ATOM     17  H52 UNL     1      35.410  51.201  10.712  1.00  0.00     0.277 HD
ATOM     18  H51 UNL     1      36.323  51.246  11.979  1.00  0.00     0.277 HD
HETATM   19  C8  UNL     1      36.193  49.049   9.648  1.00  0.00     0.292 C 
BRANCH  19  20
HETATM   20  N6  UNL     1      35.386  47.875   9.541  1.00  0.00     0.125 N 
HETATM   21  C9  UNL     1      35.622  47.186   8.252  1.00  0.00     0.302 C 
HETATM   22  C10 UNL     1      34.472  46.186   8.282  1.00  0.00     0.264 C 
HETATM   23  N7  UNL     1      33.471  46.786   9.150  1.00  0.00    -0.047 N 
HETATM   24  C11 UNL     1      33.975  48.156   9.375  1.00  0.00     0.503 C 
ATOM     25  H72 UNL     1      32.519  46.743   8.786  1.00  0.00     0.279 HD
ATOM     26  H71 UNL     1      33.285  46.260  10.004  1.00  0.00     0.279 HD
ENDBRANCH  19  20
ENDBRANCH   3   5
TORSDOF 2
ENDMDL
MODEL 5
REMARK VINA RESULT: -0.201493649      1.490      4.869
REMARK  2 active torsions:
REMARK  status: ('A' for Active; 'I' for Inactive)
REMARK    1  A    between atoms: N2_3  and  C2_5 
REMARK    2  A    between atoms: C8_19  and  N6_20 
ROOT
HETATM    1  N1  UNL     1      35.565  53.107   8.574  1.00  0.00    -0.172 NA
HETATM    2  C1  UNL     1      34.661  52.377   8.573  1.00  0.00     0.179 C 
HETATM    3  N2  UNL     1      33.552  51.501   8.596  1.00  0.00    -0.305 N 
ATOM      4  H2  UNL     1      32.751  51.703   7.998  1.00  0.00     0.173 HD
ENDROOT
BRANCH   3   5
HETATM    5  C2  UNL     1      33.518  50.328   9.441  1.00  0.00     0.222 C 
HETATM    6  N3  UNL     1      33.631  50.584  10.829  1.00  0.00    -0.398 N 
HETATM    7  C3  UNL     1      33.553  51.957  11.256  1.00  0.00     0.143 C 
ATOM      8  H3  UNL     1      33.763  49.827  11.498  1.00  0.00     0.155 HD
HETATM    9  C4  UNL     1      34.255  52.005  12.625  1.00  0.00     0.251 C 
HETATM   10  N4  UNL     1      35.676  51.790  12.414  1.00  0.00    -0.072 N 
HETATM   11  C5  UNL     1      36.084  50.414  12.688  1.00  0.00     0.259 C 
ATOM     12  H42 UNL     1      35.953  52.073  11.474  1.00  0.00     0.277 HD
ATOM     13  H41 UNL     1      36.230  52.451  12.956  1.00  0.00     0.277 HD
HETATM   14  C6  UNL     1      36.797  49.831  11.468  1.00  0.00     0.259 C 
HETATM   15  N5  UNL     1      36.247  50.495  10.319  1.00  0.00    -0.071 N 
HETATM   16  C7  UNL     1      35.956  49.640   9.225  1.00  0.00     0.272 C 
ATOM     17  H52 UNL     1      35.419  51.029  10.582  1.00  0.00     0.277 HD
ATOM     18  H51 UNL     1      36.860  51.254  10.022  1.00  0.00     0.277 HD
HETATM   19  C8  UNL     1      34.540  49.325   8.939  1.00  0.00     0.292 C 
BRANCH  19  20
HETATM   20  N6  UNL     1      34.242  47.970   9.281  1.00  0.00     0.125 N 
HETATM   21  C9  UNL     1      35.271  47.051   8.746  1.00  0.00     0.302 C 
HETATM   22  C10 UNL     1      34.576  45.717   8.996  1.00  0.00     0.264 C 
HETATM   23  N7  UNL     1      33.157  46.030   9.032  1.00  0.00    -0.047 N 
HETATM   24  C11 UNL     1      33.093  47.435   8.581  1.00  0.00     0.503 C 
ATOM     25  H72 UNL     1      32.571  45.390   8.497  1.00  0.00     0.279 HD
ATOM     26  H71 UNL     1      32.711  45.857   9.933  1.00  0.00     0.279 HD
ENDBRANCH  19  20
ENDBRANCH   3   5
TORSDOF 2
ENDMDL
