MODEL 1
REMARK VINA RESULT: -6.604106793      0.000      0.000
REMARK  4 active torsions:
REMARK  status: ('A' for Active; 'I' for Inactive)
REMARK    1  A    between atoms: O1_2  and  C2_3 
REMARK    2  A    between atoms: C3_6  and  N2_7 
REMARK    3  A    between atoms: C5_14  and  C6_15 
REMARK       I    between atoms: C6_15  and  N4_17 
REMARK    4  A    between atoms: N4_17  and  C7_19 
ROOT
HETATM    1  C2  UNL     1      34.902  51.770  10.253  1.00  0.00     0.178 A 
HETATM    2  N1  UNL     1      35.777  52.773  10.293  1.00  0.00    -0.170 N 
ATOM      3  H1  UNL     1      35.546  53.609  10.830  1.00  0.00     0.186 HD
HETATM    4  C3  UNL     1      36.955  52.721   9.648  1.00  0.00     0.680 A 
HETATM    5  N3  UNL     1      37.302  51.643   8.930  1.00  0.00    -0.155 N 
ATOM      6  H3  UNL     1      38.200  51.616   8.447  1.00  0.00     0.187 HD
HETATM    7  C4  UNL     1      36.464  50.603   8.853  1.00  0.00     0.279 A 
HETATM    8  O2  UNL     1      36.765  49.564   8.176  1.00  0.00    -0.266 OA
HETATM    9  C5  UNL     1      35.251  50.639   9.507  1.00  0.00     0.152 A 
ENDROOT
BRANCH   9  10
HETATM   10  C6  UNL     1      34.349  49.502   9.415  1.00  0.00     0.279 C 
HETATM   11  O3  UNL     1      33.328  49.593   8.692  1.00  0.00    -0.266 OA
HETATM   12  N4  UNL     1      34.632  48.335  10.127  1.00  0.00    -0.153 N 
ATOM     13  H4  UNL     1      34.961  48.433  11.087  1.00  0.00     0.187 HD
BRANCH  12  14
HETATM   14  C7  UNL     1      34.505  47.138   9.654  1.00  0.00     0.710 A 
HETATM   15  N5  UNL     1      33.807  46.092  10.129  1.00  0.00    -0.117 N 
HETATM   16  N6  UNL     1      33.952  45.044   9.330  1.00  0.00     0.006 NA
ATOM     17  H5  UNL     1      33.246  46.103  10.980  1.00  0.00     0.202 HD
HETATM   18  N7  UNL     1      34.750  45.429   8.336  1.00  0.00     0.006 NA
HETATM   19  N8  UNL     1      35.090  46.695   8.527  1.00  0.00    -0.117 N 
ATOM     20  H8  UNL     1      35.695  47.245   7.918  1.00  0.00     0.202 HD
ENDBRANCH  12  14
ENDBRANCH   9  10
BRANCH   1  21
HETATM   21  O1  UNL     1      33.679  51.752  10.887  1.00  0.00    -0.340 OA
HETATM   22  C1  UNL     1      33.493  51.610  12.264  1.00  0.00     0.211 C 
ENDBRANCH   1  21
BRANCH   4  23
HETATM   23  N2  UNL     1      37.782  53.704   9.704  1.00  0.00    -0.234 N 
ATOM     24  H22 UNL     1      38.487  53.696  10.440  1.00  0.00     0.174 HD
ATOM     25  H21 UNL     1      37.733  54.469   9.031  1.00  0.00     0.174 HD
ENDBRANCH   4  23
TORSDOF 4
ENDMDL
MODEL 2
REMARK VINA RESULT: -6.463021841      1.077      2.560
REMARK  4 active torsions:
REMARK  status: ('A' for Active; 'I' for Inactive)
REMARK    1  A    between atoms: O1_2  and  C2_3 
REMARK    2  A    between atoms: C3_6  and  N2_7 
REMARK    3  A    between atoms: C5_14  and  C6_15 
REMARK       I    between atoms: C6_15  and  N4_17 
REMARK    4  A    between atoms: N4_17  and  C7_19 
ROOT
HETATM    1  C2  UNL     1      36.497  50.666   8.842  1.00  0.00     0.178 A 
HETATM    2  N1  UNL     1      37.500  51.541   8.851  1.00  0.00    -0.170 N 
ATOM      3  H1  UNL     1      38.345  51.329   8.320  1.00  0.00     0.186 HD
HETATM    4  C3  UNL     1      37.436  52.696   9.534  1.00  0.00     0.680 A 
HETATM    5  N3  UNL     1      36.346  53.019  10.245  1.00  0.00    -0.155 N 
ATOM      6  H3  UNL     1      36.311  53.900  10.758  1.00  0.00     0.187 HD
HETATM    7  C4  UNL     1      35.305  52.179  10.275  1.00  0.00     0.279 A 
HETATM    8  O2  UNL     1      34.254  52.457  10.943  1.00  0.00    -0.266 OA
HETATM    9  C5  UNL     1      35.353  50.990   9.580  1.00  0.00     0.152 A 
ENDROOT
BRANCH   9  10
HETATM   10  C6  UNL     1      34.215  50.085   9.621  1.00  0.00     0.279 C 
HETATM   11  O3  UNL     1      33.118  50.467   9.148  1.00  0.00    -0.266 OA
HETATM   12  N4  UNL     1      34.359  48.816  10.183  1.00  0.00    -0.153 N 
ATOM     13  H4  UNL     1      34.888  48.738  11.051  1.00  0.00     0.187 HD
BRANCH  12  14
HETATM   14  C7  UNL     1      33.869  47.731   9.680  1.00  0.00     0.710 A 
HETATM   15  N5  UNL     1      33.972  46.459  10.103  1.00  0.00    -0.117 N 
HETATM   16  N6  UNL     1      33.313  45.649   9.287  1.00  0.00     0.006 NA
ATOM     17  H5  UNL     1      34.484  46.160  10.934  1.00  0.00     0.202 HD
HETATM   18  N7  UNL     1      32.784  46.414   8.335  1.00  0.00     0.006 NA
HETATM   19  N8  UNL     1      33.117  47.676   8.566  1.00  0.00    -0.117 N 
ATOM     20  H8  UNL     1      32.847  48.475   7.992  1.00  0.00     0.202 HD
ENDBRANCH  12  14
ENDBRANCH   9  10
BRANCH   1  21
HETATM   21  O1  UNL     1      36.491  49.465   8.167  1.00  0.00    -0.340 OA
HETATM   22  C1  UNL     1      37.208  48.329   8.548  1.00  0.00     0.211 C 
ENDBRANCH   1  21
BRANCH   4  23
HETATM   23  N2  UNL     1      38.420  53.525   9.524  1.00  0.00    -0.234 N 
ATOM     24  H22 UNL     1      39.063  53.497   8.734  1.00  0.00     0.174 HD
ATOM     25  H21 UNL     1      38.553  54.190  10.287  1.00  0.00     0.174 HD
ENDBRANCH   4  23
TORSDOF 4
ENDMDL
MODEL 3
REMARK VINA RESULT: -5.910092279      0.756      2.450
REMARK  4 active torsions:
REMARK  status: ('A' for Active; 'I' for Inactive)
REMARK    1  A    between atoms: O1_2  and  C2_3 
REMARK    2  A    between atoms: C3_6  and  N2_7 
REMARK    3  A    between atoms: C5_14  and  C6_15 
REMARK       I    between atoms: C6_15  and  N4_17 
REMARK    4  A    between atoms: N4_17  and  C7_19 
ROOT
HETATM    1  C2  UNL     1      36.122  50.497   8.915  1.00  0.00     0.178 A 
HETATM    2  N1  UNL     1      36.805  51.622   9.118  1.00  0.00    -0.170 N 
ATOM      3  H1  UNL     1      37.757  51.694   8.759  1.00  0.00     0.186 HD
HETATM    4  C3  UNL     1      36.280  52.667   9.780  1.00  0.00     0.680 A 
HETATM    5  N3  UNL     1      35.033  52.619  10.269  1.00  0.00    -0.155 N 
ATOM      6  H3  UNL     1      34.646  53.421  10.769  1.00  0.00     0.187 HD
HETATM    7  C4  UNL     1      34.297  51.515  10.096  1.00  0.00     0.279 A 
HETATM    8  O2  UNL     1      33.107  51.438  10.551  1.00  0.00    -0.266 OA
HETATM    9  C5  UNL     1      34.819  50.433   9.420  1.00  0.00     0.152 A 
ENDROOT
BRANCH   9  10
HETATM   10  C6  UNL     1      34.009  49.238   9.239  1.00  0.00     0.279 C 
HETATM   11  O3  UNL     1      33.084  49.254   8.393  1.00  0.00    -0.266 OA
HETATM   12  N4  UNL     1      34.273  48.101  10.004  1.00  0.00    -0.153 N 
ATOM     13  H4  UNL     1      34.472  48.232  10.996  1.00  0.00     0.187 HD
BRANCH  12  14
HETATM   14  C7  UNL     1      34.283  46.893   9.544  1.00  0.00     0.710 A 
HETATM   15  N5  UNL     1      33.652  45.793   9.991  1.00  0.00    -0.117 N 
HETATM   16  N6  UNL     1      33.939  44.754   9.219  1.00  0.00     0.006 NA
ATOM     17  H5  UNL     1      33.040  45.763  10.806  1.00  0.00     0.202 HD
HETATM   18  N7  UNL     1      34.760  45.199   8.270  1.00  0.00     0.006 NA
HETATM   19  N8  UNL     1      34.974  46.493   8.461  1.00  0.00    -0.117 N 
ATOM     20  H8  UNL     1      35.565  47.088   7.881  1.00  0.00     0.202 HD
ENDBRANCH  12  14
ENDBRANCH   9  10
BRANCH   1  21
HETATM   21  O1  UNL     1      36.593  49.388   8.247  1.00  0.00    -0.340 OA
HETATM   22  C1  UNL     1      37.510  48.471   8.765  1.00  0.00     0.211 C 
ENDBRANCH   1  21
BRANCH   4  23
HETATM   23  N2  UNL     1      36.961  53.743   9.962  1.00  0.00    -0.234 N 
ATOM     24  H22 UNL     1      37.542  53.808  10.798  1.00  0.00     0.174 HD
ATOM     25  H21 UNL     1      36.920  54.509   9.290  1.00  0.00     0.174 HD
ENDBRANCH   4  23
TORSDOF 4
ENDMDL
MODEL 4
REMARK VINA RESULT: -5.425661967      1.896      5.516
REMARK  4 active torsions:
REMARK  status: ('A' for Active; 'I' for Inactive)
REMARK    1  A    between atoms: O1_2  and  C2_3 
REMARK    2  A    between atoms: C3_6  and  N2_7 
REMARK    3  A    between atoms: C5_14  and  C6_15 
REMARK       I    between atoms: C6_15  and  N4_17 
REMARK    4  A    between atoms: N4_17  and  C7_19 
ROOT
HETATM    1  C2  UNL     1      34.099  47.714   8.967  1.00  0.00     0.178 A 
HETATM    2  N1  UNL     1      33.844  46.461   8.592  1.00  0.00    -0.170 N 
ATOM      3  H1  UNL     1      32.878  46.134   8.590  1.00  0.00     0.186 HD
HETATM    4  C3  UNL     1      34.818  45.615   8.217  1.00  0.00     0.680 A 
HETATM    5  N3  UNL     1      36.102  46.001   8.204  1.00  0.00    -0.155 N 
ATOM      6  H3  UNL     1      36.831  45.348   7.916  1.00  0.00     0.187 HD
HETATM    7  C4  UNL     1      36.420  47.248   8.570  1.00  0.00     0.279 A 
HETATM    8  O2  UNL     1      37.633  47.645   8.570  1.00  0.00    -0.266 OA
HETATM    9  C5  UNL     1      35.434  48.130   8.958  1.00  0.00     0.152 A 
ENDROOT
BRANCH   9  10
HETATM   10  C6  UNL     1      35.794  49.483   9.354  1.00  0.00     0.279 C 
HETATM   11  O3  UNL     1      36.101  50.314   8.466  1.00  0.00    -0.266 OA
HETATM   12  N4  UNL     1      35.791  49.832  10.705  1.00  0.00    -0.153 N 
ATOM     13  H4  UNL     1      36.186  49.166  11.369  1.00  0.00     0.187 HD
BRANCH  12  14
HETATM   14  C7  UNL     1      35.323  50.942  11.175  1.00  0.00     0.710 A 
HETATM   15  N5  UNL     1      35.836  52.184  11.129  1.00  0.00    -0.117 N 
HETATM   16  N6  UNL     1      35.025  53.037  11.740  1.00  0.00     0.006 NA
ATOM     17  H5  UNL     1      36.720  52.434  10.687  1.00  0.00     0.202 HD
HETATM   18  N7  UNL     1      33.986  52.330  12.178  1.00  0.00     0.006 NA
HETATM   19  N8  UNL     1      34.160  51.060  11.840  1.00  0.00    -0.117 N 
ATOM     20  H8  UNL     1      33.516  50.298  12.050  1.00  0.00     0.202 HD
ENDBRANCH  12  14
ENDBRANCH   9  10
BRANCH   1  21
HETATM   21  O1  UNL     1      33.155  48.635   9.363  1.00  0.00    -0.340 OA
HETATM   22  C1  UNL     1      32.705  49.704   8.584  1.00  0.00     0.211 C 
ENDBRANCH   1  21
BRANCH   4  23
HETATM   23  N2  UNL     1      34.544  44.410   7.859  1.00  0.00    -0.234 N 
ATOM     24  H22 UNL     1      35.291  43.717   7.896  1.00  0.00     0.174 HD
ATOM     25  H21 UNL     1      33.606  44.156   7.547  1.00  0.00     0.174 HD
ENDBRANCH   4  23
TORSDOF 4
ENDMDL
MODEL 5
REMARK VINA RESULT: -4.951069668      2.076      5.780
REMARK  4 active torsions:
REMARK  status: ('A' for Active; 'I' for Inactive)
REMARK    1  A    between atoms: O1_2  and  C2_3 
REMARK    2  A    between atoms: C3_6  and  N2_7 
REMARK    3  A    between atoms: C5_14  and  C6_15 
REMARK       I    between atoms: C6_15  and  N4_17 
REMARK    4  A    between atoms: N4_17  and  C7_19 
ROOT
HETATM    1  C2  UNL     1      35.577  47.496   8.882  1.00  0.00     0.178 A 
HETATM    2  N1  UNL     1      35.779  46.212   8.591  1.00  0.00    -0.170 N 
ATOM      3  H1  UNL     1      36.719  45.827   8.685  1.00  0.00     0.186 HD
HETATM    4  C3  UNL     1      34.786  45.408   8.176  1.00  0.00     0.680 A 
HETATM    5  N3  UNL     1      33.535  45.870   8.037  1.00  0.00    -0.155 N 
ATOM      6  H3  UNL     1      32.790  45.248   7.723  1.00  0.00     0.187 HD
HETATM    7  C4  UNL     1      33.270  47.152   8.315  1.00  0.00     0.279 A 
HETATM    8  O2  UNL     1      32.090  47.622   8.191  1.00  0.00    -0.266 OA
HETATM    9  C5  UNL     1      34.277  47.992   8.741  1.00  0.00     0.152 A 
ENDROOT
BRANCH   9  10
HETATM   10  C6  UNL     1      33.975  49.383   9.039  1.00  0.00     0.279 C 
HETATM   11  O3  UNL     1      32.924  49.889   8.579  1.00  0.00    -0.266 OA
HETATM   12  N4  UNL     1      34.854  50.128   9.827  1.00  0.00    -0.153 N 
ATOM     13  H4  UNL     1      35.853  50.025   9.650  1.00  0.00     0.187 HD
BRANCH  12  14
HETATM   14  C7  UNL     1      34.491  50.939  10.765  1.00  0.00     0.710 A 
HETATM   15  N5  UNL     1      33.269  51.404  11.080  1.00  0.00    -0.117 N 
HETATM   16  N6  UNL     1      33.343  52.222  12.121  1.00  0.00     0.006 NA
ATOM     17  H5  UNL     1      32.408  51.162  10.589  1.00  0.00     0.202 HD
HETATM   18  N7  UNL     1      34.626  52.276  12.473  1.00  0.00     0.006 NA
HETATM   19  N8  UNL     1      35.327  51.503  11.655  1.00  0.00    -0.117 N 
ATOM     20  H8  UNL     1      36.335  51.359  11.695  1.00  0.00     0.202 HD
ENDBRANCH  12  14
ENDBRANCH   9  10
BRANCH   1  21
HETATM   21  O1  UNL     1      36.544  48.378   9.311  1.00  0.00    -0.340 OA
HETATM   22  C1  UNL     1      37.735  48.652   8.634  1.00  0.00     0.211 C 
ENDBRANCH   1  21
BRANCH   4  23
HETATM   23  N2  UNL     1      35.009  44.171   7.902  1.00  0.00    -0.234 N 
ATOM     24  H22 UNL     1      35.951  43.810   8.045  1.00  0.00     0.174 HD
ATOM     25  H21 UNL     1      34.263  43.569   7.552  1.00  0.00     0.174 HD
ENDBRANCH   4  23
TORSDOF 4
ENDMDL
