MODEL 1
REMARK VINA RESULT: -6.482814194      0.000      0.000
REMARK  7 active torsions:
REMARK  status: ('A' for Active; 'I' for Inactive)
REMARK    1  A    between atoms: C2_2  and  C5_5 
REMARK    2  A    between atoms: C5_5  and  N1_6 
REMARK    3  A    between atoms: N1_6  and  C6_9 
REMARK    4  A    between atoms: C6_9  and  C7_10 
REMARK    5  A    between atoms: C7_10  and  O1_11 
REMARK    6  A    between atoms: C7_10  and  C8_13 
REMARK    7  A    between atoms: N2_14  and  C9_16 
ROOT
HETATM    1  C6  UNL     1      50.364  26.449  15.507  1.00  0.00     0.270 C 
ENDROOT
BRANCH   1   2
HETATM    2  N1  UNL     1      50.203  25.221  14.769  1.00  0.00    -0.063 N 
ATOM      3  H12 UNL     1      49.976  25.418  13.794  1.00  0.00     0.278 HD
ATOM      4  H11 UNL     1      49.348  24.743  15.052  1.00  0.00     0.278 HD
BRANCH   2   5
HETATM    5  C5  UNL     1      51.336  24.328  14.855  1.00  0.00     0.132 A 
HETATM    6  C14 UNL     1      52.573  24.610  14.086  1.00  0.00     0.042 A 
HETATM    7  C15 UNL     1      52.524  24.825  15.559  1.00  0.00     0.042 A 
BRANCH   5   8
HETATM    8  C2  UNL     1      50.903  22.875  14.907  1.00  0.00    -0.018 C 
HETATM    9  C1  UNL     1      50.941  22.331  16.337  1.00  0.00     0.017 C 
HETATM   10  C3  UNL     1      51.675  21.957  14.023  1.00  0.00     0.017 C 
HETATM   11  C4  UNL     1      49.405  22.896  14.556  1.00  0.00     0.017 C 
ENDBRANCH   5   8
ENDBRANCH   2   5
ENDBRANCH   1   2
BRANCH   1  12
HETATM   12  C7  UNL     1      49.003  27.170  15.360  1.00  0.00     0.181 C 
BRANCH  12  13
HETATM   13  O1  UNL     1      48.356  27.121  16.565  1.00  0.00    -0.389 OA
ATOM     14  H1  UNL     1      48.305  28.003  16.914  1.00  0.00     0.210 HD
ENDBRANCH  12  13
BRANCH  12  15
HETATM   15  C8  UNL     1      49.199  28.487  14.727  1.00  0.00     0.089 C 
HETATM   16  N2  UNL     1      49.360  28.702  13.398  1.00  0.00    -0.395 N 
ATOM     17  H2  UNL     1      50.260  29.091  13.113  1.00  0.00     0.159 HD
BRANCH  16  18
HETATM   18  C9  UNL     1      48.468  28.463  12.399  1.00  0.00     0.080 C 
HETATM   19  C10 UNL     1      48.568  29.200  11.081  1.00  0.00     0.025 C 
HETATM   20  C11 UNL     1      47.202  28.892  10.437  1.00  0.00     0.002 C 
HETATM   21  C12 UNL     1      46.350  28.264  11.487  1.00  0.00     0.002 C 
HETATM   22  C13 UNL     1      46.991  28.760  12.784  1.00  0.00     0.025 C 
ENDBRANCH  16  18
ENDBRANCH  12  15
ENDBRANCH   1  12
TORSDOF 7
ENDMDL
MODEL 2
REMARK VINA RESULT: -6.358756953      1.043      1.564
REMARK  7 active torsions:
REMARK  status: ('A' for Active; 'I' for Inactive)
REMARK    1  A    between atoms: C2_2  and  C5_5 
REMARK    2  A    between atoms: C5_5  and  N1_6 
REMARK    3  A    between atoms: N1_6  and  C6_9 
REMARK    4  A    between atoms: C6_9  and  C7_10 
REMARK    5  A    between atoms: C7_10  and  O1_11 
REMARK    6  A    between atoms: C7_10  and  C8_13 
REMARK    7  A    between atoms: N2_14  and  C9_16 
ROOT
HETATM    1  C6  UNL     1      49.377  25.560  16.012  1.00  0.00     0.270 C 
ENDROOT
BRANCH   1   2
HETATM    2  N1  UNL     1      50.062  25.340  14.763  1.00  0.00    -0.063 N 
ATOM      3  H12 UNL     1      50.366  26.227  14.362  1.00  0.00     0.278 HD
ATOM      4  H11 UNL     1      49.405  25.042  14.042  1.00  0.00     0.278 HD
BRANCH   2   5
HETATM    5  C5  UNL     1      51.170  24.416  14.851  1.00  0.00     0.132 A 
HETATM    6  C14 UNL     1      52.437  24.697  14.133  1.00  0.00     0.042 A 
HETATM    7  C15 UNL     1      52.346  24.858  15.611  1.00  0.00     0.042 A 
BRANCH   5   8
HETATM    8  C2  UNL     1      50.702  22.974  14.835  1.00  0.00    -0.018 C 
HETATM    9  C1  UNL     1      51.617  22.099  13.974  1.00  0.00     0.017 C 
HETATM   10  C3  UNL     1      49.293  22.775  14.394  1.00  0.00     0.017 C 
HETATM   11  C4  UNL     1      50.941  22.464  16.267  1.00  0.00     0.017 C 
ENDBRANCH   5   8
ENDBRANCH   2   5
ENDBRANCH   1   2
BRANCH   1  12
HETATM   12  C7  UNL     1      49.120  27.085  16.050  1.00  0.00     0.181 C 
BRANCH  12  13
HETATM   13  O1  UNL     1      50.194  27.717  15.485  1.00  0.00    -0.389 OA
ATOM     14  H1  UNL     1      50.973  27.478  15.971  1.00  0.00     0.210 HD
ENDBRANCH  12  13
BRANCH  12  15
HETATM   15  C8  UNL     1      47.777  27.381  15.519  1.00  0.00     0.089 C 
HETATM   16  N2  UNL     1      47.496  28.308  14.571  1.00  0.00    -0.395 N 
ATOM     17  H2  UNL     1      46.904  29.085  14.866  1.00  0.00     0.159 HD
BRANCH  16  18
HETATM   18  C9  UNL     1      47.907  28.329  13.274  1.00  0.00     0.080 C 
HETATM   19  C10 UNL     1      48.837  29.414  12.776  1.00  0.00     0.025 C 
HETATM   20  C11 UNL     1      48.731  29.250  11.247  1.00  0.00     0.002 C 
HETATM   21  C12 UNL     1      47.600  28.318  10.980  1.00  0.00     0.002 C 
HETATM   22  C13 UNL     1      46.748  28.448  12.244  1.00  0.00     0.025 C 
ENDBRANCH  16  18
ENDBRANCH  12  15
ENDBRANCH   1  12
TORSDOF 7
ENDMDL
MODEL 3
REMARK VINA RESULT: -6.235624653      2.218      6.816
REMARK  7 active torsions:
REMARK  status: ('A' for Active; 'I' for Inactive)
REMARK    1  A    between atoms: C2_2  and  C5_5 
REMARK    2  A    between atoms: C5_5  and  N1_6 
REMARK    3  A    between atoms: N1_6  and  C6_9 
REMARK    4  A    between atoms: C6_9  and  C7_10 
REMARK    5  A    between atoms: C7_10  and  O1_11 
REMARK    6  A    between atoms: C7_10  and  C8_13 
REMARK    7  A    between atoms: N2_14  and  C9_16 
ROOT
HETATM    1  C6  UNL     1      50.263  25.000  15.508  1.00  0.00     0.270 C 
ENDROOT
BRANCH   1   2
HETATM    2  N1  UNL     1      48.991  25.443  14.997  1.00  0.00    -0.063 N 
ATOM      3  H12 UNL     1      48.264  24.757  15.201  1.00  0.00     0.278 HD
ATOM      4  H11 UNL     1      48.982  25.406  13.978  1.00  0.00     0.278 HD
BRANCH   2   5
HETATM    5  C5  UNL     1      48.593  26.754  15.458  1.00  0.00     0.132 A 
HETATM    6  C14 UNL     1      47.339  26.927  16.230  1.00  0.00     0.042 A 
HETATM    7  C15 UNL     1      48.665  27.001  16.903  1.00  0.00     0.042 A 
BRANCH   5   8
HETATM    8  C2  UNL     1      48.894  27.827  14.429  1.00  0.00    -0.018 C 
HETATM    9  C1  UNL     1      48.843  27.267  13.006  1.00  0.00     0.017 C 
HETATM   10  C3  UNL     1      50.190  28.536  14.621  1.00  0.00     0.017 C 
HETATM   11  C4  UNL     1      47.692  28.786  14.495  1.00  0.00     0.017 C 
ENDBRANCH   5   8
ENDBRANCH   2   5
ENDBRANCH   1   2
BRANCH   1  12
HETATM   12  C7  UNL     1      50.384  23.534  15.027  1.00  0.00     0.181 C 
BRANCH  12  13
HETATM   13  O1  UNL     1      49.253  23.216  14.326  1.00  0.00    -0.389 OA
ATOM     14  H1  UNL     1      49.092  22.285  14.424  1.00  0.00     0.210 HD
ENDBRANCH  12  13
BRANCH  12  15
HETATM   15  C8  UNL     1      51.691  23.326  14.376  1.00  0.00     0.089 C 
HETATM   16  N2  UNL     1      52.258  22.120  14.126  1.00  0.00    -0.395 N 
ATOM     17  H2  UNL     1      53.135  21.929  14.612  1.00  0.00     0.159 HD
BRANCH  16  18
HETATM   18  C9  UNL     1      51.801  21.135  13.306  1.00  0.00     0.080 C 
HETATM   19  C10 UNL     1      51.781  19.694  13.766  1.00  0.00     0.025 C 
HETATM   20  C11 UNL     1      51.548  18.938  12.444  1.00  0.00     0.002 C 
HETATM   21  C12 UNL     1      51.718  19.922  11.337  1.00  0.00     0.002 C 
HETATM   22  C13 UNL     1      52.594  21.002  11.975  1.00  0.00     0.025 C 
ENDBRANCH  16  18
ENDBRANCH  12  15
ENDBRANCH   1  12
TORSDOF 7
ENDMDL
MODEL 4
REMARK VINA RESULT: -6.183153727      2.187      6.838
REMARK  7 active torsions:
REMARK  status: ('A' for Active; 'I' for Inactive)
REMARK    1  A    between atoms: C2_2  and  C5_5 
REMARK    2  A    between atoms: C5_5  and  N1_6 
REMARK    3  A    between atoms: N1_6  and  C6_9 
REMARK    4  A    between atoms: C6_9  and  C7_10 
REMARK    5  A    between atoms: C7_10  and  O1_11 
REMARK    6  A    between atoms: C7_10  and  C8_13 
REMARK    7  A    between atoms: N2_14  and  C9_16 
ROOT
HETATM    1  C6  UNL     1      50.547  25.214  15.184  1.00  0.00     0.270 C 
ENDROOT
BRANCH   1   2
HETATM    2  N1  UNL     1      49.210  25.532  14.748  1.00  0.00    -0.063 N 
ATOM      3  H12 UNL     1      48.569  24.774  14.980  1.00  0.00     0.278 HD
ATOM      4  H11 UNL     1      49.150  25.504  13.730  1.00  0.00     0.278 HD
BRANCH   2   5
HETATM    5  C5  UNL     1      48.709  26.792  15.250  1.00  0.00     0.132 A 
HETATM    6  C14 UNL     1      47.549  26.821  16.174  1.00  0.00     0.042 A 
HETATM    7  C15 UNL     1      48.929  27.076  16.673  1.00  0.00     0.042 A 
BRANCH   5   8
HETATM    8  C2  UNL     1      48.738  27.872  14.186  1.00  0.00    -0.018 C 
HETATM    9  C1  UNL     1      47.618  28.893  14.396  1.00  0.00     0.017 C 
HETATM   10  C3  UNL     1      48.680  27.375  12.783  1.00  0.00     0.017 C 
HETATM   11  C4  UNL     1      50.024  28.670  14.467  1.00  0.00     0.017 C 
ENDBRANCH   5   8
ENDBRANCH   2   5
ENDBRANCH   1   2
BRANCH   1  12
HETATM   12  C7  UNL     1      50.644  23.677  15.044  1.00  0.00     0.181 C 
BRANCH  12  13
HETATM   13  O1  UNL     1      49.506  23.226  14.433  1.00  0.00    -0.389 OA
ATOM     14  H1  UNL     1      48.774  23.747  14.742  1.00  0.00     0.210 HD
ENDBRANCH  12  13
BRANCH  12  15
HETATM   15  C8  UNL     1      51.945  23.307  14.455  1.00  0.00     0.089 C 
HETATM   16  N2  UNL     1      52.379  22.041  14.244  1.00  0.00    -0.395 N 
ATOM     17  H2  UNL     1      53.205  21.756  14.772  1.00  0.00     0.159 HD
BRANCH  16  18
HETATM   18  C9  UNL     1      51.846  21.102  13.414  1.00  0.00     0.080 C 
HETATM   19  C10 UNL     1      51.805  19.645  13.821  1.00  0.00     0.025 C 
HETATM   20  C11 UNL     1      51.477  18.949  12.487  1.00  0.00     0.002 C 
HETATM   21  C12 UNL     1      51.617  19.969  11.409  1.00  0.00     0.002 C 
HETATM   22  C13 UNL     1      52.560  20.997  12.037  1.00  0.00     0.025 C 
ENDBRANCH  16  18
ENDBRANCH  12  15
ENDBRANCH   1  12
TORSDOF 7
ENDMDL
MODEL 5
REMARK VINA RESULT: -5.924463403      2.177      6.657
REMARK  7 active torsions:
REMARK  status: ('A' for Active; 'I' for Inactive)
REMARK    1  A    between atoms: C2_2  and  C5_5 
REMARK    2  A    between atoms: C5_5  and  N1_6 
REMARK    3  A    between atoms: N1_6  and  C6_9 
REMARK    4  A    between atoms: C6_9  and  C7_10 
REMARK    5  A    between atoms: C7_10  and  O1_11 
REMARK    6  A    between atoms: C7_10  and  C8_13 
REMARK    7  A    between atoms: N2_14  and  C9_16 
ROOT
HETATM    1  C6  UNL     1      49.634  24.726  15.665  1.00  0.00     0.270 C 
ENDROOT
BRANCH   1   2
HETATM    2  N1  UNL     1      49.375  25.598  14.548  1.00  0.00    -0.063 N 
ATOM      3  H12 UNL     1      48.427  25.459  14.198  1.00  0.00     0.278 HD
ATOM      4  H11 UNL     1      49.906  25.300  13.730  1.00  0.00     0.278 HD
BRANCH   2   5
HETATM    5  C5  UNL     1      49.613  26.998  14.823  1.00  0.00     0.132 A 
HETATM    6  C14 UNL     1      49.936  27.445  16.200  1.00  0.00     0.042 A 
HETATM    7  C15 UNL     1      50.990  27.387  15.149  1.00  0.00     0.042 A 
BRANCH   5   8
HETATM    8  C2  UNL     1      48.676  27.893  14.035  1.00  0.00    -0.018 C 
HETATM    9  C1  UNL     1      47.414  28.223  14.836  1.00  0.00     0.017 C 
HETATM   10  C3  UNL     1      48.274  27.364  12.702  1.00  0.00     0.017 C 
HETATM   11  C4  UNL     1      49.412  29.240  13.928  1.00  0.00     0.017 C 
ENDBRANCH   5   8
ENDBRANCH   2   5
ENDBRANCH   1   2
BRANCH   1  12
HETATM   12  C7  UNL     1      49.947  23.355  15.021  1.00  0.00     0.181 C 
BRANCH  12  13
HETATM   13  O1  UNL     1      48.878  22.985  14.251  1.00  0.00    -0.389 OA
ATOM     14  H1  UNL     1      48.993  23.351  13.383  1.00  0.00     0.210 HD
ENDBRANCH  12  13
BRANCH  12  15
HETATM   15  C8  UNL     1      51.281  23.389  14.392  1.00  0.00     0.089 C 
HETATM   16  N2  UNL     1      52.030  22.302  14.084  1.00  0.00    -0.395 N 
ATOM     17  H2  UNL     1      52.918  22.214  14.580  1.00  0.00     0.159 HD
BRANCH  16  18
HETATM   18  C9  UNL     1      51.742  21.314  13.194  1.00  0.00     0.080 C 
HETATM   19  C10 UNL     1      51.704  19.866  13.633  1.00  0.00     0.025 C 
HETATM   20  C11 UNL     1      51.708  19.122  12.283  1.00  0.00     0.002 C 
HETATM   21  C12 UNL     1      52.011  20.127  11.225  1.00  0.00     0.002 C 
HETATM   22  C13 UNL     1      52.737  21.227  12.001  1.00  0.00     0.025 C 
ENDBRANCH  16  18
ENDBRANCH  12  15
ENDBRANCH   1  12
TORSDOF 7
ENDMDL
