MODEL 1
REMARK VINA RESULT: -7.553863549      0.000      0.000
REMARK  7 active torsions:
REMARK  status: ('A' for Active; 'I' for Inactive)
REMARK    1  A    between atoms: C2_2  and  C3_3 
REMARK    2  A    between atoms: C7_7  and  N1_8 
REMARK    3  A    between atoms: N1_8  and  C8_11 
REMARK    4  A    between atoms: C8_11  and  C9_12 
REMARK    5  A    between atoms: C9_12  and  O1_13 
REMARK    6  A    between atoms: C9_12  and  C10_15 
REMARK    7  A    between atoms: C10_15  and  C13_18 
ROOT
HETATM    1  N1  UNL     1      47.239  28.888  13.312  1.00  0.00    -0.044 N 
ATOM      2  H11 UNL     1      46.409  28.583  13.822  1.00  0.00     0.279 HD
ATOM      3  H12 UNL     1      47.075  29.895  13.311  1.00  0.00     0.279 HD
ENDROOT
BRANCH   1   4
HETATM    4  C7  UNL     1      47.235  28.366  11.967  1.00  0.00     0.383 C 
HETATM    5  C6  UNL     1      48.648  28.148  11.455  1.00  0.00     0.062 C 
HETATM    6  C5  UNL     1      49.122  29.354  10.664  1.00  0.00     0.006 C 
HETATM    7  C4  UNL     1      48.211  29.687   9.518  1.00  0.00     0.033 C 
HETATM    8  C3  UNL     1      46.798  29.154   9.715  1.00  0.00     0.188 C 
HETATM    9  N2  UNL     1      46.524  29.295  11.134  1.00  0.00    -0.042 N 
ATOM     10  H22 UNL     1      46.699  30.253  11.438  1.00  0.00     0.280 HD
ATOM     11  H21 UNL     1      45.520  29.237  11.311  1.00  0.00     0.280 HD
BRANCH   8  12
HETATM   12  C2  UNL     1      45.790  30.050   9.011  1.00  0.00     0.028 C 
HETATM   13  C1  UNL     1      46.426  31.179   8.271  1.00  0.00     0.007 C 
ENDBRANCH   8  12
ENDBRANCH   1   4
BRANCH   1  14
HETATM   14  C8  UNL     1      48.446  28.562  14.047  1.00  0.00     0.267 C 
BRANCH  14  15
HETATM   15  C9  UNL     1      48.203  27.215  14.677  1.00  0.00     0.152 C 
BRANCH  15  16
HETATM   16  O1  UNL     1      47.173  27.293  15.598  1.00  0.00    -0.393 OA
ATOM     17  H1  UNL     1      47.109  26.483  16.091  1.00  0.00     0.210 HD
ENDBRANCH  15  16
BRANCH  15  18
HETATM   18  C10 UNL     1      49.423  26.653  15.355  1.00  0.00    -0.016 C 
HETATM   19  C11 UNL     1      48.914  26.250  16.758  1.00  0.00     0.018 C 
HETATM   20  C12 UNL     1      50.454  27.694  15.535  1.00  0.00     0.018 C 
BRANCH  18  21
HETATM   21  C13 UNL     1      49.880  25.362  14.750  1.00  0.00    -0.000 A 
HETATM   22  C14 UNL     1      49.434  24.089  15.369  1.00  0.00     0.010 A 
HETATM   23  C15 UNL     1      50.909  24.480  15.276  1.00  0.00    -0.013 A 
HETATM   24  C16 UNL     1      51.686  23.578  14.326  1.00  0.00     0.010 C 
ENDBRANCH  18  21
ENDBRANCH  15  18
ENDBRANCH  14  15
ENDBRANCH   1  14
TORSDOF 7
ENDMDL
MODEL 2
REMARK VINA RESULT: -6.818965822      2.754      5.122
REMARK  7 active torsions:
REMARK  status: ('A' for Active; 'I' for Inactive)
REMARK    1  A    between atoms: C2_2  and  C3_3 
REMARK    2  A    between atoms: C7_7  and  N1_8 
REMARK    3  A    between atoms: N1_8  and  C8_11 
REMARK    4  A    between atoms: C8_11  and  C9_12 
REMARK    5  A    between atoms: C9_12  and  O1_13 
REMARK    6  A    between atoms: C9_12  and  C10_15 
REMARK    7  A    between atoms: C10_15  and  C13_18 
ROOT
HETATM    1  N1  UNL     1      49.236  24.665  15.615  1.00  0.00    -0.044 N 
ATOM      2  H11 UNL     1      48.252  24.463  15.795  1.00  0.00     0.279 HD
ATOM      3  H12 UNL     1      49.650  24.237  16.444  1.00  0.00     0.279 HD
ENDROOT
BRANCH   1   4
HETATM    4  C7  UNL     1      49.472  26.087  15.598  1.00  0.00     0.383 C 
HETATM    5  C6  UNL     1      48.676  26.793  16.681  1.00  0.00     0.062 C 
HETATM    6  C5  UNL     1      47.360  27.309  16.129  1.00  0.00     0.006 C 
HETATM    7  C4  UNL     1      47.548  28.227  14.955  1.00  0.00     0.033 C 
HETATM    8  C3  UNL     1      48.877  28.011  14.245  1.00  0.00     0.188 C 
HETATM    9  N2  UNL     1      49.117  26.580  14.296  1.00  0.00    -0.042 N 
ATOM     10  H22 UNL     1      48.314  26.070  13.929  1.00  0.00     0.280 HD
ATOM     11  H21 UNL     1      49.822  26.311  13.609  1.00  0.00     0.280 HD
BRANCH   8  12
HETATM   12  C2  UNL     1      48.752  28.354  12.768  1.00  0.00     0.028 C 
HETATM   13  C1  UNL     1      47.341  28.347  12.283  1.00  0.00     0.007 C 
ENDBRANCH   8  12
ENDBRANCH   1   4
BRANCH   1  14
HETATM   14  C8  UNL     1      49.688  23.997  14.409  1.00  0.00     0.267 C 
BRANCH  14  15
HETATM   15  C9  UNL     1      50.327  22.708  14.858  1.00  0.00     0.152 C 
BRANCH  15  16
HETATM   16  O1  UNL     1      50.427  22.675  16.239  1.00  0.00    -0.393 OA
ATOM     17  H1  UNL     1      51.336  22.592  16.503  1.00  0.00     0.210 HD
ENDBRANCH  15  16
BRANCH  15  18
HETATM   18  C10 UNL     1      51.693  22.490  14.266  1.00  0.00    -0.016 C 
HETATM   19  C11 UNL     1      52.335  21.434  15.194  1.00  0.00     0.018 C 
HETATM   20  C12 UNL     1      52.509  23.718  14.353  1.00  0.00     0.018 C 
BRANCH  18  21
HETATM   21  C13 UNL     1      51.645  21.817  12.929  1.00  0.00    -0.000 A 
HETATM   22  C14 UNL     1      50.864  20.562  12.792  1.00  0.00     0.010 A 
HETATM   23  C15 UNL     1      52.371  20.620  12.540  1.00  0.00    -0.013 A 
HETATM   24  C16 UNL     1      52.719  20.393  11.075  1.00  0.00     0.010 C 
ENDBRANCH  18  21
ENDBRANCH  15  18
ENDBRANCH  14  15
ENDBRANCH   1  14
TORSDOF 7
ENDMDL
MODEL 3
REMARK VINA RESULT: -6.684629812      1.096      1.463
REMARK  7 active torsions:
REMARK  status: ('A' for Active; 'I' for Inactive)
REMARK    1  A    between atoms: C2_2  and  C3_3 
REMARK    2  A    between atoms: C7_7  and  N1_8 
REMARK    3  A    between atoms: N1_8  and  C8_11 
REMARK    4  A    between atoms: C8_11  and  C9_12 
REMARK    5  A    between atoms: C9_12  and  O1_13 
REMARK    6  A    between atoms: C9_12  and  C10_15 
REMARK    7  A    between atoms: C10_15  and  C13_18 
ROOT
HETATM    1  N1  UNL     1      49.183  28.297  12.561  1.00  0.00    -0.044 N 
ATOM      2  H11 UNL     1      50.085  28.393  12.095  1.00  0.00     0.279 HD
ATOM      3  H12 UNL     1      48.921  27.368  12.229  1.00  0.00     0.279 HD
ENDROOT
BRANCH   1   4
HETATM    4  C7  UNL     1      48.252  29.292  12.087  1.00  0.00     0.383 C 
HETATM    5  C6  UNL     1      46.836  28.984  12.538  1.00  0.00     0.062 C 
HETATM    6  C5  UNL     1      46.089  28.210  11.468  1.00  0.00     0.006 C 
HETATM    7  C4  UNL     1      46.057  28.932  10.151  1.00  0.00     0.033 C 
HETATM    8  C3  UNL     1      47.191  29.939  10.004  1.00  0.00     0.188 C 
HETATM    9  N2  UNL     1      48.338  29.331  10.654  1.00  0.00    -0.042 N 
ATOM     10  H22 UNL     1      48.505  28.396  10.281  1.00  0.00     0.280 HD
ATOM     11  H21 UNL     1      49.200  29.792  10.360  1.00  0.00     0.280 HD
BRANCH   8  12
HETATM   12  C2  UNL     1      47.579  30.092   8.541  1.00  0.00     0.028 C 
HETATM   13  C1  UNL     1      46.712  31.056   7.803  1.00  0.00     0.007 C 
ENDBRANCH   8  12
ENDBRANCH   1   4
BRANCH   1  14
HETATM   14  C8  UNL     1      49.342  28.304  14.003  1.00  0.00     0.267 C 
BRANCH  14  15
HETATM   15  C9  UNL     1      48.767  27.001  14.495  1.00  0.00     0.152 C 
BRANCH  15  16
HETATM   16  O1  UNL     1      47.614  27.229  15.226  1.00  0.00    -0.393 OA
ATOM     17  H1  UNL     1      47.769  27.063  16.149  1.00  0.00     0.210 HD
ENDBRANCH  15  16
BRANCH  15  18
HETATM   18  C10 UNL     1      49.731  26.213  15.338  1.00  0.00    -0.016 C 
HETATM   19  C11 UNL     1      48.895  25.801  16.571  1.00  0.00     0.018 C 
HETATM   20  C12 UNL     1      50.838  27.067  15.813  1.00  0.00     0.018 C 
BRANCH  18  21
HETATM   21  C13 UNL     1      50.119  24.909  14.712  1.00  0.00    -0.000 A 
HETATM   22  C14 UNL     1      49.441  23.670  15.169  1.00  0.00     0.010 A 
HETATM   23  C15 UNL     1      50.949  23.877  15.311  1.00  0.00    -0.013 A 
HETATM   24  C16 UNL     1      51.747  22.938  14.417  1.00  0.00     0.010 C 
ENDBRANCH  18  21
ENDBRANCH  15  18
ENDBRANCH  14  15
ENDBRANCH   1  14
TORSDOF 7
ENDMDL
MODEL 4
REMARK VINA RESULT: -6.659249491      1.602      6.886
REMARK  7 active torsions:
REMARK  status: ('A' for Active; 'I' for Inactive)
REMARK    1  A    between atoms: C2_2  and  C3_3 
REMARK    2  A    between atoms: C7_7  and  N1_8 
REMARK    3  A    between atoms: N1_8  and  C8_11 
REMARK    4  A    between atoms: C8_11  and  C9_12 
REMARK    5  A    between atoms: C9_12  and  O1_13 
REMARK    6  A    between atoms: C9_12  and  C10_15 
REMARK    7  A    between atoms: C10_15  and  C13_18 
ROOT
HETATM    1  N1  UNL     1      48.074  28.105  14.437  1.00  0.00    -0.044 N 
ATOM      2  H11 UNL     1      48.265  29.080  14.667  1.00  0.00     0.279 HD
ATOM      3  H12 UNL     1      47.057  28.110  14.514  1.00  0.00     0.279 HD
ENDROOT
BRANCH   1   4
HETATM    4  C7  UNL     1      48.659  27.223  15.417  1.00  0.00     0.383 C 
HETATM    5  C6  UNL     1      49.974  27.773  15.941  1.00  0.00     0.062 C 
HETATM    6  C5  UNL     1      51.143  27.195  15.164  1.00  0.00     0.006 C 
HETATM    7  C4  UNL     1      51.172  25.694  15.195  1.00  0.00     0.033 C 
HETATM    8  C3  UNL     1      49.805  25.085  15.481  1.00  0.00     0.188 C 
HETATM    9  N2  UNL     1      48.848  25.939  14.800  1.00  0.00    -0.042 N 
ATOM     10  H22 UNL     1      49.104  26.049  13.819  1.00  0.00     0.280 HD
ATOM     11  H21 UNL     1      47.954  25.459  14.694  1.00  0.00     0.280 HD
BRANCH   8  12
HETATM   12  C2  UNL     1      49.683  23.721  14.820  1.00  0.00     0.028 C 
HETATM   13  C1  UNL     1      50.925  22.902  14.933  1.00  0.00     0.007 C 
ENDBRANCH   8  12
ENDBRANCH   1   4
BRANCH   1  14
HETATM   14  C8  UNL     1      48.487  27.804  13.079  1.00  0.00     0.267 C 
BRANCH  14  15
HETATM   15  C9  UNL     1      47.443  28.412  12.179  1.00  0.00     0.152 C 
BRANCH  15  16
HETATM   16  O1  UNL     1      46.542  27.446  11.766  1.00  0.00    -0.393 OA
ATOM     17  H1  UNL     1      45.658  27.797  11.768  1.00  0.00     0.210 HD
ENDBRANCH  15  16
BRANCH  15  18
HETATM   18  C10 UNL     1      48.029  29.082  10.966  1.00  0.00    -0.016 C 
HETATM   19  C11 UNL     1      48.276  27.916   9.982  1.00  0.00     0.018 C 
HETATM   20  C12 UNL     1      49.339  29.688  11.279  1.00  0.00     0.018 C 
BRANCH  18  21
HETATM   21  C13 UNL     1      47.045  29.957  10.254  1.00  0.00    -0.000 A 
HETATM   22  C14 UNL     1      45.905  29.318   9.550  1.00  0.00     0.010 A 
HETATM   23  C15 UNL     1      46.952  30.158   8.817  1.00  0.00    -0.013 A 
HETATM   24  C16 UNL     1      46.372  31.457   8.274  1.00  0.00     0.010 C 
ENDBRANCH  18  21
ENDBRANCH  15  18
ENDBRANCH  14  15
ENDBRANCH   1  14
TORSDOF 7
ENDMDL
MODEL 5
REMARK VINA RESULT: -6.637202643      2.319      4.409
REMARK  7 active torsions:
REMARK  status: ('A' for Active; 'I' for Inactive)
REMARK    1  A    between atoms: C2_2  and  C3_3 
REMARK    2  A    between atoms: C7_7  and  N1_8 
REMARK    3  A    between atoms: N1_8  and  C8_11 
REMARK    4  A    between atoms: C8_11  and  C9_12 
REMARK    5  A    between atoms: C9_12  and  O1_13 
REMARK    6  A    between atoms: C9_12  and  C10_15 
REMARK    7  A    between atoms: C10_15  and  C13_18 
ROOT
HETATM    1  N1  UNL     1      49.265  25.731  15.318  1.00  0.00    -0.044 N 
ATOM      2  H11 UNL     1      48.461  25.331  14.832  1.00  0.00     0.279 HD
ATOM      3  H12 UNL     1      49.067  25.407  16.265  1.00  0.00     0.279 HD
ENDROOT
BRANCH   1   4
HETATM    4  C7  UNL     1      49.237  27.172  15.253  1.00  0.00     0.383 C 
HETATM    5  C6  UNL     1      48.061  27.738  16.028  1.00  0.00     0.062 C 
HETATM    6  C5  UNL     1      46.877  27.974  15.109  1.00  0.00     0.006 C 
HETATM    7  C4  UNL     1      47.211  28.880  13.959  1.00  0.00     0.033 C 
HETATM    8  C3  UNL     1      48.702  28.906  13.644  1.00  0.00     0.188 C 
HETATM    9  N2  UNL     1      49.171  27.551  13.869  1.00  0.00    -0.042 N 
ATOM     10  H22 UNL     1      48.604  26.886  13.344  1.00  0.00     0.280 HD
ATOM     11  H21 UNL     1      50.073  27.407  13.415  1.00  0.00     0.280 HD
BRANCH   8  12
HETATM   12  C2  UNL     1      48.926  29.180  12.164  1.00  0.00     0.028 C 
HETATM   13  C1  UNL     1      47.963  28.459  11.282  1.00  0.00     0.007 C 
ENDBRANCH   8  12
ENDBRANCH   1   4
BRANCH   1  14
HETATM   14  C8  UNL     1      50.504  25.161  14.824  1.00  0.00     0.267 C 
BRANCH  14  15
HETATM   15  C9  UNL     1      50.205  23.718  14.509  1.00  0.00     0.152 C 
BRANCH  15  16
HETATM   16  O1  UNL     1      49.092  23.292  15.213  1.00  0.00    -0.393 OA
ATOM     17  H1  UNL     1      49.233  22.418  15.558  1.00  0.00     0.210 HD
ENDBRANCH  15  16
BRANCH  15  18
HETATM   18  C10 UNL     1      51.356  22.798  14.814  1.00  0.00    -0.016 C 
HETATM   19  C11 UNL     1      51.067  22.307  16.251  1.00  0.00     0.018 C 
HETATM   20  C12 UNL     1      52.632  23.540  14.843  1.00  0.00     0.018 C 
BRANCH  18  21
HETATM   21  C13 UNL     1      51.333  21.547  13.991  1.00  0.00    -0.000 A 
HETATM   22  C14 UNL     1      52.341  20.494  14.270  1.00  0.00     0.010 A 
HETATM   23  C15 UNL     1      52.252  21.203  12.919  1.00  0.00    -0.013 A 
HETATM   24  C16 UNL     1      51.796  20.270  11.806  1.00  0.00     0.010 C 
ENDBRANCH  18  21
ENDBRANCH  15  18
ENDBRANCH  14  15
ENDBRANCH   1  14
TORSDOF 7
ENDMDL
