MODEL 1
REMARK VINA RESULT: -7.543790239      0.000      0.000
REMARK  8 active torsions:
REMARK  status: ('A' for Active; 'I' for Inactive)
REMARK    1  A    between atoms: O1_1  and  C1_3 
REMARK    2  A    between atoms: C1_3  and  C2_4 
REMARK    3  A    between atoms: C1_3  and  C9_13 
REMARK    4  A    between atoms: C2_4  and  N1_5 
REMARK    5  A    between atoms: N1_5  and  C3_7 
REMARK    6  A    between atoms: C9_13  and  O2_14 
REMARK    7  A    between atoms: C9_13  and  C10_16 
REMARK    8  A    between atoms: C10_16  and  C11_17 
ROOT
HETATM    1  C1  UNL     1      52.350  24.533  14.636  1.00  0.00     0.164 C 
ENDROOT
BRANCH   1   2
HETATM    2  O1  UNL     1      53.487  24.769  15.409  1.00  0.00    -0.391 OA
ATOM      3  H1  UNL     1      53.780  23.968  15.827  1.00  0.00     0.210 HD
ENDBRANCH   1   2
BRANCH   1   4
HETATM    4  C2  UNL     1      51.189  25.382  15.121  1.00  0.00     0.148 C 
BRANCH   4   5
HETATM    5  N1  UNL     1      51.455  26.776  15.075  1.00  0.00    -0.415 N 
ATOM      6  H1  UNL     1      52.340  27.132  14.715  1.00  0.00     0.153 HD
BRANCH   5   7
HETATM    7  C3  UNL     1      50.446  27.663  15.549  1.00  0.00     0.076 C 
HETATM    8  C4  UNL     1      50.032  28.607  14.468  1.00  0.00     0.024 C 
HETATM    9  C5  UNL     1      48.831  28.058  13.721  1.00  0.00     0.002 C 
HETATM   10  C6  UNL     1      47.716  28.100  14.743  1.00  0.00     0.000 C 
HETATM   11  C7  UNL     1      47.978  27.161  15.871  1.00  0.00     0.002 C 
HETATM   12  C8  UNL     1      49.379  26.883  16.205  1.00  0.00     0.024 C 
ENDBRANCH   5   7
ENDBRANCH   4   5
ENDBRANCH   1   4
BRANCH   1  13
HETATM   13  C9  UNL     1      51.953  23.074  14.909  1.00  0.00     0.148 C 
BRANCH  13  14
HETATM   14  O2  UNL     1      51.120  22.965  16.004  1.00  0.00    -0.393 OA
ATOM     15  H2  UNL     1      51.369  23.566  16.697  1.00  0.00     0.210 HD
ENDBRANCH  13  14
BRANCH  13  16
HETATM   16  C10 UNL     1      51.376  22.487  13.655  1.00  0.00     0.039 C 
BRANCH  16  17
HETATM   17  C11 UNL     1      52.056  21.223  13.194  1.00  0.00    -0.012 C 
HETATM   18  C12 UNL     1      52.856  21.513  11.939  1.00  0.00     0.005 C 
HETATM   19  C13 UNL     1      52.950  20.156  11.281  1.00  0.00     0.000 C 
HETATM   20  C14 UNL     1      51.798  19.327  11.806  1.00  0.00     0.000 C 
HETATM   21  C15 UNL     1      50.979  20.271  12.643  1.00  0.00     0.005 C 
ENDBRANCH  16  17
ENDBRANCH  13  16
ENDBRANCH   1  13
TORSDOF 8
ENDMDL
MODEL 2
REMARK VINA RESULT: -7.526643260      0.702      1.108
REMARK  8 active torsions:
REMARK  status: ('A' for Active; 'I' for Inactive)
REMARK    1  A    between atoms: O1_1  and  C1_3 
REMARK    2  A    between atoms: C1_3  and  C2_4 
REMARK    3  A    between atoms: C1_3  and  C9_13 
REMARK    4  A    between atoms: C2_4  and  N1_5 
REMARK    5  A    between atoms: N1_5  and  C3_7 
REMARK    6  A    between atoms: C9_13  and  O2_14 
REMARK    7  A    between atoms: C9_13  and  C10_16 
REMARK    8  A    between atoms: C10_16  and  C11_17 
ROOT
HETATM    1  C1  UNL     1      51.985  24.317  14.602  1.00  0.00     0.164 C 
ENDROOT
BRANCH   1   2
HETATM    2  O1  UNL     1      53.122  24.450  15.399  1.00  0.00    -0.391 OA
ATOM      3  H1  UNL     1      53.308  23.637  15.856  1.00  0.00     0.210 HD
ENDBRANCH   1   2
BRANCH   1   4
HETATM    4  C2  UNL     1      50.897  25.270  15.060  1.00  0.00     0.148 C 
BRANCH   4   5
HETATM    5  N1  UNL     1      51.327  26.623  15.127  1.00  0.00    -0.415 N 
ATOM      6  H1  UNL     1      52.280  26.885  14.878  1.00  0.00     0.153 HD
BRANCH   5   7
HETATM    7  C3  UNL     1      50.382  27.601  15.552  1.00  0.00     0.076 C 
HETATM    8  C4  UNL     1      50.042  28.520  14.424  1.00  0.00     0.024 C 
HETATM    9  C5  UNL     1      48.806  28.025  13.696  1.00  0.00     0.002 C 
HETATM   10  C6  UNL     1      47.694  28.195  14.706  1.00  0.00     0.000 C 
HETATM   11  C7  UNL     1      47.883  27.294  15.879  1.00  0.00     0.002 C 
HETATM   12  C8  UNL     1      49.259  26.932  16.235  1.00  0.00     0.024 C 
ENDBRANCH   5   7
ENDBRANCH   4   5
ENDBRANCH   1   4
BRANCH   1  13
HETATM   13  C9  UNL     1      51.450  22.901  14.867  1.00  0.00     0.148 C 
BRANCH  13  14
HETATM   14  O2  UNL     1      50.121  22.781  14.514  1.00  0.00    -0.393 OA
ATOM     15  H2  UNL     1      49.844  21.873  14.487  1.00  0.00     0.210 HD
ENDBRANCH  13  14
BRANCH  13  16
HETATM   16  C10 UNL     1      52.345  21.910  14.183  1.00  0.00     0.039 C 
BRANCH  16  17
HETATM   17  C11 UNL     1      51.667  21.115  13.095  1.00  0.00    -0.012 C 
HETATM   18  C12 UNL     1      51.667  19.647  13.475  1.00  0.00     0.005 C 
HETATM   19  C13 UNL     1      51.553  18.954  12.137  1.00  0.00     0.000 C 
HETATM   20  C14 UNL     1      52.059  19.924  11.091  1.00  0.00     0.000 C 
HETATM   21  C15 UNL     1      52.592  21.099  11.864  1.00  0.00     0.005 C 
ENDBRANCH  16  17
ENDBRANCH  13  16
ENDBRANCH   1  13
TORSDOF 8
ENDMDL
MODEL 3
REMARK VINA RESULT: -7.480042377      0.859      1.652
REMARK  8 active torsions:
REMARK  status: ('A' for Active; 'I' for Inactive)
REMARK    1  A    between atoms: O1_1  and  C1_3 
REMARK    2  A    between atoms: C1_3  and  C2_4 
REMARK    3  A    between atoms: C1_3  and  C9_13 
REMARK    4  A    between atoms: C2_4  and  N1_5 
REMARK    5  A    between atoms: N1_5  and  C3_7 
REMARK    6  A    between atoms: C9_13  and  O2_14 
REMARK    7  A    between atoms: C9_13  and  C10_16 
REMARK    8  A    between atoms: C10_16  and  C11_17 
ROOT
HETATM    1  C1  UNL     1      50.974  23.734  15.525  1.00  0.00     0.164 C 
ENDROOT
BRANCH   1   2
HETATM    2  O1  UNL     1      50.208  22.604  15.814  1.00  0.00    -0.391 OA
ATOM      3  H1  UNL     1      49.843  22.662  16.689  1.00  0.00     0.210 HD
ENDBRANCH   1   2
BRANCH   1   4
HETATM    4  C2  UNL     1      50.080  24.911  15.182  1.00  0.00     0.148 C 
BRANCH   4   5
HETATM    5  N1  UNL     1      50.740  26.165  15.276  1.00  0.00    -0.415 N 
ATOM      6  H1  UNL     1      51.733  26.254  15.063  1.00  0.00     0.153 HD
BRANCH   5   7
HETATM    7  C3  UNL     1      49.971  27.294  15.677  1.00  0.00     0.076 C 
HETATM    8  C4  UNL     1      49.887  28.289  14.564  1.00  0.00     0.024 C 
HETATM    9  C5  UNL     1      48.632  28.055  13.744  1.00  0.00     0.002 C 
HETATM   10  C6  UNL     1      47.506  28.410  14.689  1.00  0.00     0.000 C 
HETATM   11  C7  UNL     1      47.442  27.462  15.838  1.00  0.00     0.002 C 
HETATM   12  C8  UNL     1      48.698  26.836  16.265  1.00  0.00     0.024 C 
ENDBRANCH   5   7
ENDBRANCH   4   5
ENDBRANCH   1   4
BRANCH   1  13
HETATM   13  C9  UNL     1      51.748  23.399  14.241  1.00  0.00     0.148 C 
BRANCH  13  14
HETATM   14  O2  UNL     1      52.836  24.232  14.066  1.00  0.00    -0.393 OA
ATOM     15  H2  UNL     1      53.320  24.353  14.874  1.00  0.00     0.210 HD
ENDBRANCH  13  14
BRANCH  13  16
HETATM   16  C10 UNL     1      52.104  21.942  14.257  1.00  0.00     0.039 C 
BRANCH  16  17
HETATM   17  C11 UNL     1      51.599  21.169  13.066  1.00  0.00    -0.012 C 
HETATM   18  C12 UNL     1      51.596  19.689  13.394  1.00  0.00     0.005 C 
HETATM   19  C13 UNL     1      51.677  19.044  12.030  1.00  0.00     0.000 C 
HETATM   20  C14 UNL     1      52.283  20.065  11.091  1.00  0.00     0.000 C 
HETATM   21  C15 UNL     1      52.674  21.225  11.965  1.00  0.00     0.005 C 
ENDBRANCH  16  17
ENDBRANCH  13  16
ENDBRANCH   1  13
TORSDOF 8
ENDMDL
MODEL 4
REMARK VINA RESULT: -7.450168204      2.923      6.805
REMARK  8 active torsions:
REMARK  status: ('A' for Active; 'I' for Inactive)
REMARK    1  A    between atoms: O1_1  and  C1_3 
REMARK    2  A    between atoms: C1_3  and  C2_4 
REMARK    3  A    between atoms: C1_3  and  C9_13 
REMARK    4  A    between atoms: C2_4  and  N1_5 
REMARK    5  A    between atoms: N1_5  and  C3_7 
REMARK    6  A    between atoms: C9_13  and  O2_14 
REMARK    7  A    between atoms: C9_13  and  C10_16 
REMARK    8  A    between atoms: C10_16  and  C11_17 
ROOT
HETATM    1  C1  UNL     1      47.963  27.382  15.234  1.00  0.00     0.164 C 
ENDROOT
BRANCH   1   2
HETATM    2  O1  UNL     1      47.020  28.129  15.941  1.00  0.00    -0.391 OA
ATOM      3  H1  UNL     1      46.787  27.693  16.752  1.00  0.00     0.210 HD
ENDBRANCH   1   2
BRANCH   1   4
HETATM    4  C2  UNL     1      49.010  26.817  16.176  1.00  0.00     0.148 C 
BRANCH   4   5
HETATM    5  N1  UNL     1      49.123  25.403  16.108  1.00  0.00    -0.415 N 
ATOM      6  H1  UNL     1      48.773  24.810  16.860  1.00  0.00     0.153 HD
BRANCH   5   7
HETATM    7  C3  UNL     1      49.741  24.839  14.955  1.00  0.00     0.076 C 
HETATM    8  C4  UNL     1      51.057  25.497  14.695  1.00  0.00     0.024 C 
HETATM    9  C5  UNL     1      52.177  24.715  15.355  1.00  0.00     0.002 C 
HETATM   10  C6  UNL     1      52.216  23.414  14.585  1.00  0.00     0.000 C 
HETATM   11  C7  UNL     1      50.969  22.623  14.790  1.00  0.00     0.002 C 
HETATM   12  C8  UNL     1      49.737  23.368  15.068  1.00  0.00     0.024 C 
ENDBRANCH   5   7
ENDBRANCH   4   5
ENDBRANCH   1   4
BRANCH   1  13
HETATM   13  C9  UNL     1      48.699  28.383  14.329  1.00  0.00     0.148 C 
BRANCH  13  14
HETATM   14  O2  UNL     1      49.990  28.612  14.762  1.00  0.00    -0.393 OA
ATOM     15  H2  UNL     1      50.008  29.124  15.562  1.00  0.00     0.210 HD
ENDBRANCH  13  14
BRANCH  13  16
HETATM   16  C10 UNL     1      48.617  27.902  12.911  1.00  0.00     0.039 C 
BRANCH  16  17
HETATM   17  C11 UNL     1      47.957  28.875  11.966  1.00  0.00    -0.012 C 
HETATM   18  C12 UNL     1      46.538  28.420  11.690  1.00  0.00     0.005 C 
HETATM   19  C13 UNL     1      46.235  29.060  10.355  1.00  0.00     0.000 C 
HETATM   20  C14 UNL     1      47.563  29.329   9.680  1.00  0.00     0.000 C 
HETATM   21  C15 UNL     1      48.597  28.704  10.577  1.00  0.00     0.005 C 
ENDBRANCH  16  17
ENDBRANCH  13  16
ENDBRANCH   1  13
TORSDOF 8
ENDMDL
MODEL 5
REMARK VINA RESULT: -7.440409104      2.943      4.746
REMARK  8 active torsions:
REMARK  status: ('A' for Active; 'I' for Inactive)
REMARK    1  A    between atoms: O1_1  and  C1_3 
REMARK    2  A    between atoms: C1_3  and  C2_4 
REMARK    3  A    between atoms: C1_3  and  C9_13 
REMARK    4  A    between atoms: C2_4  and  N1_5 
REMARK    5  A    between atoms: N1_5  and  C3_7 
REMARK    6  A    between atoms: C9_13  and  O2_14 
REMARK    7  A    between atoms: C9_13  and  C10_16 
REMARK    8  A    between atoms: C10_16  and  C11_17 
ROOT
HETATM    1  C1  UNL     1      48.363  27.680  15.454  1.00  0.00     0.164 C 
ENDROOT
BRANCH   1   2
HETATM    2  O1  UNL     1      47.027  27.319  15.276  1.00  0.00    -0.391 OA
ATOM      3  H1  UNL     1      46.963  26.459  14.878  1.00  0.00     0.210 HD
ENDBRANCH   1   2
BRANCH   1   4
HETATM    4  C2  UNL     1      49.082  27.738  14.119  1.00  0.00     0.148 C 
BRANCH   4   5
HETATM    5  N1  UNL     1      48.213  27.589  13.005  1.00  0.00    -0.415 N 
ATOM      6  H1  UNL     1      47.937  26.665  12.673  1.00  0.00     0.153 HD
BRANCH   5   7
HETATM    7  C3  UNL     1      47.739  28.771  12.368  1.00  0.00     0.076 C 
HETATM    8  C4  UNL     1      48.788  29.332  11.464  1.00  0.00     0.024 C 
HETATM    9  C5  UNL     1      48.601  28.810  10.052  1.00  0.00     0.002 C 
HETATM   10  C6  UNL     1      47.301  29.438   9.600  1.00  0.00     0.000 C 
HETATM   11  C7  UNL     1      46.147  28.929  10.396  1.00  0.00     0.002 C 
HETATM   12  C8  UNL     1      46.413  28.509  11.776  1.00  0.00     0.024 C 
ENDBRANCH   5   7
ENDBRANCH   4   5
ENDBRANCH   1   4
BRANCH   1  13
HETATM   13  C9  UNL     1      49.009  26.526  16.236  1.00  0.00     0.148 C 
BRANCH  13  14
HETATM   14  O2  UNL     1      48.307  26.231  17.388  1.00  0.00    -0.393 OA
ATOM     15  H2  UNL     1      48.885  26.110  18.132  1.00  0.00     0.210 HD
ENDBRANCH  13  14
BRANCH  13  16
HETATM   16  C10 UNL     1      49.177  25.353  15.317  1.00  0.00     0.039 C 
BRANCH  16  17
HETATM   17  C11 UNL     1      50.407  24.525  15.590  1.00  0.00    -0.012 C 
HETATM   18  C12 UNL     1      51.618  25.215  14.992  1.00  0.00     0.005 C 
HETATM   19  C13 UNL     1      52.588  24.074  14.790  1.00  0.00     0.000 C 
HETATM   20  C14 UNL     1      51.769  22.804  14.712  1.00  0.00     0.000 C 
HETATM   21  C15 UNL     1      50.334  23.255  14.723  1.00  0.00     0.005 C 
ENDBRANCH  16  17
ENDBRANCH  13  16
ENDBRANCH   1  13
TORSDOF 8
ENDMDL
