MODEL 1
REMARK VINA RESULT: -5.975901627      0.000      0.000
REMARK  13 active torsions:
REMARK  status: ('A' for Active; 'I' for Inactive)
REMARK    1  A    between atoms: N1_2  and  C2_5 
REMARK    2  A    between atoms: C3_6  and  O1_7 
REMARK    3  A    between atoms: O1_7  and  C4_8 
REMARK    4  A    between atoms: C5_9  and  N2_10 
REMARK    5  A    between atoms: C7_15  and  O2_16 
REMARK    6  A    between atoms: O2_16  and  S1_17 
REMARK    7  A    between atoms: C8_21  and  O6_22 
REMARK    8  A    between atoms: C12_28  and  C13_29 
REMARK    9  A    between atoms: C13_29  and  N3_30 
REMARK   10  A    between atoms: N3_30  and  N4_32 
REMARK   11  A    between atoms: N4_32  and  N5_33 
REMARK   12  A    between atoms: C14_36  and  O8_37 
REMARK   13  A    between atoms: C15_39  and  O9_40 
ROOT
HETATM    1  C2  UNL     1       7.171  39.350  53.088  1.00  0.00     0.271 C 
HETATM    2  C3  UNL     1       6.744  39.321  51.665  1.00  0.00     0.294 C 
HETATM    3  O7  UNL     1       7.907  39.124  50.904  1.00  0.00    -0.349 OA
HETATM    4  C12 UNL     1       8.336  37.805  50.984  1.00  0.00     0.176 C 
HETATM    5  C14 UNL     1       8.032  37.136  52.276  1.00  0.00     0.179 C 
HETATM    6  C15 UNL     1       7.908  38.073  53.450  1.00  0.00     0.185 C 
ENDROOT
BRANCH   2   7
HETATM    7  O1  UNL     1       6.212  40.521  51.264  1.00  0.00    -0.351 OA
BRANCH   7   8
HETATM    8  C4  UNL     1       4.987  40.382  50.625  1.00  0.00     0.165 C 
HETATM    9  C5  UNL     1       5.184  39.650  49.314  1.00  0.00     0.215 C 
HETATM   10  C6  UNL     1       3.850  39.628  48.547  1.00  0.00     0.071 C 
HETATM   11  C7  UNL     1       3.619  41.038  48.112  1.00  0.00     0.176 C 
HETATM   12  C8  UNL     1       3.867  42.090  49.139  1.00  0.00     0.159 C 
HETATM   13  C9  UNL     1       4.216  41.635  50.511  1.00  0.00     0.009 C 
HETATM   14  C10 UNL     1       2.935  41.577  51.353  1.00  0.00     0.020 C 
HETATM   15  C11 UNL     1       5.063  42.742  51.160  1.00  0.00     0.020 C 
BRANCH   9  16
HETATM   16  N2  UNL     1       6.239  40.237  48.519  1.00  0.00    -0.072 N 
ATOM     17  H23 UNL     1       5.859  40.785  47.746  1.00  0.00     0.274 HD
ATOM     18  H22 UNL     1       6.713  40.985  49.027  1.00  0.00     0.274 HD
ATOM     19  H21 UNL     1       6.901  39.537  48.187  1.00  0.00     0.274 HD
ENDBRANCH   9  16
BRANCH  11  20
HETATM   20  O2  UNL     1       2.446  41.219  47.403  1.00  0.00    -0.249 OA
BRANCH  20  21
HETATM   21  S1  UNL     1       2.548  41.262  45.778  1.00  0.00     0.252 S 
HETATM   22  O3  UNL     1       3.102  42.519  45.194  1.00  0.00    -0.572 OA
HETATM   23  O4  UNL     1       1.134  41.130  45.223  1.00  0.00    -0.572 OA
HETATM   24  O5  UNL     1       3.408  39.982  45.104  1.00  0.00    -0.572 OA
ENDBRANCH  20  21
ENDBRANCH  11  20
BRANCH  12  25
HETATM   25  O6  UNL     1       2.725  42.924  49.277  1.00  0.00    -0.392 OA
ATOM     26  H6  UNL     1       2.989  43.814  49.478  1.00  0.00     0.210 HD
ENDBRANCH  12  25
ENDBRANCH   7   8
ENDBRANCH   2   7
BRANCH   1  27
HETATM   27  N1  UNL     1       8.106  40.435  53.319  1.00  0.00    -0.068 N 
HETATM   28  C1  UNL     1       7.723  41.295  54.416  1.00  0.00     0.267 C 
ATOM     29  H12 UNL     1       8.249  40.977  52.467  1.00  0.00     0.277 HD
ATOM     30  H11 UNL     1       9.051  40.077  53.451  1.00  0.00     0.277 HD
ENDBRANCH   1  27
BRANCH   6  31
HETATM   31  O9  UNL     1       9.164  38.315  54.000  1.00  0.00    -0.391 OA
ATOM     32  H9  UNL     1       9.541  37.543  54.404  1.00  0.00     0.210 HD
ENDBRANCH   6  31
BRANCH   4  33
HETATM   33  C13 UNL     1       7.604  37.018  49.888  1.00  0.00     0.190 C 
BRANCH  33  34
HETATM   34  N3  UNL     1       8.022  37.429  48.580  1.00  0.00    -0.250 N 
ATOM     35  H3  UNL     1       8.968  37.797  48.483  1.00  0.00     0.197 HD
BRANCH  34  36
HETATM   36  N4  UNL     1       7.332  37.371  47.569  1.00  0.00    -0.248 NA
BRANCH  36  37
HETATM   37  N5  UNL     1       6.472  37.075  46.734  1.00  0.00    -0.261 N 
ATOM     38  H52 UNL     1       7.104  37.189  45.941  1.00  0.00     0.193 HD
ATOM     39  H51 UNL     1       5.602  36.804  46.276  1.00  0.00     0.193 HD
ENDBRANCH  36  37
ENDBRANCH  34  36
ENDBRANCH  33  34
ENDBRANCH   4  33
BRANCH   5  40
HETATM   40  O8  UNL     1       6.940  36.266  52.195  1.00  0.00    -0.390 OA
ATOM     41  H8  UNL     1       7.176  35.360  52.359  1.00  0.00     0.210 HD
ENDBRANCH   5  40
TORSDOF 13
ENDMDL
MODEL 2
REMARK VINA RESULT: -5.706051250      1.938      2.510
REMARK  13 active torsions:
REMARK  status: ('A' for Active; 'I' for Inactive)
REMARK    1  A    between atoms: N1_2  and  C2_5 
REMARK    2  A    between atoms: C3_6  and  O1_7 
REMARK    3  A    between atoms: O1_7  and  C4_8 
REMARK    4  A    between atoms: C5_9  and  N2_10 
REMARK    5  A    between atoms: C7_15  and  O2_16 
REMARK    6  A    between atoms: O2_16  and  S1_17 
REMARK    7  A    between atoms: C8_21  and  O6_22 
REMARK    8  A    between atoms: C12_28  and  C13_29 
REMARK    9  A    between atoms: C13_29  and  N3_30 
REMARK   10  A    between atoms: N3_30  and  N4_32 
REMARK   11  A    between atoms: N4_32  and  N5_33 
REMARK   12  A    between atoms: C14_36  and  O8_37 
REMARK   13  A    between atoms: C15_39  and  O9_40 
ROOT
HETATM    1  C2  UNL     1       7.089  41.279  53.433  1.00  0.00     0.271 C 
HETATM    2  C3  UNL     1       6.642  40.508  52.242  1.00  0.00     0.294 C 
HETATM    3  O7  UNL     1       7.765  39.808  51.777  1.00  0.00    -0.349 OA
HETATM    4  C12 UNL     1       8.047  38.720  52.593  1.00  0.00     0.176 C 
HETATM    5  C14 UNL     1       7.688  38.914  54.023  1.00  0.00     0.179 C 
HETATM    6  C15 UNL     1       7.684  40.351  54.476  1.00  0.00     0.185 C 
ENDROOT
BRANCH   2   7
HETATM    7  O1  UNL     1       6.241  41.331  51.219  1.00  0.00    -0.351 OA
BRANCH   7   8
HETATM    8  C4  UNL     1       5.042  40.932  50.644  1.00  0.00     0.165 C 
HETATM    9  C5  UNL     1       5.325  40.003  49.482  1.00  0.00     0.215 C 
HETATM   10  C6  UNL     1       4.003  39.683  48.764  1.00  0.00     0.071 C 
HETATM   11  C7  UNL     1       3.600  40.953  48.088  1.00  0.00     0.176 C 
HETATM   12  C8  UNL     1       3.719  42.196  48.903  1.00  0.00     0.159 C 
HETATM   13  C9  UNL     1       4.123  42.042  50.325  1.00  0.00     0.009 C 
HETATM   14  C10 UNL     1       2.860  41.984  51.194  1.00  0.00     0.020 C 
HETATM   15  C11 UNL     1       4.829  43.342  50.745  1.00  0.00     0.020 C 
BRANCH   9  16
HETATM   16  N2  UNL     1       6.299  40.559  48.570  1.00  0.00    -0.072 N 
ATOM     17  H23 UNL     1       7.231  40.569  48.985  1.00  0.00     0.274 HD
ATOM     18  H22 UNL     1       6.477  39.928  47.788  1.00  0.00     0.274 HD
ATOM     19  H21 UNL     1       6.029  41.487  48.243  1.00  0.00     0.274 HD
ENDBRANCH   9  16
BRANCH  11  20
HETATM   20  O2  UNL     1       2.414  40.860  47.386  1.00  0.00    -0.249 OA
BRANCH  20  21
HETATM   21  S1  UNL     1       2.473  41.082  45.773  1.00  0.00     0.252 S 
HETATM   22  O3  UNL     1       1.167  40.991  45.055  1.00  0.00    -0.572 OA
HETATM   23  O4  UNL     1       3.350  39.982  45.187  1.00  0.00    -0.572 OA
HETATM   24  O5  UNL     1       3.198  42.525  45.298  1.00  0.00    -0.572 OA
ENDBRANCH  20  21
ENDBRANCH  11  20
BRANCH  12  25
HETATM   25  O6  UNL     1       2.484  42.898  48.915  1.00  0.00    -0.392 OA
ATOM     26  H6  UNL     1       2.316  43.285  48.065  1.00  0.00     0.210 HD
ENDBRANCH  12  25
ENDBRANCH   7   8
ENDBRANCH   2   7
BRANCH   1  27
HETATM   27  N1  UNL     1       8.141  42.210  53.072  1.00  0.00    -0.068 N 
HETATM   28  C1  UNL     1       7.649  43.405  52.424  1.00  0.00     0.267 C 
ATOM     29  H12 UNL     1       8.849  41.752  52.498  1.00  0.00     0.277 HD
ATOM     30  H11 UNL     1       8.711  42.446  53.884  1.00  0.00     0.277 HD
ENDBRANCH   1  27
BRANCH   6  31
HETATM   31  O9  UNL     1       8.967  40.730  54.863  1.00  0.00    -0.391 OA
ATOM     32  H9  UNL     1       9.607  40.614  54.171  1.00  0.00     0.210 HD
ENDBRANCH   6  31
BRANCH   4  33
HETATM   33  C13 UNL     1       7.217  37.535  52.080  1.00  0.00     0.190 C 
BRANCH  33  34
HETATM   34  N3  UNL     1       7.703  36.290  52.599  1.00  0.00    -0.250 N 
ATOM     35  H3  UNL     1       8.647  36.008  52.337  1.00  0.00     0.197 HD
BRANCH  34  36
HETATM   36  N4  UNL     1       7.072  35.540  53.334  1.00  0.00    -0.248 NA
BRANCH  36  37
HETATM   37  N5  UNL     1       6.203  35.032  54.049  1.00  0.00    -0.261 N 
ATOM     38  H52 UNL     1       5.839  34.437  53.304  1.00  0.00     0.193 HD
ATOM     39  H51 UNL     1       5.599  34.784  54.833  1.00  0.00     0.193 HD
ENDBRANCH  36  37
ENDBRANCH  34  36
ENDBRANCH  33  34
ENDBRANCH   4  33
BRANCH   5  40
HETATM   40  O8  UNL     1       6.505  38.259  54.381  1.00  0.00    -0.390 OA
ATOM     41  H8  UNL     1       6.299  37.527  53.810  1.00  0.00     0.210 HD
ENDBRANCH   5  40
TORSDOF 13
ENDMDL
MODEL 3
REMARK VINA RESULT: -5.562025192      3.208      6.586
REMARK  13 active torsions:
REMARK  status: ('A' for Active; 'I' for Inactive)
REMARK    1  A    between atoms: N1_2  and  C2_5 
REMARK    2  A    between atoms: C3_6  and  O1_7 
REMARK    3  A    between atoms: O1_7  and  C4_8 
REMARK    4  A    between atoms: C5_9  and  N2_10 
REMARK    5  A    between atoms: C7_15  and  O2_16 
REMARK    6  A    between atoms: O2_16  and  S1_17 
REMARK    7  A    between atoms: C8_21  and  O6_22 
REMARK    8  A    between atoms: C12_28  and  C13_29 
REMARK    9  A    between atoms: C13_29  and  N3_30 
REMARK   10  A    between atoms: N3_30  and  N4_32 
REMARK   11  A    between atoms: N4_32  and  N5_33 
REMARK   12  A    between atoms: C14_36  and  O8_37 
REMARK   13  A    between atoms: C15_39  and  O9_40 
ROOT
HETATM    1  C2  UNL     1       3.374  42.572  50.184  1.00  0.00     0.271 C 
HETATM    2  C3  UNL     1       3.773  41.140  50.195  1.00  0.00     0.294 C 
HETATM    3  O7  UNL     1       2.684  40.427  50.719  1.00  0.00    -0.349 OA
HETATM    4  C12 UNL     1       1.664  40.318  49.782  1.00  0.00     0.176 C 
HETATM    5  C14 UNL     1       1.567  41.464  48.841  1.00  0.00     0.179 C 
HETATM    6  C15 UNL     1       2.099  42.765  49.384  1.00  0.00     0.185 C 
ENDROOT
BRANCH   2   7
HETATM    7  O1  UNL     1       4.833  40.909  51.035  1.00  0.00    -0.351 OA
BRANCH   7   8
HETATM    8  C4  UNL     1       6.059  40.971  50.387  1.00  0.00     0.165 C 
HETATM    9  C5  UNL     1       6.189  39.796  49.440  1.00  0.00     0.215 C 
HETATM   10  C6  UNL     1       7.604  39.794  48.836  1.00  0.00     0.071 C 
HETATM   11  C7  UNL     1       8.515  39.421  49.960  1.00  0.00     0.176 C 
HETATM   12  C8  UNL     1       8.266  40.106  51.260  1.00  0.00     0.159 C 
HETATM   13  C9  UNL     1       7.214  41.156  51.287  1.00  0.00     0.009 C 
HETATM   14  C10 UNL     1       7.876  42.523  51.068  1.00  0.00     0.020 C 
HETATM   15  C11 UNL     1       6.659  41.213  52.720  1.00  0.00     0.020 C 
BRANCH   9  16
HETATM   16  N2  UNL     1       5.892  38.541  50.093  1.00  0.00    -0.072 N 
ATOM     17  H23 UNL     1       5.389  38.689  50.968  1.00  0.00     0.274 HD
ATOM     18  H22 UNL     1       5.179  38.018  49.584  1.00  0.00     0.274 HD
ATOM     19  H21 UNL     1       6.731  37.979  50.238  1.00  0.00     0.274 HD
ENDBRANCH   9  16
BRANCH  11  20
HETATM   20  O2  UNL     1       9.850  39.373  49.604  1.00  0.00    -0.249 OA
BRANCH  20  21
HETATM   21  S1  UNL     1      10.668  38.004  49.936  1.00  0.00     0.252 S 
HETATM   22  O3  UNL     1       9.882  36.738  49.847  1.00  0.00    -0.572 OA
HETATM   23  O4  UNL     1      11.154  38.094  51.378  1.00  0.00    -0.572 OA
HETATM   24  O5  UNL     1      12.060  37.788  49.013  1.00  0.00    -0.572 OA
ENDBRANCH  20  21
ENDBRANCH  11  20
BRANCH  12  25
HETATM   25  O6  UNL     1       9.455  40.724  51.729  1.00  0.00    -0.392 OA
ATOM     26  H6  UNL     1       9.866  40.188  52.396  1.00  0.00     0.210 HD
ENDBRANCH  12  25
ENDBRANCH   7   8
ENDBRANCH   2   7
BRANCH   1  27
HETATM   27  N1  UNL     1       3.081  43.030  51.529  1.00  0.00    -0.068 N 
HETATM   28  C1  UNL     1       4.108  43.888  52.077  1.00  0.00     0.267 C 
ATOM     29  H12 UNL     1       2.899  42.241  52.149  1.00  0.00     0.277 HD
ATOM     30  H11 UNL     1       2.170  43.487  51.566  1.00  0.00     0.277 HD
ENDBRANCH   1  27
BRANCH   6  31
HETATM   31  O9  UNL     1       1.105  43.420  50.107  1.00  0.00    -0.391 OA
ATOM     32  H9  UNL     1       1.212  44.364  50.103  1.00  0.00     0.210 HD
ENDBRANCH   6  31
BRANCH   4  33
HETATM   33  C13 UNL     1       1.950  39.067  48.938  1.00  0.00     0.190 C 
BRANCH  33  34
HETATM   34  N3  UNL     1       2.288  37.945  49.763  1.00  0.00    -0.250 N 
ATOM     35  H3  UNL     1       1.942  37.945  50.722  1.00  0.00     0.197 HD
BRANCH  34  36
HETATM   36  N4  UNL     1       2.961  36.985  49.405  1.00  0.00    -0.248 NA
BRANCH  36  37
HETATM   37  N5  UNL     1       3.578  35.917  49.366  1.00  0.00    -0.261 N 
ATOM     38  H52 UNL     1       2.989  35.469  50.069  1.00  0.00     0.193 HD
ATOM     39  H51 UNL     1       4.241  35.174  49.142  1.00  0.00     0.193 HD
ENDBRANCH  36  37
ENDBRANCH  34  36
ENDBRANCH  33  34
ENDBRANCH   4  33
BRANCH   5  40
HETATM   40  O8  UNL     1       2.098  41.178  47.578  1.00  0.00    -0.390 OA
ATOM     41  H8  UNL     1       1.639  40.475  47.134  1.00  0.00     0.210 HD
ENDBRANCH   5  40
TORSDOF 13
ENDMDL
MODEL 4
REMARK VINA RESULT: -5.541248523      4.258      6.432
REMARK  13 active torsions:
REMARK  status: ('A' for Active; 'I' for Inactive)
REMARK    1  A    between atoms: N1_2  and  C2_5 
REMARK    2  A    between atoms: C3_6  and  O1_7 
REMARK    3  A    between atoms: O1_7  and  C4_8 
REMARK    4  A    between atoms: C5_9  and  N2_10 
REMARK    5  A    between atoms: C7_15  and  O2_16 
REMARK    6  A    between atoms: O2_16  and  S1_17 
REMARK    7  A    between atoms: C8_21  and  O6_22 
REMARK    8  A    between atoms: C12_28  and  C13_29 
REMARK    9  A    between atoms: C13_29  and  N3_30 
REMARK   10  A    between atoms: N3_30  and  N4_32 
REMARK   11  A    between atoms: N4_32  and  N5_33 
REMARK   12  A    between atoms: C14_36  and  O8_37 
REMARK   13  A    between atoms: C15_39  and  O9_40 
ROOT
HETATM    1  C2  UNL     1      10.766  43.543  51.548  1.00  0.00     0.271 C 
HETATM    2  C3  UNL     1       9.282  43.617  51.573  1.00  0.00     0.294 C 
HETATM    3  O7  UNL     1       8.940  44.381  52.700  1.00  0.00    -0.349 OA
HETATM    4  C12 UNL     1       9.179  45.731  52.476  1.00  0.00     0.176 C 
HETATM    5  C14 UNL     1      10.315  46.012  51.561  1.00  0.00     0.179 C 
HETATM    6  C15 UNL     1      11.370  44.936  51.525  1.00  0.00     0.185 C 
ENDROOT
BRANCH   2   7
HETATM    7  O1  UNL     1       8.708  42.382  51.748  1.00  0.00    -0.351 OA
BRANCH   7   8
HETATM    8  C4  UNL     1       7.671  42.137  50.859  1.00  0.00     0.165 C 
HETATM    9  C5  UNL     1       6.469  42.974  51.244  1.00  0.00     0.215 C 
HETATM   10  C6  UNL     1       5.282  42.590  50.344  1.00  0.00     0.071 C 
HETATM   11  C7  UNL     1       4.886  41.215  50.775  1.00  0.00     0.176 C 
HETATM   12  C8  UNL     1       6.000  40.247  50.986  1.00  0.00     0.159 C 
HETATM   13  C9  UNL     1       7.374  40.707  50.652  1.00  0.00     0.009 C 
HETATM   14  C10 UNL     1       7.705  40.273  49.217  1.00  0.00     0.020 C 
HETATM   15  C11 UNL     1       8.350  39.914  51.537  1.00  0.00     0.020 C 
BRANCH   9  16
HETATM   16  N2  UNL     1       6.137  42.831  52.644  1.00  0.00    -0.072 N 
ATOM     17  H23 UNL     1       6.451  41.931  53.009  1.00  0.00     0.274 HD
ATOM     18  H22 UNL     1       6.707  43.447  53.225  1.00  0.00     0.274 HD
ATOM     19  H21 UNL     1       5.142  42.975  52.817  1.00  0.00     0.274 HD
ENDBRANCH   9  16
BRANCH  11  20
HETATM   20  O2  UNL     1       3.822  40.692  50.064  1.00  0.00    -0.249 OA
BRANCH  20  21
HETATM   21  S1  UNL     1       2.331  41.233  50.433  1.00  0.00     0.252 S 
HETATM   22  O3  UNL     1       1.245  40.208  50.417  1.00  0.00    -0.572 OA
HETATM   23  O4  UNL     1       1.943  42.270  49.385  1.00  0.00    -0.572 OA
HETATM   24  O5  UNL     1       2.231  42.037  51.909  1.00  0.00    -0.572 OA
ENDBRANCH  20  21
ENDBRANCH  11  20
BRANCH  12  25
HETATM   25  O6  UNL     1       5.780  39.068  50.225  1.00  0.00    -0.392 OA
ATOM     26  H6  UNL     1       5.773  39.271  49.297  1.00  0.00     0.210 HD
ENDBRANCH  12  25
ENDBRANCH   7   8
ENDBRANCH   2   7
BRANCH   1  27
HETATM   27  N1  UNL     1      11.265  42.905  52.751  1.00  0.00    -0.068 N 
HETATM   28  C1  UNL     1      11.975  41.672  52.491  1.00  0.00     0.267 C 
ATOM     29  H12 UNL     1      10.512  42.755  53.421  1.00  0.00     0.277 HD
ATOM     30  H11 UNL     1      11.844  43.549  53.290  1.00  0.00     0.277 HD
ENDBRANCH   1  27
BRANCH   6  31
HETATM   31  O9  UNL     1      12.291  45.138  52.550  1.00  0.00    -0.391 OA
ATOM     32  H9  UNL     1      13.054  45.626  52.264  1.00  0.00     0.210 HD
ENDBRANCH   6  31
BRANCH   4  33
HETATM   33  C13 UNL     1       7.920  46.316  51.820  1.00  0.00     0.190 C 
BRANCH  33  34
HETATM   34  N3  UNL     1       6.841  46.421  52.758  1.00  0.00    -0.250 N 
ATOM     35  H3  UNL     1       7.067  46.736  53.701  1.00  0.00     0.197 HD
BRANCH  34  36
HETATM   36  N4  UNL     1       5.668  46.163  52.515  1.00  0.00    -0.248 NA
BRANCH  36  37
HETATM   37  N5  UNL     1       4.476  45.855  52.608  1.00  0.00    -0.261 N 
ATOM     38  H52 UNL     1       4.660  44.852  52.567  1.00  0.00     0.193 HD
ATOM     39  H51 UNL     1       3.461  45.880  52.695  1.00  0.00     0.193 HD
ENDBRANCH  36  37
ENDBRANCH  34  36
ENDBRANCH  33  34
ENDBRANCH   4  33
BRANCH   5  40
HETATM   40  O8  UNL     1       9.903  46.370  50.273  1.00  0.00    -0.390 OA
ATOM     41  H8  UNL     1       9.633  47.279  50.210  1.00  0.00     0.210 HD
ENDBRANCH   5  40
TORSDOF 13
ENDMDL
MODEL 5
REMARK VINA RESULT: -5.512624412      3.395      7.359
REMARK  13 active torsions:
REMARK  status: ('A' for Active; 'I' for Inactive)
REMARK    1  A    between atoms: N1_2  and  C2_5 
REMARK    2  A    between atoms: C3_6  and  O1_7 
REMARK    3  A    between atoms: O1_7  and  C4_8 
REMARK    4  A    between atoms: C5_9  and  N2_10 
REMARK    5  A    between atoms: C7_15  and  O2_16 
REMARK    6  A    between atoms: O2_16  and  S1_17 
REMARK    7  A    between atoms: C8_21  and  O6_22 
REMARK    8  A    between atoms: C12_28  and  C13_29 
REMARK    9  A    between atoms: C13_29  and  N3_30 
REMARK   10  A    between atoms: N3_30  and  N4_32 
REMARK   11  A    between atoms: N4_32  and  N5_33 
REMARK   12  A    between atoms: C14_36  and  O8_37 
REMARK   13  A    between atoms: C15_39  and  O9_40 
ROOT
HETATM    1  C2  UNL     1       3.680  42.852  49.694  1.00  0.00     0.271 C 
HETATM    2  C3  UNL     1       4.368  41.534  49.711  1.00  0.00     0.294 C 
HETATM    3  O7  UNL     1       3.627  40.710  50.571  1.00  0.00    -0.349 OA
HETATM    4  C12 UNL     1       2.451  40.286  49.964  1.00  0.00     0.176 C 
HETATM    5  C14 UNL     1       1.874  41.255  48.996  1.00  0.00     0.179 C 
HETATM    6  C15 UNL     1       2.233  42.694  49.264  1.00  0.00     0.185 C 
ENDROOT
BRANCH   2   7
HETATM    7  O1  UNL     1       5.631  41.621  50.242  1.00  0.00    -0.351 OA
BRANCH   7   8
HETATM    8  C4  UNL     1       5.947  40.545  51.060  1.00  0.00     0.165 C 
HETATM    9  C5  UNL     1       5.989  41.006  52.503  1.00  0.00     0.215 C 
HETATM   10  C6  UNL     1       6.480  39.845  53.385  1.00  0.00     0.071 C 
HETATM   11  C7  UNL     1       7.925  39.673  53.046  1.00  0.00     0.176 C 
HETATM   12  C8  UNL     1       8.265  39.696  51.594  1.00  0.00     0.159 C 
HETATM   13  C9  UNL     1       7.136  39.784  50.631  1.00  0.00     0.009 C 
HETATM   14  C10 UNL     1       6.756  38.366  50.185  1.00  0.00     0.020 C 
HETATM   15  C11 UNL     1       7.669  40.466  49.360  1.00  0.00     0.020 C 
BRANCH   9  16
HETATM   16  N2  UNL     1       6.814  42.182  52.671  1.00  0.00    -0.072 N 
ATOM     17  H23 UNL     1       7.448  42.304  51.882  1.00  0.00     0.274 HD
ATOM     18  H22 UNL     1       6.265  43.036  52.570  1.00  0.00     0.274 HD
ATOM     19  H21 UNL     1       7.321  42.169  53.556  1.00  0.00     0.274 HD
ENDBRANCH   9  16
BRANCH  11  20
HETATM   20  O2  UNL     1       8.546  38.655  53.746  1.00  0.00    -0.249 OA
BRANCH  20  21
HETATM   21  S1  UNL     1       8.654  38.811  55.364  1.00  0.00     0.252 S 
HETATM   22  O3  UNL     1       8.957  40.184  55.866  1.00  0.00    -0.572 OA
HETATM   23  O4  UNL     1       9.803  37.929  55.837  1.00  0.00    -0.572 OA
HETATM   24  O5  UNL     1       7.302  38.265  56.204  1.00  0.00    -0.572 OA
ENDBRANCH  20  21
ENDBRANCH  11  20
BRANCH  12  25
HETATM   25  O6  UNL     1       8.998  38.532  51.241  1.00  0.00    -0.392 OA
ATOM     26  H6  UNL     1       8.541  38.047  50.563  1.00  0.00     0.210 HD
ENDBRANCH  12  25
ENDBRANCH   7   8
ENDBRANCH   2   7
BRANCH   1  27
HETATM   27  N1  UNL     1       3.646  43.427  51.026  1.00  0.00    -0.068 N 
HETATM   28  C1  UNL     1       4.600  44.498  51.210  1.00  0.00     0.267 C 
ATOM     29  H12 UNL     1       3.770  42.705  51.735  1.00  0.00     0.277 HD
ATOM     30  H11 UNL     1       2.704  43.736  51.263  1.00  0.00     0.277 HD
ENDBRANCH   1  27
BRANCH   6  31
HETATM   31  O9  UNL     1       1.338  43.245  50.177  1.00  0.00    -0.391 OA
ATOM     32  H9  UNL     1       0.752  43.878  49.779  1.00  0.00     0.210 HD
ENDBRANCH   6  31
BRANCH   4  33
HETATM   33  C13 UNL     1       2.777  39.008  49.179  1.00  0.00     0.190 C 
BRANCH  33  34
HETATM   34  N3  UNL     1       2.076  37.875  49.709  1.00  0.00    -0.250 N 
ATOM     35  H3  UNL     1       2.542  36.969  49.660  1.00  0.00     0.197 HD
BRANCH  34  36
HETATM   36  N4  UNL     1       0.961  37.910  50.215  1.00  0.00    -0.248 NA
BRANCH  36  37
HETATM   37  N5  UNL     1      -0.181  38.239  50.550  1.00  0.00    -0.261 N 
ATOM     38  H52 UNL     1      -0.339  38.804  49.716  1.00  0.00     0.193 HD
ATOM     39  H51 UNL     1      -1.062  38.351  51.051  1.00  0.00     0.193 HD
ENDBRANCH  36  37
ENDBRANCH  34  36
ENDBRANCH  33  34
ENDBRANCH   4  33
BRANCH   5  40
HETATM   40  O8  UNL     1       2.117  40.904  47.664  1.00  0.00    -0.390 OA
ATOM     41  H8  UNL     1       2.086  41.648  47.074  1.00  0.00     0.210 HD
ENDBRANCH   5  40
TORSDOF 13
ENDMDL
