MODEL 1
REMARK VINA RESULT: -8.224664253      0.000      0.000
REMARK  8 active torsions:
REMARK  status: ('A' for Active; 'I' for Inactive)
REMARK    1  A    between atoms: N1_2  and  C1_4 
REMARK    2  A    between atoms: C4_7  and  S1_8 
REMARK    3  A    between atoms: S1_8  and  N2_11 
REMARK    4  A    between atoms: N2_11  and  N3_13 
REMARK    5  A    between atoms: N3_13  and  C5_14 
REMARK    6  A    between atoms: N3_13  and  S2_23 
REMARK    7  A    between atoms: C6_20  and  O5_21 
REMARK    8  A    between atoms: S2_23  and  C7_26 
ROOT
HETATM    1  N3  UNL     1       6.146  40.188  51.227  1.00  0.00    -0.178 N 
ENDROOT
BRANCH   1   2
HETATM    2  N2  UNL     1       5.186  41.019  51.757  1.00  0.00    -0.209 N 
ATOM      3  H2  UNL     1       4.278  40.694  52.089  1.00  0.00     0.201 HD
BRANCH   2   4
HETATM    4  S1  UNL     1       5.685  42.682  51.801  1.00  0.00     0.276 S 
HETATM    5  O3  UNL     1       6.918  42.863  52.642  1.00  0.00    -0.199 OA
HETATM    6  O4  UNL     1       5.934  43.188  50.386  1.00  0.00    -0.199 OA
BRANCH   4   7
HETATM    7  C4  UNL     1       4.434  43.702  52.470  1.00  0.00     0.081 A 
HETATM    8  C3  UNL     1       3.202  43.187  52.865  1.00  0.00     0.028 A 
HETATM    9  C2  UNL     1       2.281  44.044  53.375  1.00  0.00     0.037 A 
HETATM   10  C1  UNL     1       2.550  45.395  53.505  1.00  0.00     0.102 A 
HETATM   11  C14 UNL     1       3.775  45.905  53.112  1.00  0.00     0.037 A 
HETATM   12  C13 UNL     1       4.706  45.048  52.597  1.00  0.00     0.028 A 
BRANCH  10  13
HETATM   13  N1  UNL     1       1.592  46.293  54.037  1.00  0.00    -0.116 N 
HETATM   14  O1  UNL     1       0.449  45.837  54.286  1.00  0.00    -0.532 OA
HETATM   15  O2  UNL     1       1.923  47.599  54.264  1.00  0.00    -0.532 OA
ENDBRANCH  10  13
ENDBRANCH   4   7
ENDBRANCH   2   4
ENDBRANCH   1   2
BRANCH   1  16
HETATM   16  C5  UNL     1       6.734  39.263  52.116  1.00  0.00     0.280 C 
HETATM   17  N4  UNL     1       6.307  39.548  53.489  1.00  0.00    -0.095 NA
HETATM   18  N5  UNL     1       7.035  38.679  54.310  1.00  0.00    -0.015 NA
HETATM   19  N6  UNL     1       8.383  39.008  54.396  1.00  0.00    -0.015 NA
HETATM   20  N7  UNL     1       8.937  39.415  53.201  1.00  0.00    -0.290 N 
HETATM   21  C6  UNL     1       8.198  39.036  52.032  1.00  0.00     0.273 C 
ATOM     22  H7  UNL     1       9.807  39.944  53.152  1.00  0.00     0.180 HD
BRANCH  21  23
HETATM   23  O5  UNL     1       8.470  37.653  51.847  1.00  0.00    -0.372 OA
ATOM     24  H5  UNL     1       9.306  37.538  51.411  1.00  0.00     0.212 HD
ENDBRANCH  21  23
ENDBRANCH   1  16
BRANCH   1  25
HETATM   25  S2  UNL     1       5.809  39.564  49.696  1.00  0.00     0.280 S 
HETATM   26  O6  UNL     1       6.765  40.195  48.675  1.00  0.00    -0.199 OA
HETATM   27  O7  UNL     1       6.100  38.087  49.601  1.00  0.00    -0.199 OA
BRANCH  25  28
HETATM   28  C7  UNL     1       4.212  39.933  49.100  1.00  0.00     0.081 A 
HETATM   29  C8  UNL     1       3.174  39.054  49.285  1.00  0.00     0.025 A 
HETATM   30  C9  UNL     1       1.923  39.381  48.820  1.00  0.00     0.002 A 
HETATM   31  C10 UNL     1       1.665  40.570  48.167  1.00  0.00     0.000 A 
HETATM   32  C11 UNL     1       2.710  41.450  47.985  1.00  0.00     0.002 A 
HETATM   33  C12 UNL     1       3.973  41.118  48.456  1.00  0.00     0.025 A 
ENDBRANCH  25  28
ENDBRANCH   1  25
TORSDOF 8
ENDMDL
MODEL 2
REMARK VINA RESULT: -8.170022637      0.269      1.389
REMARK  8 active torsions:
REMARK  status: ('A' for Active; 'I' for Inactive)
REMARK    1  A    between atoms: N1_2  and  C1_4 
REMARK    2  A    between atoms: C4_7  and  S1_8 
REMARK    3  A    between atoms: S1_8  and  N2_11 
REMARK    4  A    between atoms: N2_11  and  N3_13 
REMARK    5  A    between atoms: N3_13  and  C5_14 
REMARK    6  A    between atoms: N3_13  and  S2_23 
REMARK    7  A    between atoms: C6_20  and  O5_21 
REMARK    8  A    between atoms: S2_23  and  C7_26 
ROOT
HETATM    1  N3  UNL     1       6.114  40.255  51.316  1.00  0.00    -0.178 N 
ENDROOT
BRANCH   1   2
HETATM    2  N2  UNL     1       5.137  41.073  51.833  1.00  0.00    -0.209 N 
ATOM      3  H2  UNL     1       4.248  40.730  52.197  1.00  0.00     0.201 HD
BRANCH   2   4
HETATM    4  S1  UNL     1       5.578  42.752  51.798  1.00  0.00     0.276 S 
HETATM    5  O3  UNL     1       6.830  43.008  52.589  1.00  0.00    -0.199 OA
HETATM    6  O4  UNL     1       5.760  43.214  50.358  1.00  0.00    -0.199 OA
BRANCH   4   7
HETATM    7  C4  UNL     1       4.314  43.754  52.473  1.00  0.00     0.081 A 
HETATM    8  C3  UNL     1       4.501  45.116  52.697  1.00  0.00     0.028 A 
HETATM    9  C2  UNL     1       3.471  45.828  53.223  1.00  0.00     0.037 A 
HETATM   10  C1  UNL     1       2.265  45.225  53.532  1.00  0.00     0.102 A 
HETATM   11  C14 UNL     1       2.081  43.872  53.309  1.00  0.00     0.037 A 
HETATM   12  C13 UNL     1       3.114  43.150  52.780  1.00  0.00     0.028 A 
BRANCH  10  13
HETATM   13  N1  UNL     1       1.187  45.963  54.082  1.00  0.00    -0.116 N 
HETATM   14  O1  UNL     1       1.441  47.109  54.527  1.00  0.00    -0.532 OA
HETATM   15  O2  UNL     1      -0.069  45.428  54.115  1.00  0.00    -0.532 OA
ENDBRANCH  10  13
ENDBRANCH   4   7
ENDBRANCH   2   4
ENDBRANCH   1   2
BRANCH   1  16
HETATM   16  C5  UNL     1       6.696  39.331  52.211  1.00  0.00     0.280 C 
HETATM   17  N4  UNL     1       6.290  39.642  53.584  1.00  0.00    -0.095 NA
HETATM   18  N5  UNL     1       7.012  38.772  54.408  1.00  0.00    -0.015 NA
HETATM   19  N6  UNL     1       8.367  39.078  54.475  1.00  0.00    -0.015 NA
HETATM   20  N7  UNL     1       8.914  39.458  53.269  1.00  0.00    -0.290 N 
HETATM   21  C6  UNL     1       8.154  39.077  52.113  1.00  0.00     0.273 C 
ATOM     22  H7  UNL     1       9.793  39.971  53.203  1.00  0.00     0.180 HD
BRANCH  21  23
HETATM   23  O5  UNL     1       8.400  37.686  51.944  1.00  0.00    -0.372 OA
ATOM     24  H5  UNL     1       9.319  37.536  51.758  1.00  0.00     0.212 HD
ENDBRANCH  21  23
ENDBRANCH   1  16
BRANCH   1  25
HETATM   25  S2  UNL     1       5.812  39.635  49.776  1.00  0.00     0.280 S 
HETATM   26  O6  UNL     1       6.722  40.340  48.762  1.00  0.00    -0.199 OA
HETATM   27  O7  UNL     1       6.193  38.181  49.657  1.00  0.00    -0.199 OA
BRANCH  25  28
HETATM   28  C7  UNL     1       4.192  39.913  49.191  1.00  0.00     0.081 A 
HETATM   29  C8  UNL     1       3.881  41.064  48.511  1.00  0.00     0.025 A 
HETATM   30  C9  UNL     1       2.601  41.248  48.046  1.00  0.00     0.002 A 
HETATM   31  C10 UNL     1       1.605  40.310  48.237  1.00  0.00     0.000 A 
HETATM   32  C11 UNL     1       1.922  39.156  48.919  1.00  0.00     0.002 A 
HETATM   33  C12 UNL     1       3.216  38.973  49.387  1.00  0.00     0.025 A 
ENDBRANCH  25  28
ENDBRANCH   1  25
TORSDOF 8
ENDMDL
MODEL 3
REMARK VINA RESULT: -7.864181484      1.827      2.519
REMARK  8 active torsions:
REMARK  status: ('A' for Active; 'I' for Inactive)
REMARK    1  A    between atoms: N1_2  and  C1_4 
REMARK    2  A    between atoms: C4_7  and  S1_8 
REMARK    3  A    between atoms: S1_8  and  N2_11 
REMARK    4  A    between atoms: N2_11  and  N3_13 
REMARK    5  A    between atoms: N3_13  and  C5_14 
REMARK    6  A    between atoms: N3_13  and  S2_23 
REMARK    7  A    between atoms: C6_20  and  O5_21 
REMARK    8  A    between atoms: S2_23  and  C7_26 
ROOT
HETATM    1  N3  UNL     1       5.354  41.070  50.102  1.00  0.00    -0.178 N 
ENDROOT
BRANCH   1   2
HETATM    2  N2  UNL     1       5.100  41.426  51.406  1.00  0.00    -0.209 N 
ATOM      3  H2  UNL     1       4.584  40.840  52.062  1.00  0.00     0.201 HD
BRANCH   2   4
HETATM    4  S1  UNL     1       5.753  42.982  51.818  1.00  0.00     0.276 S 
HETATM    5  O3  UNL     1       6.857  42.863  52.831  1.00  0.00    -0.199 OA
HETATM    6  O4  UNL     1       6.261  43.682  50.564  1.00  0.00    -0.199 OA
BRANCH   4   7
HETATM    7  C4  UNL     1       4.526  44.026  52.494  1.00  0.00     0.081 A 
HETATM    8  C3  UNL     1       4.741  45.392  52.667  1.00  0.00     0.028 A 
HETATM    9  C2  UNL     1       3.739  46.138  53.199  1.00  0.00     0.037 A 
HETATM   10  C1  UNL     1       2.532  45.567  53.561  1.00  0.00     0.102 A 
HETATM   11  C14 UNL     1       2.320  44.210  53.388  1.00  0.00     0.037 A 
HETATM   12  C13 UNL     1       3.325  43.454  52.854  1.00  0.00     0.028 A 
BRANCH  10  13
HETATM   13  N1  UNL     1       1.483  46.340  54.116  1.00  0.00    -0.116 N 
HETATM   14  O1  UNL     1       0.366  45.782  54.255  1.00  0.00    -0.532 OA
HETATM   15  O2  UNL     1       1.701  47.639  54.480  1.00  0.00    -0.532 OA
ENDBRANCH  10  13
ENDBRANCH   4   7
ENDBRANCH   2   4
ENDBRANCH   1   2
BRANCH   1  16
HETATM   16  C5  UNL     1       6.245  39.992  49.909  1.00  0.00     0.280 C 
HETATM   17  N4  UNL     1       6.557  39.365  51.197  1.00  0.00    -0.095 NA
HETATM   18  N5  UNL     1       7.540  38.404  50.932  1.00  0.00    -0.015 NA
HETATM   19  N6  UNL     1       8.776  38.957  50.619  1.00  0.00    -0.015 NA
HETATM   20  N7  UNL     1       8.702  40.072  49.812  1.00  0.00    -0.290 N 
HETATM   21  C6  UNL     1       7.466  40.221  49.099  1.00  0.00     0.273 C 
ATOM     22  H7  UNL     1       9.468  40.740  49.729  1.00  0.00     0.180 HD
BRANCH  21  23
HETATM   23  O5  UNL     1       7.532  39.283  48.033  1.00  0.00    -0.372 OA
ATOM     24  H5  UNL     1       7.274  39.696  47.217  1.00  0.00     0.212 HD
ENDBRANCH  21  23
ENDBRANCH   1  16
BRANCH   1  25
HETATM   25  S2  UNL     1       4.018  41.060  49.072  1.00  0.00     0.280 S 
HETATM   26  O6  UNL     1       3.262  42.388  49.217  1.00  0.00    -0.199 OA
HETATM   27  O7  UNL     1       4.414  41.025  47.618  1.00  0.00    -0.199 OA
BRANCH  25  28
HETATM   28  C7  UNL     1       2.834  39.831  49.435  1.00  0.00     0.081 A 
HETATM   29  C8  UNL     1       1.599  40.171  49.928  1.00  0.00     0.025 A 
HETATM   30  C9  UNL     1       0.681  39.182  50.188  1.00  0.00     0.002 A 
HETATM   31  C10 UNL     1       0.955  37.846  49.971  1.00  0.00     0.000 A 
HETATM   32  C11 UNL     1       2.196  37.509  49.475  1.00  0.00     0.002 A 
HETATM   33  C12 UNL     1       3.121  38.510  49.213  1.00  0.00     0.025 A 
ENDBRANCH  25  28
ENDBRANCH   1  25
TORSDOF 8
ENDMDL
MODEL 4
REMARK VINA RESULT: -7.749237549      2.265      4.854
REMARK  8 active torsions:
REMARK  status: ('A' for Active; 'I' for Inactive)
REMARK    1  A    between atoms: N1_2  and  C1_4 
REMARK    2  A    between atoms: C4_7  and  S1_8 
REMARK    3  A    between atoms: S1_8  and  N2_11 
REMARK    4  A    between atoms: N2_11  and  N3_13 
REMARK    5  A    between atoms: N3_13  and  C5_14 
REMARK    6  A    between atoms: N3_13  and  S2_23 
REMARK    7  A    between atoms: C6_20  and  O5_21 
REMARK    8  A    between atoms: S2_23  and  C7_26 
ROOT
HETATM    1  N3  UNL     1       5.052  40.442  50.016  1.00  0.00    -0.178 N 
ENDROOT
BRANCH   1   2
HETATM    2  N2  UNL     1       5.429  41.764  50.071  1.00  0.00    -0.209 N 
ATOM      3  H2  UNL     1       5.431  42.385  49.261  1.00  0.00     0.201 HD
BRANCH   2   4
HETATM    4  S1  UNL     1       5.901  42.263  51.666  1.00  0.00     0.276 S 
HETATM    5  O3  UNL     1       5.789  41.133  52.651  1.00  0.00    -0.199 OA
HETATM    6  O4  UNL     1       7.326  42.802  51.642  1.00  0.00    -0.199 OA
BRANCH   4   7
HETATM    7  C4  UNL     1       4.896  43.570  52.245  1.00  0.00     0.081 A 
HETATM    8  C3  UNL     1       5.353  44.886  52.277  1.00  0.00     0.028 A 
HETATM    9  C2  UNL     1       4.513  45.847  52.741  1.00  0.00     0.037 A 
HETATM   10  C1  UNL     1       3.235  45.537  53.172  1.00  0.00     0.102 A 
HETATM   11  C14 UNL     1       2.783  44.230  53.139  1.00  0.00     0.037 A 
HETATM   12  C13 UNL     1       3.624  43.258  52.673  1.00  0.00     0.028 A 
BRANCH  10  13
HETATM   13  N1  UNL     1       2.354  46.536  53.656  1.00  0.00    -0.116 N 
HETATM   14  O1  UNL     1       2.699  47.733  53.502  1.00  0.00    -0.532 OA
HETATM   15  O2  UNL     1       1.182  46.186  54.263  1.00  0.00    -0.532 OA
ENDBRANCH  10  13
ENDBRANCH   4   7
ENDBRANCH   2   4
ENDBRANCH   1   2
BRANCH   1  16
HETATM   16  C5  UNL     1       3.770  40.178  49.487  1.00  0.00     0.280 C 
HETATM   17  N4  UNL     1       3.713  40.593  48.082  1.00  0.00    -0.095 NA
HETATM   18  N5  UNL     1       2.384  40.423  47.681  1.00  0.00    -0.015 NA
HETATM   19  N6  UNL     1       1.517  41.349  48.249  1.00  0.00    -0.015 NA
HETATM   20  N7  UNL     1       1.781  41.624  49.573  1.00  0.00    -0.290 N 
HETATM   21  C6  UNL     1       2.583  40.643  50.246  1.00  0.00     0.273 C 
ATOM     22  H7  UNL     1       1.433  42.462  50.039  1.00  0.00     0.180 HD
BRANCH  21  23
HETATM   23  O5  UNL     1       1.707  39.554  50.504  1.00  0.00    -0.372 OA
ATOM     24  H5  UNL     1       1.168  39.739  51.263  1.00  0.00     0.212 HD
ENDBRANCH  21  23
ENDBRANCH   1  16
BRANCH   1  25
HETATM   25  S2  UNL     1       6.246  39.360  49.517  1.00  0.00     0.280 S 
HETATM   26  O6  UNL     1       5.592  38.017  49.164  1.00  0.00    -0.199 OA
HETATM   27  O7  UNL     1       6.910  39.788  48.233  1.00  0.00    -0.199 OA
BRANCH  25  28
HETATM   28  C7  UNL     1       7.427  38.973  50.741  1.00  0.00     0.081 A 
HETATM   29  C8  UNL     1       7.171  38.006  51.682  1.00  0.00     0.025 A 
HETATM   30  C9  UNL     1       8.127  37.710  52.623  1.00  0.00     0.002 A 
HETATM   31  C10 UNL     1       9.349  38.353  52.661  1.00  0.00     0.000 A 
HETATM   32  C11 UNL     1       9.602  39.323  51.714  1.00  0.00     0.002 A 
HETATM   33  C12 UNL     1       8.634  39.619  50.765  1.00  0.00     0.025 A 
ENDBRANCH  25  28
ENDBRANCH   1  25
TORSDOF 8
ENDMDL
MODEL 5
REMARK VINA RESULT: -7.744571024      1.828      2.309
REMARK  8 active torsions:
REMARK  status: ('A' for Active; 'I' for Inactive)
REMARK    1  A    between atoms: N1_2  and  C1_4 
REMARK    2  A    between atoms: C4_7  and  S1_8 
REMARK    3  A    between atoms: S1_8  and  N2_11 
REMARK    4  A    between atoms: N2_11  and  N3_13 
REMARK    5  A    between atoms: N3_13  and  C5_14 
REMARK    6  A    between atoms: N3_13  and  S2_23 
REMARK    7  A    between atoms: C6_20  and  O5_21 
REMARK    8  A    between atoms: S2_23  and  C7_26 
ROOT
HETATM    1  N3  UNL     1       5.429  40.934  50.131  1.00  0.00    -0.178 N 
ENDROOT
BRANCH   1   2
HETATM    2  N2  UNL     1       5.206  41.271  51.446  1.00  0.00    -0.209 N 
ATOM      3  H2  UNL     1       4.764  40.648  52.122  1.00  0.00     0.201 HD
BRANCH   2   4
HETATM    4  S1  UNL     1       5.756  42.873  51.832  1.00  0.00     0.276 S 
HETATM    5  O3  UNL     1       6.871  42.842  52.840  1.00  0.00    -0.199 OA
HETATM    6  O4  UNL     1       6.208  43.588  50.566  1.00  0.00    -0.199 OA
BRANCH   4   7
HETATM    7  C4  UNL     1       4.465  43.842  52.502  1.00  0.00     0.081 A 
HETATM    8  C3  UNL     1       3.239  43.285  52.857  1.00  0.00     0.028 A 
HETATM    9  C2  UNL     1       2.285  44.103  53.372  1.00  0.00     0.037 A 
HETATM   10  C1  UNL     1       2.516  45.456  53.544  1.00  0.00     0.102 A 
HETATM   11  C14 UNL     1       3.736  46.008  53.192  1.00  0.00     0.037 A 
HETATM   12  C13 UNL     1       4.699  45.190  52.673  1.00  0.00     0.028 A 
BRANCH  10  13
HETATM   13  N1  UNL     1       1.526  46.315  54.081  1.00  0.00    -0.116 N 
HETATM   14  O1  UNL     1       0.380  45.833  54.259  1.00  0.00    -0.532 OA
HETATM   15  O2  UNL     1       1.828  47.611  54.386  1.00  0.00    -0.532 OA
ENDBRANCH  10  13
ENDBRANCH   4   7
ENDBRANCH   2   4
ENDBRANCH   1   2
BRANCH   1  16
HETATM   16  C5  UNL     1       6.280  39.831  49.903  1.00  0.00     0.280 C 
HETATM   17  N4  UNL     1       6.610  39.182  51.176  1.00  0.00    -0.095 NA
HETATM   18  N5  UNL     1       7.554  38.195  50.875  1.00  0.00    -0.015 NA
HETATM   19  N6  UNL     1       8.798  38.712  50.530  1.00  0.00    -0.015 NA
HETATM   20  N7  UNL     1       8.735  39.836  49.735  1.00  0.00    -0.290 N 
HETATM   21  C6  UNL     1       7.484  40.030  49.060  1.00  0.00     0.273 C 
ATOM     22  H7  UNL     1       9.518  40.481  49.634  1.00  0.00     0.180 HD
BRANCH  21  23
HETATM   23  O5  UNL     1       7.489  39.100  47.984  1.00  0.00    -0.372 OA
ATOM     24  H5  UNL     1       7.281  39.540  47.169  1.00  0.00     0.212 HD
ENDBRANCH  21  23
ENDBRANCH   1  16
BRANCH   1  25
HETATM   25  S2  UNL     1       4.080  40.991  49.121  1.00  0.00     0.280 S 
HETATM   26  O6  UNL     1       3.337  42.314  49.348  1.00  0.00    -0.199 OA
HETATM   27  O7  UNL     1       4.456  41.032  47.661  1.00  0.00    -0.199 OA
BRANCH  25  28
HETATM   28  C7  UNL     1       2.891  39.753  49.433  1.00  0.00     0.081 A 
HETATM   29  C8  UNL     1       3.181  38.430  49.208  1.00  0.00     0.025 A 
HETATM   30  C9  UNL     1       2.230  37.476  49.480  1.00  0.00     0.002 A 
HETATM   31  C10 UNL     1       0.982  37.797  49.975  1.00  0.00     0.000 A 
HETATM   32  C11 UNL     1       0.695  39.127  50.200  1.00  0.00     0.002 A 
HETATM   33  C12 UNL     1       1.658  40.088  49.925  1.00  0.00     0.025 A 
ENDBRANCH  25  28
ENDBRANCH   1  25
TORSDOF 8
ENDMDL
