MODEL 1
REMARK VINA RESULT: -7.362306607      0.000      0.000
REMARK  13 active torsions:
REMARK  status: ('A' for Active; 'I' for Inactive)
REMARK    1  A    between atoms: N1_1  and  C1_5 
REMARK    2  A    between atoms: C3_7  and  N2_8 
REMARK    3  A    between atoms: C4_12  and  O1_13 
REMARK    4  A    between atoms: O1_13  and  C5_14 
REMARK    5  A    between atoms: C5_14  and  C6_15 
REMARK    6  A    between atoms: C12_21  and  O2_22 
REMARK    7  A    between atoms: C13_24  and  N3_25 
REMARK    8  A    between atoms: N3_25  and  C14_28 
REMARK    9  A    between atoms: C16_30  and  O3_31 
REMARK   10  A    between atoms: O3_31  and  C17_32 
REMARK   11  A    between atoms: C17_32  and  C18_34 
REMARK   12  A    between atoms: C22_39  and  O6_40 
REMARK   13  A    between atoms: C23_42  and  N4_43 
ROOT
HETATM    1  C1  UNL     1       2.341  39.631  49.856  1.00  0.00     0.218 C 
HETATM    2  C2  UNL     1       1.495  40.823  49.468  1.00  0.00     0.070 C 
HETATM    3  C3  UNL     1       2.445  42.030  49.545  1.00  0.00     0.216 C 
HETATM    4  C4  UNL     1       3.222  41.846  50.810  1.00  0.00     0.183 C 
HETATM    5  C12 UNL     1       4.426  40.923  50.386  1.00  0.00     0.181 C 
HETATM    6  C13 UNL     1       3.815  39.837  49.565  1.00  0.00     0.247 C 
ENDROOT
BRANCH   6   7
HETATM    7  N3  UNL     1       4.454  38.553  49.741  1.00  0.00    -0.060 N 
ATOM      8  H32 UNL     1       4.630  38.378  50.730  1.00  0.00     0.278 HD
ATOM      9  H31 UNL     1       3.795  37.800  49.543  1.00  0.00     0.278 HD
BRANCH   7  10
HETATM   10  C14 UNL     1       5.649  38.376  48.988  1.00  0.00     0.222 C 
HETATM   11  C15 UNL     1       6.807  38.340  49.981  1.00  0.00     0.070 C 
HETATM   12  C16 UNL     1       7.538  37.059  49.731  1.00  0.00     0.165 C 
HETATM   13  C22 UNL     1       6.404  36.163  49.216  1.00  0.00     0.180 C 
HETATM   14  C23 UNL     1       5.741  37.099  48.225  1.00  0.00     0.245 C 
BRANCH  12  15
HETATM   15  O3  UNL     1       8.004  36.441  50.919  1.00  0.00    -0.309 OA
BRANCH  15  16
HETATM   16  C17 UNL     1       8.334  37.200  52.020  1.00  0.00     0.291 C 
HETATM   17  O4  UNL     1       9.383  37.899  51.939  1.00  0.00    -0.260 OA
BRANCH  16  18
HETATM   18  C18 UNL     1       7.526  37.216  53.243  1.00  0.00     0.041 C 
HETATM   19  C19 UNL     1       7.073  38.303  53.838  1.00  0.00     0.147 C 
HETATM   20  O5  UNL     1       6.338  37.976  54.976  1.00  0.00    -0.362 OA
HETATM   21  C20 UNL     1       6.745  36.670  55.373  1.00  0.00     0.179 C 
HETATM   22  C21 UNL     1       7.072  36.065  54.024  1.00  0.00     0.073 C 
ENDBRANCH  16  18
ENDBRANCH  15  16
ENDBRANCH  12  15
BRANCH  13  23
HETATM   23  O6  UNL     1       6.883  35.019  48.624  1.00  0.00    -0.391 OA
ATOM     24  H6  UNL     1       6.477  34.860  47.779  1.00  0.00     0.210 HD
ENDBRANCH  13  23
BRANCH  14  25
HETATM   25  N4  UNL     1       6.663  37.298  47.123  1.00  0.00    -0.070 N 
ATOM     26  H43 UNL     1       6.747  38.278  46.851  1.00  0.00     0.274 HD
ATOM     27  H42 UNL     1       7.635  37.145  47.391  1.00  0.00     0.274 HD
ATOM     28  H41 UNL     1       6.368  36.700  46.351  1.00  0.00     0.274 HD
ENDBRANCH  14  25
ENDBRANCH   7  10
ENDBRANCH   6   7
BRANCH   1  29
HETATM   29  N1  UNL     1       1.916  38.479  49.054  1.00  0.00    -0.073 N 
ATOM     30  H13 UNL     1       1.110  38.000  49.453  1.00  0.00     0.274 HD
ATOM     31  H12 UNL     1       1.491  38.755  48.168  1.00  0.00     0.274 HD
ATOM     32  H11 UNL     1       2.718  37.860  48.928  1.00  0.00     0.274 HD
ENDBRANCH   1  29
BRANCH   5  33
HETATM   33  O2  UNL     1       5.257  41.782  49.668  1.00  0.00    -0.391 OA
ATOM     34  H2  UNL     1       5.941  41.207  49.344  1.00  0.00     0.210 HD
ENDBRANCH   5  33
BRANCH   4  35
HETATM   35  O1  UNL     1       3.747  43.034  51.256  1.00  0.00    -0.377 OA
BRANCH  35  36
HETATM   36  C5  UNL     1       3.815  43.196  52.610  1.00  0.00     0.207 C 
BRANCH  36  37
HETATM   37  C6  UNL     1       3.158  44.427  53.071  1.00  0.00    -0.035 A 
HETATM   38  C7  UNL     1       1.881  44.504  53.581  1.00  0.00     0.009 A 
HETATM   39  C8  UNL     1       1.310  45.689  54.019  1.00  0.00     0.001 A 
HETATM   40  C9  UNL     1       2.019  46.868  53.958  1.00  0.00     0.000 A 
HETATM   41  C10 UNL     1       3.298  46.799  53.449  1.00  0.00     0.001 A 
HETATM   42  C11 UNL     1       3.857  45.633  53.020  1.00  0.00     0.009 A 
ENDBRANCH  36  37
ENDBRANCH  35  36
ENDBRANCH   4  35
BRANCH   3  43
HETATM   43  N2  UNL     1       1.663  43.211  49.453  1.00  0.00    -0.072 N 
ATOM     44  H23 UNL     1       1.022  43.199  48.660  1.00  0.00     0.274 HD
ATOM     45  H22 UNL     1       0.965  43.280  50.193  1.00  0.00     0.274 HD
ATOM     46  H21 UNL     1       2.299  44.009  49.434  1.00  0.00     0.274 HD
ENDBRANCH   3  43
TORSDOF 13
ENDMDL
MODEL 2
REMARK VINA RESULT: -7.356379229      3.456      5.607
REMARK  13 active torsions:
REMARK  status: ('A' for Active; 'I' for Inactive)
REMARK    1  A    between atoms: N1_1  and  C1_5 
REMARK    2  A    between atoms: C3_7  and  N2_8 
REMARK    3  A    between atoms: C4_12  and  O1_13 
REMARK    4  A    between atoms: O1_13  and  C5_14 
REMARK    5  A    between atoms: C5_14  and  C6_15 
REMARK    6  A    between atoms: C12_21  and  O2_22 
REMARK    7  A    between atoms: C13_24  and  N3_25 
REMARK    8  A    between atoms: N3_25  and  C14_28 
REMARK    9  A    between atoms: C16_30  and  O3_31 
REMARK   10  A    between atoms: O3_31  and  C17_32 
REMARK   11  A    between atoms: C17_32  and  C18_34 
REMARK   12  A    between atoms: C22_39  and  O6_40 
REMARK   13  A    between atoms: C23_42  and  N4_43 
ROOT
HETATM    1  C1  UNL     1       9.407  42.762  50.301  1.00  0.00     0.218 C 
HETATM    2  C2  UNL     1      10.092  43.780  51.185  1.00  0.00     0.070 C 
HETATM    3  C3  UNL     1       9.116  44.024  52.348  1.00  0.00     0.216 C 
HETATM    4  C4  UNL     1       7.764  44.139  51.717  1.00  0.00     0.183 C 
HETATM    5  C12 UNL     1       7.268  42.647  51.608  1.00  0.00     0.181 C 
HETATM    6  C13 UNL     1       8.430  41.887  51.063  1.00  0.00     0.247 C 
ENDROOT
BRANCH   6   7
HETATM    7  N3  UNL     1       8.050  40.818  50.169  1.00  0.00    -0.060 N 
ATOM      8  H32 UNL     1       7.477  41.180  49.407  1.00  0.00     0.278 HD
ATOM      9  H31 UNL     1       8.860  40.494  49.641  1.00  0.00     0.278 HD
BRANCH   7  10
HETATM   10  C14 UNL     1       7.398  39.720  50.799  1.00  0.00     0.222 C 
HETATM   11  C15 UNL     1       5.910  39.835  50.479  1.00  0.00     0.070 C 
HETATM   12  C16 UNL     1       5.512  38.538  49.850  1.00  0.00     0.165 C 
HETATM   13  C22 UNL     1       6.827  38.111  49.185  1.00  0.00     0.180 C 
HETATM   14  C23 UNL     1       7.805  38.371  50.314  1.00  0.00     0.245 C 
BRANCH  12  15
HETATM   15  O3  UNL     1       4.580  38.692  48.793  1.00  0.00    -0.309 OA
BRANCH  15  16
HETATM   16  C17 UNL     1       3.266  39.012  49.058  1.00  0.00     0.291 C 
HETATM   17  O4  UNL     1       2.509  38.067  49.416  1.00  0.00    -0.260 OA
BRANCH  16  18
HETATM   18  C18 UNL     1       2.743  40.377  48.937  1.00  0.00     0.041 C 
HETATM   19  C19 UNL     1       3.154  41.269  48.056  1.00  0.00     0.147 C 
HETATM   20  O5  UNL     1       2.456  42.467  48.203  1.00  0.00    -0.362 OA
HETATM   21  C20 UNL     1       1.928  42.481  49.526  1.00  0.00     0.179 C 
HETATM   22  C21 UNL     1       1.694  41.002  49.741  1.00  0.00     0.073 C 
ENDBRANCH  16  18
ENDBRANCH  15  16
ENDBRANCH  12  15
BRANCH  13  23
HETATM   23  O6  UNL     1       6.802  36.792  48.799  1.00  0.00    -0.391 OA
ATOM     24  H6  UNL     1       7.672  36.463  48.606  1.00  0.00     0.210 HD
ENDBRANCH  13  23
BRANCH  14  25
HETATM   25  N4  UNL     1       7.527  37.411  51.366  1.00  0.00    -0.070 N 
ATOM     26  H43 UNL     1       6.932  37.794  52.101  1.00  0.00     0.274 HD
ATOM     27  H42 UNL     1       6.905  36.662  51.061  1.00  0.00     0.274 HD
ATOM     28  H41 UNL     1       8.418  37.064  51.721  1.00  0.00     0.274 HD
ENDBRANCH  14  25
ENDBRANCH   7  10
ENDBRANCH   6   7
BRANCH   1  29
HETATM   29  N1  UNL     1      10.427  41.864  49.750  1.00  0.00    -0.073 N 
ATOM     30  H13 UNL     1      11.329  42.323  49.629  1.00  0.00     0.274 HD
ATOM     31  H12 UNL     1      10.721  41.150  50.418  1.00  0.00     0.274 HD
ATOM     32  H11 UNL     1      10.070  41.464  48.882  1.00  0.00     0.274 HD
ENDBRANCH   1  29
BRANCH   5  33
HETATM   33  O2  UNL     1       6.937  42.319  52.922  1.00  0.00    -0.391 OA
ATOM     34  H2  UNL     1       7.592  41.673  53.160  1.00  0.00     0.210 HD
ENDBRANCH   5  33
BRANCH   4  35
HETATM   35  O1  UNL     1       6.885  44.811  52.528  1.00  0.00    -0.377 OA
BRANCH  35  36
HETATM   36  C5  UNL     1       5.908  45.528  51.900  1.00  0.00     0.207 C 
BRANCH  36  37
HETATM   37  C6  UNL     1       4.581  45.337  52.502  1.00  0.00    -0.035 A 
HETATM   38  C7  UNL     1       3.832  46.322  53.105  1.00  0.00     0.009 A 
HETATM   39  C8  UNL     1       2.576  46.095  53.646  1.00  0.00     0.001 A 
HETATM   40  C9  UNL     1       2.014  44.838  53.599  1.00  0.00     0.000 A 
HETATM   41  C10 UNL     1       2.758  43.847  52.998  1.00  0.00     0.001 A 
HETATM   42  C11 UNL     1       3.992  44.072  52.466  1.00  0.00     0.009 A 
ENDBRANCH  36  37
ENDBRANCH  35  36
ENDBRANCH   4  35
BRANCH   3  43
HETATM   43  N2  UNL     1       9.570  45.156  53.073  1.00  0.00    -0.072 N 
ATOM     44  H23 UNL     1      10.567  45.117  53.281  1.00  0.00     0.274 HD
ATOM     45  H22 UNL     1       9.580  46.006  52.510  1.00  0.00     0.274 HD
ATOM     46  H21 UNL     1       8.995  45.245  53.911  1.00  0.00     0.274 HD
ENDBRANCH   3  43
TORSDOF 13
ENDMDL
MODEL 3
REMARK VINA RESULT: -7.196385398      1.123      1.495
REMARK  13 active torsions:
REMARK  status: ('A' for Active; 'I' for Inactive)
REMARK    1  A    between atoms: N1_1  and  C1_5 
REMARK    2  A    between atoms: C3_7  and  N2_8 
REMARK    3  A    between atoms: C4_12  and  O1_13 
REMARK    4  A    between atoms: O1_13  and  C5_14 
REMARK    5  A    between atoms: C5_14  and  C6_15 
REMARK    6  A    between atoms: C12_21  and  O2_22 
REMARK    7  A    between atoms: C13_24  and  N3_25 
REMARK    8  A    between atoms: N3_25  and  C14_28 
REMARK    9  A    between atoms: C16_30  and  O3_31 
REMARK   10  A    between atoms: O3_31  and  C17_32 
REMARK   11  A    between atoms: C17_32  and  C18_34 
REMARK   12  A    between atoms: C22_39  and  O6_40 
REMARK   13  A    between atoms: C23_42  and  N4_43 
ROOT
HETATM    1  C1  UNL     1       2.392  39.667  49.851  1.00  0.00     0.218 C 
HETATM    2  C2  UNL     1       1.486  40.822  49.489  1.00  0.00     0.070 C 
HETATM    3  C3  UNL     1       2.367  42.076  49.610  1.00  0.00     0.216 C 
HETATM    4  C4  UNL     1       3.142  41.898  50.878  1.00  0.00     0.183 C 
HETATM    5  C12 UNL     1       4.398  41.054  50.440  1.00  0.00     0.181 C 
HETATM    6  C13 UNL     1       3.855  39.962  49.581  1.00  0.00     0.247 C 
ENDROOT
BRANCH   6   7
HETATM    7  N3  UNL     1       4.562  38.711  49.726  1.00  0.00    -0.060 N 
ATOM      8  H32 UNL     1       4.971  38.640  50.659  1.00  0.00     0.278 HD
ATOM      9  H31 UNL     1       3.902  37.934  49.766  1.00  0.00     0.278 HD
BRANCH   7  10
HETATM   10  C14 UNL     1       5.552  38.469  48.733  1.00  0.00     0.222 C 
HETATM   11  C15 UNL     1       6.869  39.034  49.261  1.00  0.00     0.070 C 
HETATM   12  C16 UNL     1       7.856  37.911  49.222  1.00  0.00     0.165 C 
HETATM   13  C22 UNL     1       6.937  36.697  49.414  1.00  0.00     0.180 C 
HETATM   14  C23 UNL     1       5.826  37.033  48.439  1.00  0.00     0.245 C 
BRANCH  12  15
HETATM   15  O3  UNL     1       8.738  37.903  50.332  1.00  0.00    -0.309 OA
BRANCH  15  16
HETATM   16  C17 UNL     1       8.949  39.050  51.066  1.00  0.00     0.291 C 
HETATM   17  O4  UNL     1       9.955  39.748  50.758  1.00  0.00    -0.260 OA
BRANCH  16  18
HETATM   18  C18 UNL     1       8.065  39.465  52.159  1.00  0.00     0.041 C 
HETATM   19  C19 UNL     1       7.259  38.662  52.828  1.00  0.00     0.147 C 
HETATM   20  O5  UNL     1       6.556  39.365  53.803  1.00  0.00    -0.362 OA
HETATM   21  C20 UNL     1       6.567  40.736  53.417  1.00  0.00     0.179 C 
HETATM   22  C21 UNL     1       7.905  40.809  52.713  1.00  0.00     0.073 C 
ENDBRANCH  16  18
ENDBRANCH  15  16
ENDBRANCH  12  15
BRANCH  13  23
HETATM   23  O6  UNL     1       7.573  35.519  49.106  1.00  0.00    -0.391 OA
ATOM     24  H6  UNL     1       7.159  35.073  48.376  1.00  0.00     0.210 HD
ENDBRANCH  13  23
BRANCH  14  25
HETATM   25  N4  UNL     1       6.376  36.945  47.099  1.00  0.00    -0.070 N 
ATOM     26  H43 UNL     1       6.790  36.033  46.903  1.00  0.00     0.274 HD
ATOM     27  H42 UNL     1       5.655  36.926  46.378  1.00  0.00     0.274 HD
ATOM     28  H41 UNL     1       7.036  37.712  46.976  1.00  0.00     0.274 HD
ENDBRANCH  14  25
ENDBRANCH   7  10
ENDBRANCH   6   7
BRANCH   1  29
HETATM   29  N1  UNL     1       2.039  38.518  49.010  1.00  0.00    -0.073 N 
ATOM     30  H13 UNL     1       1.092  38.181  49.187  1.00  0.00     0.274 HD
ATOM     31  H12 UNL     1       1.916  38.773  48.030  1.00  0.00     0.274 HD
ATOM     32  H11 UNL     1       2.744  37.792  49.141  1.00  0.00     0.274 HD
ENDBRANCH   1  29
BRANCH   5  33
HETATM   33  O2  UNL     1       5.187  41.978  49.756  1.00  0.00    -0.391 OA
ATOM     34  H2  UNL     1       5.989  42.004  50.265  1.00  0.00     0.210 HD
ENDBRANCH   5  33
BRANCH   4  35
HETATM   35  O1  UNL     1       3.596  43.099  51.364  1.00  0.00    -0.377 OA
BRANCH  35  36
HETATM   36  C5  UNL     1       3.600  43.241  52.721  1.00  0.00     0.207 C 
BRANCH  36  37
HETATM   37  C6  UNL     1       3.015  44.514  53.164  1.00  0.00    -0.035 A 
HETATM   38  C7  UNL     1       1.747  44.671  53.678  1.00  0.00     0.009 A 
HETATM   39  C8  UNL     1       1.246  45.894  54.097  1.00  0.00     0.001 A 
HETATM   40  C9  UNL     1       2.019  47.031  54.013  1.00  0.00     0.000 A 
HETATM   41  C10 UNL     1       3.289  46.882  53.499  1.00  0.00     0.001 A 
HETATM   42  C11 UNL     1       3.780  45.679  53.088  1.00  0.00     0.009 A 
ENDBRANCH  36  37
ENDBRANCH  35  36
ENDBRANCH   4  35
BRANCH   3  43
HETATM   43  N2  UNL     1       1.522  43.215  49.545  1.00  0.00    -0.072 N 
ATOM     44  H23 UNL     1       1.858  43.988  50.119  1.00  0.00     0.274 HD
ATOM     45  H22 UNL     1       1.566  43.686  48.641  1.00  0.00     0.274 HD
ATOM     46  H21 UNL     1       0.577  42.922  49.791  1.00  0.00     0.274 HD
ENDBRANCH   3  43
TORSDOF 13
ENDMDL
MODEL 4
REMARK VINA RESULT: -7.026134211      2.908      4.550
REMARK  13 active torsions:
REMARK  status: ('A' for Active; 'I' for Inactive)
REMARK    1  A    between atoms: N1_1  and  C1_5 
REMARK    2  A    between atoms: C3_7  and  N2_8 
REMARK    3  A    between atoms: C4_12  and  O1_13 
REMARK    4  A    between atoms: O1_13  and  C5_14 
REMARK    5  A    between atoms: C5_14  and  C6_15 
REMARK    6  A    between atoms: C12_21  and  O2_22 
REMARK    7  A    between atoms: C13_24  and  N3_25 
REMARK    8  A    between atoms: N3_25  and  C14_28 
REMARK    9  A    between atoms: C16_30  and  O3_31 
REMARK   10  A    between atoms: O3_31  and  C17_32 
REMARK   11  A    between atoms: C17_32  and  C18_34 
REMARK   12  A    between atoms: C22_39  and  O6_40 
REMARK   13  A    between atoms: C23_42  and  N4_43 
ROOT
HETATM    1  C1  UNL     1       4.043  39.626  49.542  1.00  0.00     0.218 C 
HETATM    2  C2  UNL     1       2.806  40.153  48.849  1.00  0.00     0.070 C 
HETATM    3  C3  UNL     1       2.730  41.638  49.241  1.00  0.00     0.216 C 
HETATM    4  C4  UNL     1       3.033  41.681  50.705  1.00  0.00     0.183 C 
HETATM    5  C12 UNL     1       4.607  41.743  50.765  1.00  0.00     0.181 C 
HETATM    6  C13 UNL     1       5.076  40.706  49.800  1.00  0.00     0.247 C 
ENDROOT
BRANCH   6   7
HETATM    7  N3  UNL     1       6.281  40.031  50.222  1.00  0.00    -0.060 N 
ATOM      8  H32 UNL     1       6.443  40.183  51.218  1.00  0.00     0.278 HD
ATOM      9  H31 UNL     1       6.141  39.021  50.219  1.00  0.00     0.278 HD
BRANCH   7  10
HETATM   10  C14 UNL     1       7.444  40.371  49.475  1.00  0.00     0.222 C 
HETATM   11  C15 UNL     1       7.958  41.702  50.019  1.00  0.00     0.070 C 
HETATM   12  C16 UNL     1       9.383  41.476  50.411  1.00  0.00     0.165 C 
HETATM   13  C22 UNL     1       9.360  39.987  50.780  1.00  0.00     0.180 C 
HETATM   14  C23 UNL     1       8.587  39.423  49.604  1.00  0.00     0.245 C 
BRANCH  12  15
HETATM   15  O3  UNL     1       9.750  42.159  51.599  1.00  0.00    -0.309 OA
BRANCH  15  16
HETATM   16  C17 UNL     1       8.838  42.951  52.261  1.00  0.00     0.291 C 
HETATM   17  O4  UNL     1       8.205  42.417  53.215  1.00  0.00    -0.260 OA
BRANCH  16  18
HETATM   18  C18 UNL     1       8.591  44.349  51.898  1.00  0.00     0.041 C 
HETATM   19  C19 UNL     1       9.510  45.194  51.469  1.00  0.00     0.147 C 
HETATM   20  O5  UNL     1       8.951  46.444  51.209  1.00  0.00    -0.362 OA
HETATM   21  C20 UNL     1       7.738  46.520  51.952  1.00  0.00     0.179 C 
HETATM   22  C21 UNL     1       7.317  45.066  51.934  1.00  0.00     0.073 C 
ENDBRANCH  16  18
ENDBRANCH  15  16
ENDBRANCH  12  15
BRANCH  13  23
HETATM   23  O6  UNL     1      10.627  39.464  50.880  1.00  0.00    -0.391 OA
ATOM     24  H6  UNL     1      11.158  39.676  50.121  1.00  0.00     0.210 HD
ENDBRANCH  13  23
BRANCH  14  25
HETATM   25  N4  UNL     1       9.421  39.559  48.424  1.00  0.00    -0.070 N 
ATOM     26  H43 UNL     1       8.934  39.299  47.566  1.00  0.00     0.274 HD
ATOM     27  H42 UNL     1       9.611  40.532  48.186  1.00  0.00     0.274 HD
ATOM     28  H41 UNL     1      10.271  39.016  48.573  1.00  0.00     0.274 HD
ENDBRANCH  14  25
ENDBRANCH   7  10
ENDBRANCH   6   7
BRANCH   1  29
HETATM   29  N1  UNL     1       4.683  38.641  48.663  1.00  0.00    -0.073 N 
ATOM     30  H13 UNL     1       5.434  38.132  49.129  1.00  0.00     0.274 HD
ATOM     31  H12 UNL     1       4.078  37.845  48.461  1.00  0.00     0.274 HD
ATOM     32  H11 UNL     1       4.998  39.119  47.818  1.00  0.00     0.274 HD
ENDBRANCH   1  29
BRANCH   5  33
HETATM   33  O2  UNL     1       4.894  43.052  50.380  1.00  0.00    -0.391 OA
ATOM     34  H2  UNL     1       4.509  43.117  49.514  1.00  0.00     0.210 HD
ENDBRANCH   5  33
BRANCH   4  35
HETATM   35  O1  UNL     1       2.550  42.827  51.287  1.00  0.00    -0.377 OA
BRANCH  35  36
HETATM   36  C5  UNL     1       2.776  42.968  52.625  1.00  0.00     0.207 C 
BRANCH  36  37
HETATM   37  C6  UNL     1       2.729  44.369  53.068  1.00  0.00    -0.035 A 
HETATM   38  C7  UNL     1       3.743  45.287  52.910  1.00  0.00     0.009 A 
HETATM   39  C8  UNL     1       3.645  46.604  53.331  1.00  0.00     0.001 A 
HETATM   40  C9  UNL     1       2.496  47.057  53.943  1.00  0.00     0.000 A 
HETATM   41  C10 UNL     1       1.477  46.143  54.105  1.00  0.00     0.001 A 
HETATM   42  C11 UNL     1       1.575  44.849  53.689  1.00  0.00     0.009 A 
ENDBRANCH  36  37
ENDBRANCH  35  36
ENDBRANCH   4  35
BRANCH   3  43
HETATM   43  N2  UNL     1       1.458  42.132  48.848  1.00  0.00    -0.072 N 
ATOM     44  H23 UNL     1       1.039  41.586  48.095  1.00  0.00     0.274 HD
ATOM     45  H22 UNL     1       0.738  41.970  49.552  1.00  0.00     0.274 HD
ATOM     46  H21 UNL     1       1.563  43.118  48.609  1.00  0.00     0.274 HD
ENDBRANCH   3  43
TORSDOF 13
ENDMDL
MODEL 5
REMARK VINA RESULT: -6.904766459      2.206      3.263
REMARK  13 active torsions:
REMARK  status: ('A' for Active; 'I' for Inactive)
REMARK    1  A    between atoms: N1_1  and  C1_5 
REMARK    2  A    between atoms: C3_7  and  N2_8 
REMARK    3  A    between atoms: C4_12  and  O1_13 
REMARK    4  A    between atoms: O1_13  and  C5_14 
REMARK    5  A    between atoms: C5_14  and  C6_15 
REMARK    6  A    between atoms: C12_21  and  O2_22 
REMARK    7  A    between atoms: C13_24  and  N3_25 
REMARK    8  A    between atoms: N3_25  and  C14_28 
REMARK    9  A    between atoms: C16_30  and  O3_31 
REMARK   10  A    between atoms: O3_31  and  C17_32 
REMARK   11  A    between atoms: C17_32  and  C18_34 
REMARK   12  A    between atoms: C22_39  and  O6_40 
REMARK   13  A    between atoms: C23_42  and  N4_43 
ROOT
HETATM    1  C1  UNL     1       4.553  40.014  49.620  1.00  0.00     0.218 C 
HETATM    2  C2  UNL     1       3.214  40.287  48.971  1.00  0.00     0.070 C 
HETATM    3  C3  UNL     1       2.868  41.734  49.360  1.00  0.00     0.216 C 
HETATM    4  C4  UNL     1       3.209  41.848  50.812  1.00  0.00     0.183 C 
HETATM    5  C12 UNL     1       4.742  42.212  50.816  1.00  0.00     0.181 C 
HETATM    6  C13 UNL     1       5.368  41.275  49.838  1.00  0.00     0.247 C 
ENDROOT
BRANCH   6   7
HETATM    7  N3  UNL     1       6.694  40.847  50.219  1.00  0.00    -0.060 N 
ATOM      8  H32 UNL     1       6.801  39.844  50.065  1.00  0.00     0.278 HD
ATOM      9  H31 UNL     1       7.384  41.201  49.556  1.00  0.00     0.278 HD
BRANCH   7  10
HETATM   10  C14 UNL     1       7.068  41.186  51.550  1.00  0.00     0.222 C 
HETATM   11  C15 UNL     1       6.984  39.908  52.381  1.00  0.00     0.070 C 
HETATM   12  C16 UNL     1       8.326  39.729  53.017  1.00  0.00     0.165 C 
HETATM   13  C22 UNL     1       9.240  40.401  51.983  1.00  0.00     0.180 C 
HETATM   14  C23 UNL     1       8.465  41.676  51.717  1.00  0.00     0.245 C 
BRANCH  12  15
HETATM   15  O3  UNL     1       8.741  38.375  53.074  1.00  0.00    -0.309 OA
BRANCH  15  16
HETATM   16  C17 UNL     1       8.904  37.743  54.287  1.00  0.00     0.291 C 
HETATM   17  O4  UNL     1      10.069  37.349  54.575  1.00  0.00    -0.260 OA
BRANCH  16  18
HETATM   18  C18 UNL     1       7.795  37.522  55.220  1.00  0.00     0.041 C 
HETATM   19  C19 UNL     1       7.714  38.033  56.434  1.00  0.00     0.147 C 
HETATM   20  O5  UNL     1       6.537  37.633  57.063  1.00  0.00    -0.362 OA
HETATM   21  C20 UNL     1       6.094  36.451  56.403  1.00  0.00     0.179 C 
HETATM   22  C21 UNL     1       6.593  36.719  55.000  1.00  0.00     0.073 C 
ENDBRANCH  16  18
ENDBRANCH  15  16
ENDBRANCH  12  15
BRANCH  13  23
HETATM   23  O6  UNL     1      10.495  40.639  52.487  1.00  0.00    -0.391 OA
ATOM     24  H6  UNL     1      10.812  41.504  52.255  1.00  0.00     0.210 HD
ENDBRANCH  13  23
BRANCH  14  25
HETATM   25  N4  UNL     1       8.519  42.483  52.922  1.00  0.00    -0.070 N 
ATOM     26  H43 UNL     1       9.342  43.085  52.957  1.00  0.00     0.274 HD
ATOM     27  H42 UNL     1       7.811  43.217  52.935  1.00  0.00     0.274 HD
ATOM     28  H41 UNL     1       8.454  41.858  53.725  1.00  0.00     0.274 HD
ENDBRANCH  14  25
ENDBRANCH   7  10
ENDBRANCH   6   7
BRANCH   1  29
HETATM   29  N1  UNL     1       5.339  39.161  48.722  1.00  0.00    -0.073 N 
ATOM     30  H13 UNL     1       4.975  38.211  48.666  1.00  0.00     0.274 HD
ATOM     31  H12 UNL     1       5.223  39.414  47.741  1.00  0.00     0.274 HD
ATOM     32  H11 UNL     1       6.315  39.191  49.021  1.00  0.00     0.274 HD
ENDBRANCH   1  29
BRANCH   5  33
HETATM   33  O2  UNL     1       4.760  43.547  50.417  1.00  0.00    -0.391 OA
ATOM     34  H2  UNL     1       5.671  43.796  50.519  1.00  0.00     0.210 HD
ENDBRANCH   5  33
BRANCH   4  35
HETATM   35  O1  UNL     1       2.535  42.886  51.407  1.00  0.00    -0.377 OA
BRANCH  35  36
HETATM   36  C5  UNL     1       2.734  43.048  52.748  1.00  0.00     0.207 C 
BRANCH  36  37
HETATM   37  C6  UNL     1       2.652  44.453  53.172  1.00  0.00    -0.035 A 
HETATM   38  C7  UNL     1       3.646  45.392  53.010  1.00  0.00     0.009 A 
HETATM   39  C8  UNL     1       3.515  46.711  53.414  1.00  0.00     0.001 A 
HETATM   40  C9  UNL     1       2.352  47.146  54.010  1.00  0.00     0.000 A 
HETATM   41  C10 UNL     1       1.353  46.212  54.176  1.00  0.00     0.001 A 
HETATM   42  C11 UNL     1       1.483  44.915  53.778  1.00  0.00     0.009 A 
ENDBRANCH  36  37
ENDBRANCH  35  36
ENDBRANCH   4  35
BRANCH   3  43
HETATM   43  N2  UNL     1       1.513  41.971  49.011  1.00  0.00    -0.072 N 
ATOM     44  H23 UNL     1       1.310  41.740  48.038  1.00  0.00     0.274 HD
ATOM     45  H22 UNL     1       0.872  41.307  49.446  1.00  0.00     0.274 HD
ATOM     46  H21 UNL     1       1.293  42.940  49.240  1.00  0.00     0.274 HD
ENDBRANCH   3  43
TORSDOF 13
ENDMDL
