MODEL 1
REMARK VINA RESULT: -7.450005083      0.000      0.000
REMARK  10 active torsions:
REMARK  status: ('A' for Active; 'I' for Inactive)
REMARK    1  A    between atoms: C2_4  and  O1_5 
REMARK    2  A    between atoms: O1_5  and  C3_6 
REMARK    3  A    between atoms: C3_6  and  C4_7 
REMARK    4  A    between atoms: C4_7  and  N2_8 
REMARK    5  A    between atoms: N2_8  and  C5_10 
REMARK    6  A    between atoms: C6_13  and  N4_14 
REMARK    7  A    between atoms: C7_19  and  N6_20 
REMARK    8  A    between atoms: N6_20  and  C8_22 
REMARK    9  A    between atoms: C8_22  and  C9_23 
REMARK   10  A    between atoms: C9_23  and  O2_24 
ROOT
HETATM    1  C5  UNL     1      42.945  29.778  16.494  1.00  0.00     0.707 A 
HETATM    2  N3  UNL     1      44.252  30.069  16.599  1.00  0.00    -0.022 N 
ATOM      3  H3  UNL     1      44.601  30.540  17.433  1.00  0.00     0.203 HD
HETATM    4  C6  UNL     1      45.097  29.744  15.617  1.00  0.00     0.705 A 
HETATM    5  N5  UNL     1      44.612  29.123  14.533  1.00  0.00    -0.022 N 
ATOM      6  H5  UNL     1      45.247  28.867  13.776  1.00  0.00     0.203 HD
HETATM    7  C7  UNL     1      43.307  28.833  14.425  1.00  0.00     0.707 A 
HETATM    8  N7  UNL     1      42.444  29.152  15.402  1.00  0.00    -0.022 N 
ATOM      9  H7  UNL     1      41.451  28.931  15.326  1.00  0.00     0.203 HD
ENDROOT
BRANCH   1  10
HETATM   10  N2  UNL     1      42.098  30.077  17.422  1.00  0.00    -0.223 N 
ATOM     11  H2  UNL     1      41.496  29.363  17.832  1.00  0.00     0.177 HD
BRANCH  10  12
HETATM   12  C4  UNL     1      42.028  31.442  17.862  1.00  0.00     0.164 C 
BRANCH  12  13
HETATM   13  C3  UNL     1      41.218  31.553  19.158  1.00  0.00     0.196 C 
BRANCH  13  14
HETATM   14  O1  UNL     1      39.867  31.592  18.778  1.00  0.00    -0.345 OA
BRANCH  14  15
HETATM   15  C2  UNL     1      38.971  30.800  19.501  1.00  0.00     0.221 C 
HETATM   16  N1  UNL     1      38.863  29.585  19.095  1.00  0.00    -0.385 N 
HETATM   17  C1  UNL     1      37.946  28.723  19.811  1.00  0.00     0.147 C 
ATOM     18  H1  UNL     1      39.401  29.242  18.299  1.00  0.00     0.160 HD
ENDBRANCH  14  15
ENDBRANCH  13  14
ENDBRANCH  12  13
ENDBRANCH  10  12
ENDBRANCH   1  10
BRANCH   4  19
HETATM   19  N4  UNL     1      46.352  30.022  15.717  1.00  0.00    -0.234 N 
ATOM     20  H42 UNL     1      46.668  30.983  15.848  1.00  0.00     0.174 HD
ATOM     21  H41 UNL     1      47.051  29.281  15.664  1.00  0.00     0.174 HD
ENDBRANCH   4  19
BRANCH   7  22
HETATM   22  N6  UNL     1      42.851  28.238  13.381  1.00  0.00    -0.223 N 
ATOM     23  H6  UNL     1      42.198  27.468  13.531  1.00  0.00     0.177 HD
BRANCH  22  24
HETATM   24  C8  UNL     1      43.182  28.563  12.029  1.00  0.00     0.164 C 
BRANCH  24  25
HETATM   25  C9  UNL     1      42.758  27.481  11.041  1.00  0.00     0.184 C 
BRANCH  25  26
HETATM   26  O2  UNL     1      41.902  26.620  11.749  1.00  0.00    -0.399 OA
ATOM     27  H2  UNL     1      42.457  26.114  12.331  1.00  0.00     0.209 HD
ENDBRANCH  25  26
ENDBRANCH  24  25
ENDBRANCH  22  24
ENDBRANCH   7  22
TORSDOF 10
ENDMDL
MODEL 2
REMARK VINA RESULT: -7.313241531      1.247      1.247
REMARK  10 active torsions:
REMARK  status: ('A' for Active; 'I' for Inactive)
REMARK    1  A    between atoms: C2_4  and  O1_5 
REMARK    2  A    between atoms: O1_5  and  C3_6 
REMARK    3  A    between atoms: C3_6  and  C4_7 
REMARK    4  A    between atoms: C4_7  and  N2_8 
REMARK    5  A    between atoms: N2_8  and  C5_10 
REMARK    6  A    between atoms: C6_13  and  N4_14 
REMARK    7  A    between atoms: C7_19  and  N6_20 
REMARK    8  A    between atoms: N6_20  and  C8_22 
REMARK    9  A    between atoms: C8_22  and  C9_23 
REMARK   10  A    between atoms: C9_23  and  O2_24 
ROOT
HETATM    1  C5  UNL     1      42.860  29.980  16.341  1.00  0.00     0.707 A 
HETATM    2  N3  UNL     1      44.174  30.199  16.514  1.00  0.00    -0.022 N 
ATOM      3  H3  UNL     1      44.498  30.718  17.330  1.00  0.00     0.203 HD
HETATM    4  C6  UNL     1      45.058  29.741  15.623  1.00  0.00     0.705 A 
HETATM    5  N5  UNL     1      44.605  29.062  14.561  1.00  0.00    -0.022 N 
ATOM      6  H5  UNL     1      45.269  28.704  13.875  1.00  0.00     0.203 HD
HETATM    7  C7  UNL     1      43.293  28.843  14.386  1.00  0.00     0.707 A 
HETATM    8  N7  UNL     1      42.391  29.295  15.271  1.00  0.00    -0.022 N 
ATOM      9  H7  UNL     1      41.393  29.129  15.142  1.00  0.00     0.203 HD
ENDROOT
BRANCH   1  10
HETATM   10  N2  UNL     1      41.976  30.408  17.180  1.00  0.00    -0.223 N 
ATOM     11  H2  UNL     1      41.065  29.954  17.258  1.00  0.00     0.177 HD
BRANCH  10  12
HETATM   12  C4  UNL     1      42.309  31.538  18.000  1.00  0.00     0.164 C 
BRANCH  12  13
HETATM   13  C3  UNL     1      41.653  31.419  19.379  1.00  0.00     0.196 C 
BRANCH  13  14
HETATM   14  O1  UNL     1      41.919  30.117  19.833  1.00  0.00    -0.345 OA
BRANCH  14  15
HETATM   15  C2  UNL     1      40.833  29.248  19.970  1.00  0.00     0.221 C 
HETATM   16  N1  UNL     1      41.020  28.060  19.516  1.00  0.00    -0.385 N 
HETATM   17  C1  UNL     1      39.925  27.121  19.634  1.00  0.00     0.147 C 
ATOM     18  H1  UNL     1      41.907  27.789  19.090  1.00  0.00     0.160 HD
ENDBRANCH  14  15
ENDBRANCH  13  14
ENDBRANCH  12  13
ENDBRANCH  10  12
ENDBRANCH   1  10
BRANCH   4  19
HETATM   19  N4  UNL     1      46.320  29.951  15.789  1.00  0.00    -0.234 N 
ATOM     20  H42 UNL     1      46.985  29.179  15.782  1.00  0.00     0.174 HD
ATOM     21  H41 UNL     1      46.671  30.899  15.932  1.00  0.00     0.174 HD
ENDBRANCH   4  19
BRANCH   7  22
HETATM   22  N6  UNL     1      42.869  28.190  13.363  1.00  0.00    -0.223 N 
ATOM     23  H6  UNL     1      42.291  27.368  13.542  1.00  0.00     0.177 HD
BRANCH  22  24
HETATM   24  C8  UNL     1      43.138  28.518  11.998  1.00  0.00     0.164 C 
BRANCH  24  25
HETATM   25  C9  UNL     1      42.746  27.402  11.035  1.00  0.00     0.184 C 
BRANCH  25  26
HETATM   26  O2  UNL     1      41.958  26.505  11.776  1.00  0.00    -0.399 OA
ATOM     27  H2  UNL     1      41.137  26.421  11.303  1.00  0.00     0.209 HD
ENDBRANCH  25  26
ENDBRANCH  24  25
ENDBRANCH  22  24
ENDBRANCH   7  22
TORSDOF 10
ENDMDL
MODEL 3
REMARK VINA RESULT: -7.279876462      1.757      6.397
REMARK  10 active torsions:
REMARK  status: ('A' for Active; 'I' for Inactive)
REMARK    1  A    between atoms: C2_4  and  O1_5 
REMARK    2  A    between atoms: O1_5  and  C3_6 
REMARK    3  A    between atoms: C3_6  and  C4_7 
REMARK    4  A    between atoms: C4_7  and  N2_8 
REMARK    5  A    between atoms: N2_8  and  C5_10 
REMARK    6  A    between atoms: C6_13  and  N4_14 
REMARK    7  A    between atoms: C7_19  and  N6_20 
REMARK    8  A    between atoms: N6_20  and  C8_22 
REMARK    9  A    between atoms: C8_22  and  C9_23 
REMARK   10  A    between atoms: C9_23  and  O2_24 
ROOT
HETATM    1  C5  UNL     1      43.352  28.854  14.265  1.00  0.00     0.707 A 
HETATM    2  N3  UNL     1      44.640  29.218  14.380  1.00  0.00    -0.022 N 
ATOM      3  H3  UNL     1      45.265  29.127  13.581  1.00  0.00     0.203 HD
HETATM    4  C6  UNL     1      45.104  29.700  15.537  1.00  0.00     0.705 A 
HETATM    5  N5  UNL     1      44.260  29.810  16.571  1.00  0.00    -0.022 N 
ATOM      6  H5  UNL     1      44.601  30.179  17.459  1.00  0.00     0.203 HD
HETATM    7  C7  UNL     1      42.974  29.446  16.459  1.00  0.00     0.707 A 
HETATM    8  N7  UNL     1      42.490  28.961  15.305  1.00  0.00    -0.022 N 
ATOM      9  H7  UNL     1      41.512  28.684  15.214  1.00  0.00     0.203 HD
ENDROOT
BRANCH   1  10
HETATM   10  N2  UNL     1      42.867  28.384  13.164  1.00  0.00    -0.223 N 
ATOM     11  H2  UNL     1      42.137  27.671  13.175  1.00  0.00     0.177 HD
BRANCH  10  12
HETATM   12  C4  UNL     1      43.382  28.892  11.924  1.00  0.00     0.164 C 
BRANCH  12  13
HETATM   13  C3  UNL     1      43.177  27.877  10.795  1.00  0.00     0.196 C 
BRANCH  13  14
HETATM   14  O1  UNL     1      41.880  27.362  10.957  1.00  0.00    -0.345 OA
BRANCH  14  15
HETATM   15  C2  UNL     1      41.733  25.973  10.953  1.00  0.00     0.221 C 
HETATM   16  N1  UNL     1      41.247  25.469  12.031  1.00  0.00    -0.385 N 
HETATM   17  C1  UNL     1      41.075  24.032  12.076  1.00  0.00     0.147 C 
ATOM     18  H1  UNL     1      40.992  26.058  12.824  1.00  0.00     0.160 HD
ENDBRANCH  14  15
ENDBRANCH  13  14
ENDBRANCH  12  13
ENDBRANCH  10  12
ENDBRANCH   1  10
BRANCH   4  19
HETATM   19  N4  UNL     1      46.340  30.050  15.648  1.00  0.00    -0.234 N 
ATOM     20  H42 UNL     1      47.068  29.591  15.100  1.00  0.00     0.174 HD
ATOM     21  H41 UNL     1      46.609  30.796  16.290  1.00  0.00     0.174 HD
ENDBRANCH   4  19
BRANCH   7  22
HETATM   22  N6  UNL     1      42.172  29.555  17.457  1.00  0.00    -0.223 N 
ATOM     23  H6  UNL     1      42.165  28.793  18.135  1.00  0.00     0.177 HD
BRANCH  22  24
HETATM   24  C8  UNL     1      41.288  30.653  17.697  1.00  0.00     0.164 C 
BRANCH  24  25
HETATM   25  C9  UNL     1      41.792  31.588  18.790  1.00  0.00     0.184 C 
BRANCH  25  26
HETATM   26  O2  UNL     1      42.958  32.189  18.285  1.00  0.00    -0.399 OA
ATOM     27  H2  UNL     1      43.678  31.619  18.534  1.00  0.00     0.209 HD
ENDBRANCH  25  26
ENDBRANCH  24  25
ENDBRANCH  22  24
ENDBRANCH   7  22
TORSDOF 10
ENDMDL
MODEL 4
REMARK VINA RESULT: -7.121614025      2.280      6.657
REMARK  10 active torsions:
REMARK  status: ('A' for Active; 'I' for Inactive)
REMARK    1  A    between atoms: C2_4  and  O1_5 
REMARK    2  A    between atoms: O1_5  and  C3_6 
REMARK    3  A    between atoms: C3_6  and  C4_7 
REMARK    4  A    between atoms: C4_7  and  N2_8 
REMARK    5  A    between atoms: N2_8  and  C5_10 
REMARK    6  A    between atoms: C6_13  and  N4_14 
REMARK    7  A    between atoms: C7_19  and  N6_20 
REMARK    8  A    between atoms: N6_20  and  C8_22 
REMARK    9  A    between atoms: C8_22  and  C9_23 
REMARK   10  A    between atoms: C9_23  and  O2_24 
ROOT
HETATM    1  C5  UNL     1      42.392  30.381  17.798  1.00  0.00     0.707 A 
HETATM    2  N3  UNL     1      42.073  31.518  18.438  1.00  0.00    -0.022 N 
ATOM      3  H3  UNL     1      42.387  32.414  18.067  1.00  0.00     0.203 HD
HETATM    4  C6  UNL     1      41.346  31.481  19.559  1.00  0.00     0.705 A 
HETATM    5  N5  UNL     1      40.945  30.291  20.024  1.00  0.00    -0.022 N 
ATOM      6  H5  UNL     1      40.387  30.248  20.877  1.00  0.00     0.203 HD
HETATM    7  C7  UNL     1      41.263  29.154  19.387  1.00  0.00     0.707 A 
HETATM    8  N7  UNL     1      41.992  29.172  18.260  1.00  0.00    -0.022 N 
ATOM      9  H7  UNL     1      42.235  28.311  17.771  1.00  0.00     0.203 HD
ENDROOT
BRANCH   1  10
HETATM   10  N2  UNL     1      43.093  30.377  16.713  1.00  0.00    -0.223 N 
ATOM     11  H2  UNL     1      42.776  30.876  15.883  1.00  0.00     0.177 HD
BRANCH  10  12
HETATM   12  C4  UNL     1      44.332  29.652  16.709  1.00  0.00     0.164 C 
BRANCH  12  13
HETATM   13  C3  UNL     1      44.832  29.441  15.277  1.00  0.00     0.196 C 
BRANCH  13  14
HETATM   14  O1  UNL     1      43.758  29.766  14.432  1.00  0.00    -0.345 OA
BRANCH  14  15
HETATM   15  C2  UNL     1      43.387  28.823  13.470  1.00  0.00     0.221 C 
HETATM   16  N1  UNL     1      43.332  29.263  12.263  1.00  0.00    -0.385 N 
HETATM   17  C1  UNL     1      42.952  28.324  11.228  1.00  0.00     0.147 C 
ATOM     18  H1  UNL     1      43.548  30.235  12.043  1.00  0.00     0.160 HD
ENDBRANCH  14  15
ENDBRANCH  13  14
ENDBRANCH  12  13
ENDBRANCH  10  12
ENDBRANCH   1  10
BRANCH   4  19
HETATM   19  N4  UNL     1      41.039  32.572  20.174  1.00  0.00    -0.234 N 
ATOM     20  H42 UNL     1      41.577  32.889  20.981  1.00  0.00     0.174 HD
ATOM     21  H41 UNL     1      40.249  33.137  19.860  1.00  0.00     0.174 HD
ENDBRANCH   4  19
BRANCH   7  22
HETATM   22  N6  UNL     1      40.873  28.017  19.841  1.00  0.00    -0.223 N 
ATOM     23  H6  UNL     1      41.465  27.566  20.539  1.00  0.00     0.177 HD
BRANCH  22  24
HETATM   24  C8  UNL     1      39.682  27.329  19.450  1.00  0.00     0.164 C 
BRANCH  24  25
HETATM   25  C9  UNL     1      38.430  28.185  19.605  1.00  0.00     0.184 C 
BRANCH  25  26
HETATM   26  O2  UNL     1      38.064  28.101  20.959  1.00  0.00    -0.399 OA
ATOM     27  H2  UNL     1      38.857  28.260  21.458  1.00  0.00     0.209 HD
ENDBRANCH  25  26
ENDBRANCH  24  25
ENDBRANCH  22  24
ENDBRANCH   7  22
TORSDOF 10
ENDMDL
MODEL 5
REMARK VINA RESULT: -6.695427800      1.246      1.803
REMARK  10 active torsions:
REMARK  status: ('A' for Active; 'I' for Inactive)
REMARK    1  A    between atoms: C2_4  and  O1_5 
REMARK    2  A    between atoms: O1_5  and  C3_6 
REMARK    3  A    between atoms: C3_6  and  C4_7 
REMARK    4  A    between atoms: C4_7  and  N2_8 
REMARK    5  A    between atoms: N2_8  and  C5_10 
REMARK    6  A    between atoms: C6_13  and  N4_14 
REMARK    7  A    between atoms: C7_19  and  N6_20 
REMARK    8  A    between atoms: N6_20  and  C8_22 
REMARK    9  A    between atoms: C8_22  and  C9_23 
REMARK   10  A    between atoms: C9_23  and  O2_24 
ROOT
HETATM    1  C5  UNL     1      43.089  29.477  16.463  1.00  0.00     0.707 A 
HETATM    2  N3  UNL     1      44.372  29.877  16.461  1.00  0.00    -0.022 N 
ATOM      3  H3  UNL     1      44.778  30.280  17.305  1.00  0.00     0.203 HD
HETATM    4  C6  UNL     1      45.116  29.750  15.359  1.00  0.00     0.705 A 
HETATM    5  N5  UNL     1      44.558  29.216  14.265  1.00  0.00    -0.022 N 
ATOM      6  H5  UNL     1      45.116  29.111  13.418  1.00  0.00     0.203 HD
HETATM    7  C7  UNL     1      43.277  28.817  14.265  1.00  0.00     0.707 A 
HETATM    8  N7  UNL     1      42.514  28.937  15.362  1.00  0.00    -0.022 N 
ATOM      9  H7  UNL     1      41.540  28.633  15.367  1.00  0.00     0.203 HD
ENDROOT
BRANCH   1  10
HETATM   10  N2  UNL     1      42.338  29.585  17.508  1.00  0.00    -0.223 N 
ATOM     11  H2  UNL     1      42.745  29.663  18.440  1.00  0.00     0.177 HD
BRANCH  10  12
HETATM   12  C4  UNL     1      40.914  29.592  17.323  1.00  0.00     0.164 C 
BRANCH  12  13
HETATM   13  C3  UNL     1      40.192  29.480  18.669  1.00  0.00     0.196 C 
BRANCH  13  14
HETATM   14  O1  UNL     1      39.555  30.715  18.879  1.00  0.00    -0.345 OA
BRANCH  14  15
HETATM   15  C2  UNL     1      40.335  31.766  19.368  1.00  0.00     0.221 C 
HETATM   16  N1  UNL     1      41.366  31.414  20.051  1.00  0.00    -0.385 N 
HETATM   17  C1  UNL     1      42.207  32.467  20.579  1.00  0.00     0.147 C 
ATOM     18  H1  UNL     1      41.582  30.430  20.215  1.00  0.00     0.160 HD
ENDBRANCH  14  15
ENDBRANCH  13  14
ENDBRANCH  12  13
ENDBRANCH  10  12
ENDBRANCH   1  10
BRANCH   4  19
HETATM   19  N4  UNL     1      46.348  30.134  15.357  1.00  0.00    -0.234 N 
ATOM     20  H42 UNL     1      47.080  29.546  14.960  1.00  0.00     0.174 HD
ATOM     21  H41 UNL     1      46.608  31.037  15.755  1.00  0.00     0.174 HD
ENDBRANCH   4  19
BRANCH   7  22
HETATM   22  N6  UNL     1      42.750  28.306  13.210  1.00  0.00    -0.223 N 
ATOM     23  H6  UNL     1      41.904  27.749  13.334  1.00  0.00     0.177 HD
BRANCH  22  24
HETATM   24  C8  UNL     1      43.248  28.452  11.878  1.00  0.00     0.164 C 
BRANCH  24  25
HETATM   25  C9  UNL     1      42.760  27.353  10.941  1.00  0.00     0.184 C 
BRANCH  25  26
HETATM   26  O2  UNL     1      41.890  26.551  11.699  1.00  0.00    -0.399 OA
ATOM     27  H2  UNL     1      41.990  25.666  11.368  1.00  0.00     0.209 HD
ENDBRANCH  25  26
ENDBRANCH  24  25
ENDBRANCH  22  24
ENDBRANCH   7  22
TORSDOF 10
ENDMDL
