MODEL 1
REMARK VINA RESULT: -7.206688451      0.000      0.000
REMARK  10 active torsions:
REMARK  status: ('A' for Active; 'I' for Inactive)
REMARK    1  A    between atoms: O1_2  and  C2_3 
REMARK    2  A    between atoms: C5_6  and  C6_7 
REMARK    3  A    between atoms: C6_7  and  C7_8 
REMARK    4  A    between atoms: C7_8  and  N1_9 
REMARK    5  A    between atoms: N1_9  and  N2_11 
REMARK    6  A    between atoms: C8_13  and  N3_14 
REMARK    7  A    between atoms: N3_14  and  N4_16 
REMARK    8  A    between atoms: N5_19  and  C9_20 
REMARK    9  A    between atoms: C9_20  and  N6_21 
REMARK   10  A    between atoms: C10_25  and  O2_26 
ROOT
HETATM    1  C2  UNL     1      38.204  29.260  19.787  1.00  0.00     0.119 A 
HETATM    2  C3  UNL     1      38.944  28.101  19.825  1.00  0.00     0.043 A 
HETATM    3  C4  UNL     1      40.303  28.167  19.556  1.00  0.00     0.028 A 
HETATM    4  C5  UNL     1      40.944  29.347  19.252  1.00  0.00     0.017 A 
HETATM    5  N5  UNL     1      40.198  30.467  19.221  1.00  0.00    -0.305 N 
HETATM    6  C10 UNL     1      38.855  30.422  19.483  1.00  0.00     0.178 A 
ENDROOT
BRANCH   4   7
HETATM    7  C6  UNL     1      42.376  29.380  18.976  1.00  0.00     0.078 C 
BRANCH   7   8
HETATM    8  C7  UNL     1      42.782  29.498  17.552  1.00  0.00     0.145 C 
BRANCH   8   9
HETATM    9  N1  UNL     1      41.802  29.164  16.581  1.00  0.00    -0.335 N 
ATOM     10  H1  UNL     1      40.831  29.007  16.852  1.00  0.00     0.180 HD
BRANCH   9  11
HETATM   11  N2  UNL     1      42.197  29.056  15.254  1.00  0.00    -0.299 N 
HETATM   12  C8  UNL     1      43.345  29.337  14.799  1.00  0.00     0.212 C 
ATOM     13  H2  UNL     1      41.500  28.722  14.587  1.00  0.00     0.187 HD
BRANCH  12  14
HETATM   14  N3  UNL     1      43.595  29.173  13.408  1.00  0.00    -0.301 N 
ATOM     15  H3  UNL     1      44.267  29.761  12.915  1.00  0.00     0.187 HD
BRANCH  14  16
HETATM   16  N4  UNL     1      42.877  28.168  12.746  1.00  0.00    -0.344 N 
ATOM     17  H42 UNL     1      42.537  28.313  11.796  1.00  0.00     0.176 HD
ATOM     18  H41 UNL     1      42.716  27.300  13.257  1.00  0.00     0.176 HD
ENDBRANCH  14  16
ENDBRANCH  12  14
ENDBRANCH   9  11
ENDBRANCH   8   9
ENDBRANCH   7   8
ENDBRANCH   4   7
BRANCH   5  19
HETATM   19  C9  UNL     1      40.758  31.758  18.925  1.00  0.00     0.360 C 
BRANCH  19  20
HETATM   20  N6  UNL     1      40.975  32.538  20.150  1.00  0.00    -0.063 N 
ATOM     21  H63 UNL     1      40.860  33.537  19.983  1.00  0.00     0.276 HD
ATOM     22  H62 UNL     1      40.216  32.404  20.820  1.00  0.00     0.276 HD
ATOM     23  H61 UNL     1      41.882  32.330  20.567  1.00  0.00     0.276 HD
ENDBRANCH  19  20
ENDBRANCH   5  19
BRANCH   6  24
HETATM   24  O2  UNL     1      38.101  31.590  19.446  1.00  0.00    -0.344 OA
ATOM     25  H2  UNL     1      38.350  32.253  18.814  1.00  0.00     0.219 HD
ENDBRANCH   6  24
BRANCH   1  26
HETATM   26  O1  UNL     1      36.846  29.229  20.050  1.00  0.00    -0.352 OA
HETATM   27  C1  UNL     1      36.374  29.268  21.389  1.00  0.00     0.210 C 
ENDBRANCH   1  26
TORSDOF 10
ENDMDL
MODEL 2
REMARK VINA RESULT: -6.294945863      2.996      4.705
REMARK  10 active torsions:
REMARK  status: ('A' for Active; 'I' for Inactive)
REMARK    1  A    between atoms: O1_2  and  C2_3 
REMARK    2  A    between atoms: C5_6  and  C6_7 
REMARK    3  A    between atoms: C6_7  and  C7_8 
REMARK    4  A    between atoms: C7_8  and  N1_9 
REMARK    5  A    between atoms: N1_9  and  N2_11 
REMARK    6  A    between atoms: C8_13  and  N3_14 
REMARK    7  A    between atoms: N3_14  and  N4_16 
REMARK    8  A    between atoms: N5_19  and  C9_20 
REMARK    9  A    between atoms: C9_20  and  N6_21 
REMARK   10  A    between atoms: C10_25  and  O2_26 
ROOT
HETATM    1  C2  UNL     1      41.622  30.923  17.658  1.00  0.00     0.119 A 
HETATM    2  C3  UNL     1      40.848  30.064  16.912  1.00  0.00     0.043 A 
HETATM    3  C4  UNL     1      41.466  29.248  15.977  1.00  0.00     0.028 A 
HETATM    4  C5  UNL     1      42.826  29.260  15.763  1.00  0.00     0.017 A 
HETATM    5  N5  UNL     1      43.562  30.110  16.504  1.00  0.00    -0.305 N 
HETATM    6  C10 UNL     1      42.970  30.924  17.432  1.00  0.00     0.178 A 
ENDROOT
BRANCH   4   7
HETATM    7  C6  UNL     1      43.443  28.386  14.771  1.00  0.00     0.078 C 
BRANCH   7   8
HETATM    8  C7  UNL     1      43.331  28.801  13.349  1.00  0.00     0.145 C 
BRANCH   8   9
HETATM    9  N1  UNL     1      42.583  27.948  12.495  1.00  0.00    -0.335 N 
ATOM     10  H1  UNL     1      41.837  27.360  12.867  1.00  0.00     0.180 HD
BRANCH   9  11
HETATM   11  N2  UNL     1      42.892  27.935  11.141  1.00  0.00    -0.299 N 
HETATM   12  C8  UNL     1      43.126  26.902  10.446  1.00  0.00     0.212 C 
ATOM     13  H2  UNL     1      42.935  28.836  10.665  1.00  0.00     0.187 HD
BRANCH  12  14
HETATM   14  N3  UNL     1      43.430  27.054   9.065  1.00  0.00    -0.301 N 
ATOM     15  H3  UNL     1      42.720  26.917   8.345  1.00  0.00     0.187 HD
BRANCH  14  16
HETATM   16  N4  UNL     1      44.747  27.402   8.737  1.00  0.00    -0.344 N 
ATOM     17  H42 UNL     1      45.285  28.025   9.340  1.00  0.00     0.176 HD
ATOM     18  H41 UNL     1      45.131  27.006   7.879  1.00  0.00     0.176 HD
ENDBRANCH  14  16
ENDBRANCH  12  14
ENDBRANCH   9  11
ENDBRANCH   8   9
ENDBRANCH   7   8
ENDBRANCH   4   7
BRANCH   5  19
HETATM   19  C9  UNL     1      44.991  30.205  16.375  1.00  0.00     0.360 C 
BRANCH  19  20
HETATM   20  N6  UNL     1      45.672  29.346  17.353  1.00  0.00    -0.063 N 
ATOM     21  H63 UNL     1      45.104  29.204  18.187  1.00  0.00     0.276 HD
ATOM     22  H62 UNL     1      45.723  28.379  17.031  1.00  0.00     0.276 HD
ATOM     23  H61 UNL     1      46.596  29.711  17.586  1.00  0.00     0.276 HD
ENDBRANCH  19  20
ENDBRANCH   5  19
BRANCH   6  24
HETATM   24  O2  UNL     1      43.747  31.795  18.188  1.00  0.00    -0.344 OA
ATOM     25  H2  UNL     1      44.256  32.446  17.721  1.00  0.00     0.219 HD
ENDBRANCH   6  24
BRANCH   1  26
HETATM   26  O1  UNL     1      41.038  31.752  18.599  1.00  0.00    -0.352 OA
HETATM   27  C1  UNL     1      39.720  31.492  19.062  1.00  0.00     0.210 C 
ENDBRANCH   1  26
TORSDOF 10
ENDMDL
MODEL 3
REMARK VINA RESULT: -6.231395298      1.508      1.721
REMARK  10 active torsions:
REMARK  status: ('A' for Active; 'I' for Inactive)
REMARK    1  A    between atoms: O1_2  and  C2_3 
REMARK    2  A    between atoms: C5_6  and  C6_7 
REMARK    3  A    between atoms: C6_7  and  C7_8 
REMARK    4  A    between atoms: C7_8  and  N1_9 
REMARK    5  A    between atoms: N1_9  and  N2_11 
REMARK    6  A    between atoms: C8_13  and  N3_14 
REMARK    7  A    between atoms: N3_14  and  N4_16 
REMARK    8  A    between atoms: N5_19  and  C9_20 
REMARK    9  A    between atoms: C9_20  and  N6_21 
REMARK   10  A    between atoms: C10_25  and  O2_26 
ROOT
HETATM    1  C2  UNL     1      38.167  29.866  19.779  1.00  0.00     0.119 A 
HETATM    2  C3  UNL     1      38.553  28.678  19.202  1.00  0.00     0.043 A 
HETATM    3  C4  UNL     1      39.772  28.620  18.544  1.00  0.00     0.028 A 
HETATM    4  C5  UNL     1      40.615  29.704  18.443  1.00  0.00     0.017 A 
HETATM    5  N5  UNL     1      40.214  30.855  19.016  1.00  0.00    -0.305 N 
HETATM    6  C10 UNL     1      39.014  30.932  19.670  1.00  0.00     0.178 A 
ENDROOT
BRANCH   4   7
HETATM    7  C6  UNL     1      41.892  29.607  17.745  1.00  0.00     0.078 C 
BRANCH   7   8
HETATM    8  C7  UNL     1      41.878  29.873  16.283  1.00  0.00     0.145 C 
BRANCH   8   9
HETATM    9  N1  UNL     1      42.249  28.795  15.437  1.00  0.00    -0.335 N 
ATOM     10  H1  UNL     1      41.542  28.254  14.938  1.00  0.00     0.180 HD
BRANCH   9  11
HETATM   11  N2  UNL     1      43.599  28.494  15.305  1.00  0.00    -0.299 N 
HETATM   12  C8  UNL     1      44.548  29.334  15.312  1.00  0.00     0.212 C 
ATOM     13  H2  UNL     1      43.847  27.511  15.192  1.00  0.00     0.187 HD
BRANCH  12  14
HETATM   14  N3  UNL     1      45.883  28.866  15.164  1.00  0.00    -0.301 N 
ATOM     15  H3  UNL     1      46.224  28.499  14.275  1.00  0.00     0.187 HD
BRANCH  14  16
HETATM   16  N4  UNL     1      46.709  28.931  16.294  1.00  0.00    -0.344 N 
ATOM     17  H42 UNL     1      46.552  29.638  17.012  1.00  0.00     0.176 HD
ATOM     18  H41 UNL     1      47.462  28.245  16.358  1.00  0.00     0.176 HD
ENDBRANCH  14  16
ENDBRANCH  12  14
ENDBRANCH   9  11
ENDBRANCH   8   9
ENDBRANCH   7   8
ENDBRANCH   4   7
BRANCH   5  19
HETATM   19  C9  UNL     1      41.014  32.050  18.984  1.00  0.00     0.360 C 
BRANCH  19  20
HETATM   20  N6  UNL     1      41.726  32.248  20.253  1.00  0.00    -0.063 N 
ATOM     21  H63 UNL     1      42.713  32.453  20.100  1.00  0.00     0.276 HD
ATOM     22  H62 UNL     1      41.453  33.122  20.703  1.00  0.00     0.276 HD
ATOM     23  H61 UNL     1      41.602  31.451  20.876  1.00  0.00     0.276 HD
ENDBRANCH  19  20
ENDBRANCH   5  19
BRANCH   6  24
HETATM   24  O2  UNL     1      38.618  32.130  20.255  1.00  0.00    -0.344 OA
ATOM     25  H2  UNL     1      37.716  32.200  20.543  1.00  0.00     0.219 HD
ENDBRANCH   6  24
BRANCH   1  26
HETATM   26  O1  UNL     1      36.957  29.958  20.443  1.00  0.00    -0.352 OA
HETATM   27  C1  UNL     1      36.602  28.993  21.423  1.00  0.00     0.210 C 
ENDBRANCH   1  26
TORSDOF 10
ENDMDL
MODEL 4
REMARK VINA RESULT: -6.210517152      3.124      4.928
REMARK  10 active torsions:
REMARK  status: ('A' for Active; 'I' for Inactive)
REMARK    1  A    between atoms: O1_2  and  C2_3 
REMARK    2  A    between atoms: C5_6  and  C6_7 
REMARK    3  A    between atoms: C6_7  and  C7_8 
REMARK    4  A    between atoms: C7_8  and  N1_9 
REMARK    5  A    between atoms: N1_9  and  N2_11 
REMARK    6  A    between atoms: C8_13  and  N3_14 
REMARK    7  A    between atoms: N3_14  and  N4_16 
REMARK    8  A    between atoms: N5_19  and  C9_20 
REMARK    9  A    between atoms: C9_20  and  N6_21 
REMARK   10  A    between atoms: C10_25  and  O2_26 
ROOT
HETATM    1  C2  UNL     1      41.892  30.735  17.540  1.00  0.00     0.119 A 
HETATM    2  C3  UNL     1      41.040  29.988  16.760  1.00  0.00     0.043 A 
HETATM    3  C4  UNL     1      41.568  29.244  15.715  1.00  0.00     0.028 A 
HETATM    4  C5  UNL     1      42.914  29.221  15.426  1.00  0.00     0.017 A 
HETATM    5  N5  UNL     1      43.727  29.960  16.203  1.00  0.00    -0.305 N 
HETATM    6  C10 UNL     1      43.224  30.701  17.239  1.00  0.00     0.178 A 
ENDROOT
BRANCH   4   7
HETATM    7  C6  UNL     1      43.435  28.426  14.320  1.00  0.00     0.078 C 
BRANCH   7   8
HETATM    8  C7  UNL     1      43.419  29.056  12.974  1.00  0.00     0.145 C 
BRANCH   8   9
HETATM    9  N1  UNL     1      43.043  28.223  11.887  1.00  0.00    -0.335 N 
ATOM     10  H1  UNL     1      43.449  28.358  10.961  1.00  0.00     0.180 HD
BRANCH   9  11
HETATM   11  N2  UNL     1      42.111  27.220  12.116  1.00  0.00    -0.299 N 
HETATM   12  C8  UNL     1      41.872  26.242  11.347  1.00  0.00     0.212 C 
ATOM     13  H2  UNL     1      41.570  27.276  12.980  1.00  0.00     0.187 HD
BRANCH  12  14
HETATM   14  N3  UNL     1      40.881  25.294  11.724  1.00  0.00    -0.301 N 
ATOM     15  H3  UNL     1      39.888  25.470  11.567  1.00  0.00     0.187 HD
BRANCH  14  16
HETATM   16  N4  UNL     1      41.328  24.107  12.319  1.00  0.00    -0.344 N 
ATOM     17  H42 UNL     1      41.869  23.429  11.782  1.00  0.00     0.176 HD
ATOM     18  H41 UNL     1      41.090  23.961  13.300  1.00  0.00     0.176 HD
ENDBRANCH  14  16
ENDBRANCH  12  14
ENDBRANCH   9  11
ENDBRANCH   8   9
ENDBRANCH   7   8
ENDBRANCH   4   7
BRANCH   5  19
HETATM   19  C9  UNL     1      45.150  30.007  16.003  1.00  0.00     0.360 C 
BRANCH  19  20
HETATM   20  N6  UNL     1      45.853  29.155  16.972  1.00  0.00    -0.063 N 
ATOM     21  H63 UNL     1      45.688  29.462  17.930  1.00  0.00     0.276 HD
ATOM     22  H62 UNL     1      45.433  28.227  17.029  1.00  0.00     0.276 HD
ATOM     23  H61 UNL     1      46.850  29.102  16.763  1.00  0.00     0.276 HD
ENDBRANCH  19  20
ENDBRANCH   5  19
BRANCH   6  24
HETATM   24  O2  UNL     1      44.081  31.458  18.031  1.00  0.00    -0.344 OA
ATOM     25  H2  UNL     1      44.942  31.655  17.682  1.00  0.00     0.219 HD
ENDBRANCH   6  24
BRANCH   1  26
HETATM   26  O1  UNL     1      41.398  31.488  18.590  1.00  0.00    -0.352 OA
HETATM   27  C1  UNL     1      40.022  31.420  18.936  1.00  0.00     0.210 C 
ENDBRANCH   1  26
TORSDOF 10
ENDMDL
MODEL 5
REMARK VINA RESULT: -6.201865528      1.342      2.356
REMARK  10 active torsions:
REMARK  status: ('A' for Active; 'I' for Inactive)
REMARK    1  A    between atoms: O1_2  and  C2_3 
REMARK    2  A    between atoms: C5_6  and  C6_7 
REMARK    3  A    between atoms: C6_7  and  C7_8 
REMARK    4  A    between atoms: C7_8  and  N1_9 
REMARK    5  A    between atoms: N1_9  and  N2_11 
REMARK    6  A    between atoms: C8_13  and  N3_14 
REMARK    7  A    between atoms: N3_14  and  N4_16 
REMARK    8  A    between atoms: N5_19  and  C9_20 
REMARK    9  A    between atoms: C9_20  and  N6_21 
REMARK   10  A    between atoms: C10_25  and  O2_26 
ROOT
HETATM    1  C2  UNL     1      37.962  29.990  19.864  1.00  0.00     0.119 A 
HETATM    2  C3  UNL     1      38.406  31.208  19.404  1.00  0.00     0.043 A 
HETATM    3  C4  UNL     1      39.743  31.348  19.064  1.00  0.00     0.028 A 
HETATM    4  C5  UNL     1      40.648  30.316  19.168  1.00  0.00     0.017 A 
HETATM    5  N5  UNL     1      40.190  29.134  19.622  1.00  0.00    -0.305 N 
HETATM    6  C10 UNL     1      38.873  28.977  19.962  1.00  0.00     0.178 A 
ENDROOT
BRANCH   4   7
HETATM    7  C6  UNL     1      42.048  30.498  18.801  1.00  0.00     0.078 C 
BRANCH   7   8
HETATM    8  C7  UNL     1      42.360  30.539  17.349  1.00  0.00     0.145 C 
BRANCH   8   9
HETATM    9  N1  UNL     1      42.938  29.370  16.789  1.00  0.00    -0.335 N 
ATOM     10  H1  UNL     1      43.563  28.780  17.339  1.00  0.00     0.180 HD
BRANCH   9  11
HETATM   11  N2  UNL     1      42.632  29.047  15.473  1.00  0.00    -0.299 N 
HETATM   12  C8  UNL     1      43.471  28.871  14.540  1.00  0.00     0.212 C 
ATOM     13  H2  UNL     1      41.644  28.944  15.237  1.00  0.00     0.187 HD
BRANCH  12  14
HETATM   14  N3  UNL     1      42.996  28.544  13.239  1.00  0.00    -0.301 N 
ATOM     15  H3  UNL     1      42.434  27.710  13.071  1.00  0.00     0.187 HD
BRANCH  14  16
HETATM   16  N4  UNL     1      43.335  29.420  12.199  1.00  0.00    -0.344 N 
ATOM     17  H42 UNL     1      42.609  29.876  11.647  1.00  0.00     0.176 HD
ATOM     18  H41 UNL     1      44.329  29.573  12.027  1.00  0.00     0.176 HD
ENDBRANCH  14  16
ENDBRANCH  12  14
ENDBRANCH   9  11
ENDBRANCH   8   9
ENDBRANCH   7   8
ENDBRANCH   4   7
BRANCH   5  19
HETATM   19  C9  UNL     1      41.039  27.982  19.764  1.00  0.00     0.360 C 
BRANCH  19  20
HETATM   20  N6  UNL     1      40.371  26.765  19.286  1.00  0.00    -0.063 N 
ATOM     21  H63 UNL     1      40.502  25.987  19.931  1.00  0.00     0.276 HD
ATOM     22  H62 UNL     1      39.356  26.847  19.343  1.00  0.00     0.276 HD
ATOM     23  H61 UNL     1      40.674  26.523  18.342  1.00  0.00     0.276 HD
ENDBRANCH  19  20
ENDBRANCH   5  19
BRANCH   6  24
HETATM   24  O2  UNL     1      38.419  27.748  20.429  1.00  0.00    -0.344 OA
ATOM     25  H2  UNL     1      38.161  27.693  21.342  1.00  0.00     0.219 HD
ENDBRANCH   6  24
BRANCH   1  26
HETATM   26  O1  UNL     1      36.635  29.817  20.212  1.00  0.00    -0.352 OA
HETATM   27  C1  UNL     1      36.284  29.440  21.535  1.00  0.00     0.210 C 
ENDBRANCH   1  26
TORSDOF 10
ENDMDL
