MODEL 1
REMARK VINA RESULT: -9.215573911      0.000      0.000
REMARK  7 active torsions:
REMARK  status: ('A' for Active; 'I' for Inactive)
REMARK    1  A    between atoms: C2_2  and  O1_4 
REMARK    2  A    between atoms: C2_2  and  C4_6 
REMARK    3  A    between atoms: C5_8  and  C6_9 
REMARK    4  A    between atoms: C6_9  and  N1_10 
REMARK       I    between atoms: N4_19  and  C9_21 
REMARK       I    between atoms: C9_21  and  N5_22 
REMARK       I    between atoms: C9_21  and  N6_26 
REMARK    5  A    between atoms: C14_36  and  N7_37 
REMARK    6  A    between atoms: N7_37  and  C15_39 
REMARK    7  A    between atoms: C17_46  and  O6_47 
ROOT
HETATM    1  N1  UNL     1      15.351 -12.034  50.667  1.00  0.00    -0.201 N 
HETATM    2  O3  UNL     1      15.401 -13.397  50.979  1.00  0.00    -0.148 OA
HETATM    3  N2  UNL     1      16.466 -13.871  51.576  1.00  0.00    -0.223 N 
ATOM      4  H2  UNL     1      16.894 -14.697  51.159  1.00  0.00     0.198 HD
HETATM    5  C7  UNL     1      17.099 -13.346  52.768  1.00  0.00     0.149 C 
HETATM    6  N3  UNL     1      18.127 -13.972  53.171  1.00  0.00    -0.382 N 
ATOM      7  H31 UNL     1      18.573 -13.602  54.011  1.00  0.00     0.157 HD
ATOM      8  H32 UNL     1      18.428 -14.788  52.639  1.00  0.00     0.157 HD
HETATM    9  C8  UNL     1      16.668 -12.179  53.529  1.00  0.00     0.093 C 
HETATM   10  N4  UNL     1      16.770 -12.046  54.721  1.00  0.00    -0.337 N 
ATOM     11  H4  UNL     1      16.380 -11.131  54.948  1.00  0.00     0.163 HD
HETATM   12  C9  UNL     1      17.185 -12.595  55.899  1.00  0.00     0.480 C 
HETATM   13  N5  UNL     1      18.588 -12.789  56.055  1.00  0.00    -0.033 N 
ATOM     14  H51 UNL     1      18.899 -13.200  56.935  1.00  0.00     0.278 HD
ATOM     15  H52 UNL     1      19.075 -11.906  55.899  1.00  0.00     0.278 HD
ATOM     16  H53 UNL     1      18.946 -13.340  55.275  1.00  0.00     0.278 HD
HETATM   17  N6  UNL     1      16.732 -11.697  57.000  1.00  0.00    -0.033 N 
ATOM     18  H61 UNL     1      17.043 -12.108  57.881  1.00  0.00     0.278 HD
ATOM     19  H62 UNL     1      15.729 -11.517  56.978  1.00  0.00     0.278 HD
ATOM     20  H63 UNL     1      17.044 -10.734  56.880  1.00  0.00     0.278 HD
HETATM   21  C10 UNL     1      16.027 -11.017  52.833  1.00  0.00     0.082 A 
HETATM   22  C11 UNL     1      15.470 -10.961  51.580  1.00  0.00     0.135 A 
HETATM   23  C12 UNL     1      15.141  -9.636  51.755  1.00  0.00     0.252 A 
HETATM   24  O4  UNL     1      14.601  -8.676  51.175  1.00  0.00    -0.281 OA
HETATM   25  C13 UNL     1      15.712  -9.712  53.027  1.00  0.00     0.239 A 
HETATM   26  O5  UNL     1      15.869  -8.888  53.993  1.00  0.00    -0.283 OA
ENDROOT
BRANCH   1  27
HETATM   27  C6  UNL     1      15.043 -11.876  49.302  1.00  0.00     0.166 C 
BRANCH  27  28
HETATM   28  C5  UNL     1      15.312 -12.911  48.328  1.00  0.00     0.123 A 
HETATM   29  O2  UNL     1      16.118 -13.899  48.339  1.00  0.00    -0.305 OA
HETATM   30  C4  UNL     1      16.047 -14.651  47.271  1.00  0.00     0.122 A 
HETATM   31  C17 UNL     1      15.104 -14.109  46.456  1.00  0.00     0.128 A 
HETATM   32  C14 UNL     1      14.613 -12.983  47.112  1.00  0.00     0.106 A 
BRANCH  30  33
HETATM   33  C2  UNL     1      16.872 -15.874  47.068  1.00  0.00     0.102 C 
HETATM   34  C1  UNL     1      18.043 -15.506  46.129  1.00  0.00     0.053 C 
HETATM   35  C3  UNL     1      17.531 -16.375  48.325  1.00  0.00     0.053 C 
BRANCH  33  36
HETATM   36  O1  UNL     1      16.139 -16.796  46.376  1.00  0.00    -0.384 OA
ATOM     37  H1  UNL     1      16.707 -17.554  46.296  1.00  0.00     0.211 HD
ENDBRANCH  33  36
ENDBRANCH  30  33
BRANCH  31  38
HETATM   38  O6  UNL     1      14.672 -14.521  45.227  1.00  0.00    -0.356 OA
ATOM     39  H6  UNL     1      13.787 -14.665  44.912  1.00  0.00     0.218 HD
ENDBRANCH  31  38
BRANCH  32  40
HETATM   40  N7  UNL     1      13.734 -12.022  46.593  1.00  0.00    -0.323 N 
ATOM     41  H7  UNL     1      13.468 -11.281  47.242  1.00  0.00     0.169 HD
BRANCH  40  42
HETATM   42  C15 UNL     1      13.169 -11.929  45.325  1.00  0.00     0.193 A 
HETATM   43  N8  UNL     1      12.356 -12.777  44.813  1.00  0.00    -0.346 N 
HETATM   44  C16 UNL     1      11.932 -12.434  43.499  1.00  0.00     0.259 A 
ATOM     45  H8  UNL     1      12.042 -13.617  45.301  1.00  0.00     0.163 HD
HETATM   46  N9  UNL     1      12.534 -11.155  43.236  1.00  0.00    -0.119 NA
HETATM   47  N10 UNL     1      13.355 -10.905  44.328  1.00  0.00    -0.274 N 
ATOM     48  H10 UNL     1      13.993 -10.115  44.412  1.00  0.00     0.185 HD
ENDBRANCH  40  42
ENDBRANCH  32  40
ENDBRANCH  27  28
ENDBRANCH   1  27
TORSDOF 7
ENDMDL
MODEL 2
REMARK VINA RESULT: -8.779460128      2.306      3.239
REMARK  7 active torsions:
REMARK  status: ('A' for Active; 'I' for Inactive)
REMARK    1  A    between atoms: C2_2  and  O1_4 
REMARK    2  A    between atoms: C2_2  and  C4_6 
REMARK    3  A    between atoms: C5_8  and  C6_9 
REMARK    4  A    between atoms: C6_9  and  N1_10 
REMARK       I    between atoms: N4_19  and  C9_21 
REMARK       I    between atoms: C9_21  and  N5_22 
REMARK       I    between atoms: C9_21  and  N6_26 
REMARK    5  A    between atoms: C14_36  and  N7_37 
REMARK    6  A    between atoms: N7_37  and  C15_39 
REMARK    7  A    between atoms: C17_46  and  O6_47 
ROOT
HETATM    1  N1  UNL     1      15.486 -12.221  50.693  1.00  0.00    -0.201 N 
HETATM    2  O3  UNL     1      15.528 -13.570  51.063  1.00  0.00    -0.148 OA
HETATM    3  N2  UNL     1      16.566 -14.012  51.729  1.00  0.00    -0.223 N 
ATOM      4  H2  UNL     1      17.017 -14.851  51.366  1.00  0.00     0.198 HD
HETATM    5  C7  UNL     1      17.140 -13.434  52.926  1.00  0.00     0.149 C 
HETATM    6  N3  UNL     1      18.151 -14.036  53.401  1.00  0.00    -0.382 N 
ATOM      7  H31 UNL     1      18.556 -13.629  54.245  1.00  0.00     0.157 HD
ATOM      8  H32 UNL     1      18.481 -14.871  52.918  1.00  0.00     0.157 HD
HETATM    9  C8  UNL     1      16.668 -12.240  53.617  1.00  0.00     0.093 C 
HETATM   10  N4  UNL     1      16.714 -12.058  54.806  1.00  0.00    -0.337 N 
ATOM     11  H4  UNL     1      16.310 -11.137  54.977  1.00  0.00     0.163 HD
HETATM   12  C9  UNL     1      17.077 -12.556  56.024  1.00  0.00     0.480 C 
HETATM   13  N5  UNL     1      18.472 -12.733  56.253  1.00  0.00    -0.033 N 
ATOM     14  H51 UNL     1      18.743 -13.106  57.163  1.00  0.00     0.278 HD
ATOM     15  H52 UNL     1      18.961 -11.854  56.084  1.00  0.00     0.278 HD
ATOM     16  H53 UNL     1      18.869 -13.313  55.514  1.00  0.00     0.278 HD
HETATM   17  N6  UNL     1      16.568 -11.617  57.065  1.00  0.00    -0.033 N 
ATOM     18  H61 UNL     1      16.840 -11.989  57.975  1.00  0.00     0.278 HD
ATOM     19  H62 UNL     1      15.566 -11.444  56.989  1.00  0.00     0.278 HD
ATOM     20  H63 UNL     1      16.880 -10.656  56.920  1.00  0.00     0.278 HD
HETATM   21  C10 UNL     1      16.055 -11.112  52.845  1.00  0.00     0.082 A 
HETATM   22  C11 UNL     1      15.557 -11.111  51.566  1.00  0.00     0.135 A 
HETATM   23  C12 UNL     1      15.214  -9.783  51.671  1.00  0.00     0.252 A 
HETATM   24  O4  UNL     1      14.697  -8.850  51.028  1.00  0.00    -0.281 OA
HETATM   25  C13 UNL     1      15.725  -9.803  52.971  1.00  0.00     0.239 A 
HETATM   26  O5  UNL     1      15.832  -8.939  53.908  1.00  0.00    -0.283 OA
ENDROOT
BRANCH   1  27
HETATM   27  C6  UNL     1      15.241 -12.121  49.311  1.00  0.00     0.166 C 
BRANCH  27  28
HETATM   28  C5  UNL     1      15.394 -13.250  48.419  1.00  0.00     0.123 A 
HETATM   29  O2  UNL     1      16.314 -13.561  47.592  1.00  0.00    -0.305 OA
HETATM   30  C4  UNL     1      16.112 -14.701  46.982  1.00  0.00     0.122 A 
HETATM   31  C17 UNL     1      14.934 -15.202  47.437  1.00  0.00     0.128 A 
HETATM   32  C14 UNL     1      14.446 -14.285  48.365  1.00  0.00     0.106 A 
BRANCH  30  33
HETATM   33  C2  UNL     1      17.061 -15.283  45.992  1.00  0.00     0.102 C 
HETATM   34  C1  UNL     1      17.872 -14.122  45.373  1.00  0.00     0.053 C 
HETATM   35  C3  UNL     1      18.093 -16.190  46.605  1.00  0.00     0.053 C 
BRANCH  33  36
HETATM   36  O1  UNL     1      16.349 -15.813  44.953  1.00  0.00    -0.384 OA
ATOM     37  H1  UNL     1      15.775 -16.458  45.350  1.00  0.00     0.211 HD
ENDBRANCH  33  36
ENDBRANCH  30  33
BRANCH  31  38
HETATM   38  O6  UNL     1      14.289 -16.358  47.100  1.00  0.00    -0.356 OA
ATOM     39  H6  UNL     1      13.453 -16.482  46.667  1.00  0.00     0.218 HD
ENDBRANCH  31  38
BRANCH  32  40
HETATM   40  N7  UNL     1      13.189 -14.302  48.986  1.00  0.00    -0.323 N 
ATOM     41  H7  UNL     1      12.572 -13.528  48.741  1.00  0.00     0.169 HD
BRANCH  40  42
HETATM   42  C15 UNL     1      12.658 -15.219  49.888  1.00  0.00     0.193 A 
HETATM   43  N8  UNL     1      11.416 -15.517  49.997  1.00  0.00    -0.346 N 
HETATM   44  C16 UNL     1      11.152 -16.489  51.002  1.00  0.00     0.259 A 
ATOM     45  H8  UNL     1      10.687 -15.097  49.419  1.00  0.00     0.163 HD
HETATM   46  N9  UNL     1      12.446 -16.867  51.503  1.00  0.00    -0.119 NA
HETATM   47  N10 UNL     1      13.345 -16.018  50.872  1.00  0.00    -0.274 N 
ATOM     48  H10 UNL     1      14.343 -15.968  51.073  1.00  0.00     0.185 HD
ENDBRANCH  40  42
ENDBRANCH  32  40
ENDBRANCH  27  28
ENDBRANCH   1  27
TORSDOF 7
ENDMDL
MODEL 3
REMARK VINA RESULT: -8.690016114      3.027      3.644
REMARK  7 active torsions:
REMARK  status: ('A' for Active; 'I' for Inactive)
REMARK    1  A    between atoms: C2_2  and  O1_4 
REMARK    2  A    between atoms: C2_2  and  C4_6 
REMARK    3  A    between atoms: C5_8  and  C6_9 
REMARK    4  A    between atoms: C6_9  and  N1_10 
REMARK       I    between atoms: N4_19  and  C9_21 
REMARK       I    between atoms: C9_21  and  N5_22 
REMARK       I    between atoms: C9_21  and  N6_26 
REMARK    5  A    between atoms: C14_36  and  N7_37 
REMARK    6  A    between atoms: N7_37  and  C15_39 
REMARK    7  A    between atoms: C17_46  and  O6_47 
ROOT
HETATM    1  N1  UNL     1      15.164 -14.331  49.939  1.00  0.00    -0.201 N 
HETATM    2  O3  UNL     1      15.400 -15.136  51.059  1.00  0.00    -0.148 OA
HETATM    3  N2  UNL     1      16.475 -14.925  51.776  1.00  0.00    -0.223 N 
ATOM      4  H2  UNL     1      17.056 -15.738  51.978  1.00  0.00     0.198 HD
HETATM    5  C7  UNL     1      16.926 -13.658  52.313  1.00  0.00     0.149 C 
HETATM    6  N3  UNL     1      18.004 -13.692  52.982  1.00  0.00    -0.382 N 
ATOM      7  H31 UNL     1      18.322 -12.799  53.360  1.00  0.00     0.157 HD
ATOM      8  H32 UNL     1      18.467 -14.593  53.096  1.00  0.00     0.157 HD
HETATM    9  C8  UNL     1      16.263 -12.369  52.150  1.00  0.00     0.093 C 
HETATM   10  N4  UNL     1      16.252 -11.482  52.964  1.00  0.00    -0.337 N 
ATOM     11  H4  UNL     1      15.710 -10.720  52.557  1.00  0.00     0.163 HD
HETATM   12  C9  UNL     1      16.654 -11.060  54.197  1.00  0.00     0.480 C 
HETATM   13  N5  UNL     1      18.054 -10.869  54.383  1.00  0.00    -0.033 N 
ATOM     14  H51 UNL     1      18.355 -10.554  55.305  1.00  0.00     0.278 HD
ATOM     15  H52 UNL     1      18.410 -10.232  53.670  1.00  0.00     0.278 HD
ATOM     16  H53 UNL     1      18.552 -11.724  54.134  1.00  0.00     0.278 HD
HETATM   17  N6  UNL     1      15.985  -9.755  54.469  1.00  0.00    -0.033 N 
ATOM     18  H61 UNL     1      16.286  -9.440  55.391  1.00  0.00     0.278 HD
ATOM     19  H62 UNL     1      14.971  -9.803  54.377  1.00  0.00     0.278 HD
ATOM     20  H63 UNL     1      16.153  -9.063  53.738  1.00  0.00     0.278 HD
HETATM   21  C10 UNL     1      15.507 -12.060  50.894  1.00  0.00     0.082 A 
HETATM   22  C11 UNL     1      15.047 -12.922  49.929  1.00  0.00     0.135 A 
HETATM   23  C12 UNL     1      14.506 -11.878  49.215  1.00  0.00     0.252 A 
HETATM   24  O4  UNL     1      13.871 -11.628  48.174  1.00  0.00    -0.281 OA
HETATM   25  C13 UNL     1      14.981 -11.017  50.206  1.00  0.00     0.239 A 
HETATM   26  O5  UNL     1      14.935  -9.753  50.397  1.00  0.00    -0.283 OA
ENDROOT
BRANCH   1  27
HETATM   27  C6  UNL     1      14.943 -15.148  48.814  1.00  0.00     0.166 C 
BRANCH  27  28
HETATM   28  C5  UNL     1      13.612 -15.503  48.371  1.00  0.00     0.123 A 
HETATM   29  O2  UNL     1      12.694 -16.200  48.916  1.00  0.00    -0.305 OA
HETATM   30  C4  UNL     1      11.593 -16.266  48.212  1.00  0.00     0.122 A 
HETATM   31  C17 UNL     1      11.794 -15.548  47.075  1.00  0.00     0.128 A 
HETATM   32  C14 UNL     1      13.091 -15.045  47.150  1.00  0.00     0.106 A 
BRANCH  30  33
HETATM   33  C2  UNL     1      10.376 -17.002  48.654  1.00  0.00     0.102 C 
HETATM   34  C1  UNL     1      10.272 -18.295  47.813  1.00  0.00     0.053 C 
HETATM   35  C3  UNL     1      10.440 -17.475  50.081  1.00  0.00     0.053 C 
BRANCH  33  36
HETATM   36  O1  UNL     1       9.269 -16.272  48.321  1.00  0.00    -0.384 OA
ATOM     37  H1  UNL     1       9.205 -16.339  47.375  1.00  0.00     0.211 HD
ENDBRANCH  33  36
ENDBRANCH  30  33
BRANCH  31  38
HETATM   38  O6  UNL     1      10.951 -15.323  46.024  1.00  0.00    -0.356 OA
ATOM     39  H6  UNL     1      10.937 -14.606  45.401  1.00  0.00     0.218 HD
ENDBRANCH  31  38
BRANCH  32  40
HETATM   40  N7  UNL     1      13.792 -14.370  46.140  1.00  0.00    -0.323 N 
ATOM     41  H7  UNL     1      14.729 -14.726  45.950  1.00  0.00     0.169 HD
BRANCH  40  42
HETATM   42  C15 UNL     1      13.400 -13.287  45.360  1.00  0.00     0.193 A 
HETATM   43  N8  UNL     1      12.498 -13.319  44.449  1.00  0.00    -0.346 N 
HETATM   44  C16 UNL     1      12.297 -12.065  43.807  1.00  0.00     0.259 A 
ATOM     45  H8  UNL     1      11.976 -14.161  44.208  1.00  0.00     0.163 HD
HETATM   46  N9  UNL     1      13.162 -11.149  44.500  1.00  0.00    -0.119 NA
HETATM   47  N10 UNL     1      13.890 -11.932  45.386  1.00  0.00    -0.274 N 
ATOM     48  H10 UNL     1      14.657 -11.598  45.969  1.00  0.00     0.185 HD
ENDBRANCH  40  42
ENDBRANCH  32  40
ENDBRANCH  27  28
ENDBRANCH   1  27
TORSDOF 7
ENDMDL
MODEL 4
REMARK VINA RESULT: -8.652168796      1.852      2.676
REMARK  7 active torsions:
REMARK  status: ('A' for Active; 'I' for Inactive)
REMARK    1  A    between atoms: C2_2  and  O1_4 
REMARK    2  A    between atoms: C2_2  and  C4_6 
REMARK    3  A    between atoms: C5_8  and  C6_9 
REMARK    4  A    between atoms: C6_9  and  N1_10 
REMARK       I    between atoms: N4_19  and  C9_21 
REMARK       I    between atoms: C9_21  and  N5_22 
REMARK       I    between atoms: C9_21  and  N6_26 
REMARK    5  A    between atoms: C14_36  and  N7_37 
REMARK    6  A    between atoms: N7_37  and  C15_39 
REMARK    7  A    between atoms: C17_46  and  O6_47 
ROOT
HETATM    1  N1  UNL     1      15.225 -14.296  49.943  1.00  0.00    -0.201 N 
HETATM    2  O3  UNL     1      15.450 -15.100  51.067  1.00  0.00    -0.148 OA
HETATM    3  N2  UNL     1      16.510 -14.877  51.803  1.00  0.00    -0.223 N 
ATOM      4  H2  UNL     1      17.096 -15.684  52.014  1.00  0.00     0.198 HD
HETATM    5  C7  UNL     1      16.937 -13.606  52.349  1.00  0.00     0.149 C 
HETATM    6  N3  UNL     1      18.003 -13.629  53.037  1.00  0.00    -0.382 N 
ATOM      7  H31 UNL     1      18.304 -12.733  53.421  1.00  0.00     0.157 HD
ATOM      8  H32 UNL     1      18.474 -14.525  53.159  1.00  0.00     0.157 HD
HETATM    9  C8  UNL     1      16.263 -12.324  52.175  1.00  0.00     0.093 C 
HETATM   10  N4  UNL     1      16.228 -11.438  52.990  1.00  0.00    -0.337 N 
ATOM     11  H4  UNL     1      15.684 -10.682  52.575  1.00  0.00     0.163 HD
HETATM   12  C9  UNL     1      16.603 -11.014  54.230  1.00  0.00     0.480 C 
HETATM   13  N5  UNL     1      17.998 -10.807  54.441  1.00  0.00    -0.033 N 
ATOM     14  H51 UNL     1      18.279 -10.490  55.368  1.00  0.00     0.278 HD
ATOM     15  H52 UNL     1      18.359 -10.165  53.735  1.00  0.00     0.278 HD
ATOM     16  H53 UNL     1      18.509 -11.656  54.200  1.00  0.00     0.278 HD
HETATM   17  N6  UNL     1      15.915  -9.716  54.491  1.00  0.00    -0.033 N 
ATOM     18  H61 UNL     1      16.197  -9.399  55.419  1.00  0.00     0.278 HD
ATOM     19  H62 UNL     1      14.903  -9.775  54.381  1.00  0.00     0.278 HD
ATOM     20  H63 UNL     1      16.088  -9.022  53.764  1.00  0.00     0.278 HD
HETATM   21  C10 UNL     1      15.526 -12.023  50.906  1.00  0.00     0.082 A 
HETATM   22  C11 UNL     1      15.092 -12.889  49.933  1.00  0.00     0.135 A 
HETATM   23  C12 UNL     1      14.552 -11.850  49.210  1.00  0.00     0.252 A 
HETATM   24  O4  UNL     1      13.933 -11.606  48.158  1.00  0.00    -0.281 OA
HETATM   25  C13 UNL     1      15.001 -10.984  50.211  1.00  0.00     0.239 A 
HETATM   26  O5  UNL     1      14.937  -9.721  50.402  1.00  0.00    -0.283 OA
ENDROOT
BRANCH   1  27
HETATM   27  C6  UNL     1      15.032 -15.114  48.814  1.00  0.00     0.166 C 
BRANCH  27  28
HETATM   28  C5  UNL     1      16.104 -15.418  47.891  1.00  0.00     0.123 A 
HETATM   29  O2  UNL     1      17.025 -16.299  47.920  1.00  0.00    -0.305 OA
HETATM   30  C4  UNL     1      17.800 -16.289  46.866  1.00  0.00     0.122 A 
HETATM   31  C17 UNL     1      17.360 -15.295  46.050  1.00  0.00     0.128 A 
HETATM   32  C14 UNL     1      16.267 -14.714  46.687  1.00  0.00     0.106 A 
BRANCH  30  33
HETATM   33  C2  UNL     1      18.928 -17.240  46.664  1.00  0.00     0.102 C 
HETATM   34  C1  UNL     1      19.489 -17.612  48.055  1.00  0.00     0.053 C 
HETATM   35  C3  UNL     1      18.512 -18.551  46.053  1.00  0.00     0.053 C 
BRANCH  33  36
HETATM   36  O1  UNL     1      19.950 -16.589  46.031  1.00  0.00    -0.384 OA
ATOM     37  H1  UNL     1      20.727 -17.097  46.231  1.00  0.00     0.211 HD
ENDBRANCH  33  36
ENDBRANCH  30  33
BRANCH  31  38
HETATM   38  O6  UNL     1      17.841 -14.883  44.839  1.00  0.00    -0.356 OA
ATOM     39  H6  UNL     1      17.451 -14.300  44.198  1.00  0.00     0.218 HD
ENDBRANCH  31  38
BRANCH  32  40
HETATM   40  N7  UNL     1      15.580 -13.555  46.295  1.00  0.00    -0.323 N 
ATOM     41  H7  UNL     1      15.995 -12.677  46.609  1.00  0.00     0.169 HD
BRANCH  40  42
HETATM   42  C15 UNL     1      14.417 -13.425  45.543  1.00  0.00     0.193 A 
HETATM   43  N8  UNL     1      13.967 -12.328  45.058  1.00  0.00    -0.346 N 
HETATM   44  C16 UNL     1      12.757 -12.484  44.327  1.00  0.00     0.259 A 
ATOM     45  H8  UNL     1      14.432 -11.428  45.185  1.00  0.00     0.163 HD
HETATM   46  N9  UNL     1      12.504 -13.900  44.326  1.00  0.00    -0.119 NA
HETATM   47  N10 UNL     1      13.481 -14.447  45.146  1.00  0.00    -0.274 N 
ATOM     48  H10 UNL     1      13.530 -15.427  45.426  1.00  0.00     0.185 HD
ENDBRANCH  40  42
ENDBRANCH  32  40
ENDBRANCH  27  28
ENDBRANCH   1  27
TORSDOF 7
ENDMDL
MODEL 5
REMARK VINA RESULT: -8.507322615      3.270      7.284
REMARK  7 active torsions:
REMARK  status: ('A' for Active; 'I' for Inactive)
REMARK    1  A    between atoms: C2_2  and  O1_4 
REMARK    2  A    between atoms: C2_2  and  C4_6 
REMARK    3  A    between atoms: C5_8  and  C6_9 
REMARK    4  A    between atoms: C6_9  and  N1_10 
REMARK       I    between atoms: N4_19  and  C9_21 
REMARK       I    between atoms: C9_21  and  N5_22 
REMARK       I    between atoms: C9_21  and  N6_26 
REMARK    5  A    between atoms: C14_36  and  N7_37 
REMARK    6  A    between atoms: N7_37  and  C15_39 
REMARK    7  A    between atoms: C17_46  and  O6_47 
ROOT
HETATM    1  N1  UNL     1      15.901 -15.237  47.823  1.00  0.00    -0.201 N 
HETATM    2  O3  UNL     1      15.499 -14.815  46.551  1.00  0.00    -0.148 OA
HETATM    3  N2  UNL     1      16.346 -14.150  45.807  1.00  0.00    -0.223 N 
ATOM      4  H2  UNL     1      16.011 -13.275  45.403  1.00  0.00     0.198 HD
HETATM    5  C7  UNL     1      17.710 -14.525  45.497  1.00  0.00     0.149 C 
HETATM    6  N3  UNL     1      18.349 -13.722  44.750  1.00  0.00    -0.382 N 
ATOM      7  H31 UNL     1      19.310 -13.986  44.532  1.00  0.00     0.157 HD
ATOM      8  H32 UNL     1      17.866 -12.885  44.424  1.00  0.00     0.157 HD
HETATM    9  C8  UNL     1      18.401 -15.722  45.962  1.00  0.00     0.093 C 
HETATM   10  N4  UNL     1      19.232 -16.334  45.343  1.00  0.00    -0.337 N 
ATOM     11  H4  UNL     1      19.521 -17.114  45.933  1.00  0.00     0.163 HD
HETATM   12  C9  UNL     1      19.953 -16.430  44.189  1.00  0.00     0.480 C 
HETATM   13  N5  UNL     1      20.895 -15.391  43.934  1.00  0.00    -0.033 N 
ATOM     14  H51 UNL     1      21.434 -15.462  43.071  1.00  0.00     0.278 HD
ATOM     15  H52 UNL     1      21.529 -15.302  44.728  1.00  0.00     0.278 HD
ATOM     16  H53 UNL     1      20.424 -14.487  43.969  1.00  0.00     0.278 HD
HETATM   17  N6  UNL     1      20.708 -17.716  44.234  1.00  0.00    -0.033 N 
ATOM     18  H61 UNL     1      21.247 -17.787  43.371  1.00  0.00     0.278 HD
ATOM     19  H62 UNL     1      20.106 -18.523  44.394  1.00  0.00     0.278 HD
ATOM     20  H63 UNL     1      21.283 -17.809  45.070  1.00  0.00     0.278 HD
HETATM   21  C10 UNL     1      18.091 -16.298  47.311  1.00  0.00     0.082 A 
HETATM   22  C11 UNL     1      17.006 -16.067  48.119  1.00  0.00     0.135 A 
HETATM   23  C12 UNL     1      17.492 -16.939  49.066  1.00  0.00     0.252 A 
HETATM   24  O4  UNL     1      17.226 -17.421  50.183  1.00  0.00    -0.281 OA
HETATM   25  C13 UNL     1      18.588 -17.162  48.229  1.00  0.00     0.239 A 
HETATM   26  O5  UNL     1      19.636 -17.892  48.296  1.00  0.00    -0.283 OA
ENDROOT
BRANCH   1  27
HETATM   27  C6  UNL     1      14.963 -14.803  48.779  1.00  0.00     0.166 C 
BRANCH  27  28
HETATM   28  C5  UNL     1      15.181 -13.627  49.593  1.00  0.00     0.123 A 
HETATM   29  O2  UNL     1      15.958 -13.411  50.581  1.00  0.00    -0.305 OA
HETATM   30  C4  UNL     1      15.900 -12.187  51.040  1.00  0.00     0.122 A 
HETATM   31  C17 UNL     1      14.986 -11.516  50.292  1.00  0.00     0.128 A 
HETATM   32  C14 UNL     1      14.503 -12.422  49.350  1.00  0.00     0.106 A 
BRANCH  30  33
HETATM   33  C2  UNL     1      16.732 -11.692  52.172  1.00  0.00     0.102 C 
HETATM   34  C1  UNL     1      15.863 -10.730  53.014  1.00  0.00     0.053 C 
HETATM   35  C3  UNL     1      17.151 -12.772  53.132  1.00  0.00     0.053 C 
BRANCH  33  36
HETATM   36  O1  UNL     1      17.742 -10.916  51.676  1.00  0.00    -0.384 OA
ATOM     37  H1  UNL     1      17.628 -10.935  50.733  1.00  0.00     0.211 HD
ENDBRANCH  33  36
ENDBRANCH  30  33
BRANCH  31  38
HETATM   38  O6  UNL     1      14.565 -10.220  50.383  1.00  0.00    -0.356 OA
ATOM     39  H6  UNL     1      14.542  -9.540  49.719  1.00  0.00     0.218 HD
ENDBRANCH  31  38
BRANCH  32  40
HETATM   40  N7  UNL     1      13.437 -12.225  48.460  1.00  0.00    -0.323 N 
ATOM     41  H7  UNL     1      12.566 -11.913  48.888  1.00  0.00     0.169 HD
BRANCH  40  42
HETATM   42  C15 UNL     1      13.393 -12.393  47.080  1.00  0.00     0.193 A 
HETATM   43  N8  UNL     1      13.782 -11.530  46.216  1.00  0.00    -0.346 N 
HETATM   44  C16 UNL     1      13.624 -11.964  44.870  1.00  0.00     0.259 A 
ATOM     45  H8  UNL     1      14.168 -10.620  46.469  1.00  0.00     0.163 HD
HETATM   46  N9  UNL     1      13.137 -13.313  44.969  1.00  0.00    -0.119 NA
HETATM   47  N10 UNL     1      12.920 -13.525  46.323  1.00  0.00    -0.274 N 
ATOM     48  H10 UNL     1      12.490 -14.359  46.724  1.00  0.00     0.185 HD
ENDBRANCH  40  42
ENDBRANCH  32  40
ENDBRANCH  27  28
ENDBRANCH   1  27
TORSDOF 7
ENDMDL
