MODEL 1
REMARK VINA RESULT: -7.098872273      0.000      0.000
REMARK  14 active torsions:
REMARK  status: ('A' for Active; 'I' for Inactive)
REMARK    1  A    between atoms: C2_2  and  C3_3 
REMARK    2  A    between atoms: C2_2  and  N4_11 
REMARK    3  A    between atoms: C3_3  and  N2_7 
REMARK    4  A    between atoms: C5_14  and  N6_15 
REMARK    5  A    between atoms: N6_15  and  C6_17 
REMARK    6  A    between atoms: C8_19  and  N7_20 
REMARK    7  A    between atoms: C10_22  and  C11_23 
REMARK    8  A    between atoms: C11_23  and  O1_24 
REMARK    9  A    between atoms: C11_23  and  O2_26 
REMARK   10  A    between atoms: C12_33  and  O4_34 
REMARK   11  A    between atoms: C12_33  and  C13_36 
REMARK   12  A    between atoms: C13_36  and  O5_37 
REMARK   13  A    between atoms: C13_36  and  O6_39 
REMARK   14  A    between atoms: C15_42  and  O7_43 
ROOT
HETATM    1  N2  UNL     1      10.454 -15.951  41.821  1.00  0.00    -0.281 N 
ATOM      2  H2  UNL     1       9.900 -15.168  41.475  1.00  0.00     0.179 HD
HETATM    3  C4  UNL     1      10.865 -16.979  40.952  1.00  0.00     0.183 C 
HETATM    4  N3  UNL     1      11.197 -17.822  40.221  1.00  0.00    -0.172 NA
ENDROOT
BRANCH   1   5
HETATM    5  C3  UNL     1      10.829 -16.028  43.193  1.00  0.00     0.108 C 
HETATM    6  N1  UNL     1      11.601 -16.971  43.562  1.00  0.00    -0.387 N 
ATOM      7  H12 UNL     1      11.870 -17.027  44.545  1.00  0.00     0.157 HD
ATOM      8  H11 UNL     1      11.961 -17.670  42.912  1.00  0.00     0.157 HD
BRANCH   5   9
HETATM    9  C2  UNL     1      10.306 -15.012  44.139  1.00  0.00     0.174 C 
HETATM   10  C1  UNL     1       9.904 -15.718  45.430  1.00  0.00     0.043 C 
BRANCH   9  11
HETATM   11  N4  UNL     1      11.404 -14.095  44.439  1.00  0.00    -0.258 N 
HETATM   12  N5  UNL     1      12.197 -14.096  45.484  1.00  0.00    -0.281 N 
HETATM   13  C5  UNL     1      13.103 -13.073  45.403  1.00  0.00     0.120 A 
ATOM     14  H5  UNL     1      12.146 -14.766  46.251  1.00  0.00     0.189 HD
HETATM   15  C14 UNL     1      12.787 -12.453  44.213  1.00  0.00     0.106 A 
HETATM   16  C15 UNL     1      11.726 -13.088  43.607  1.00  0.00     0.161 A 
BRANCH  13  17
HETATM   17  N6  UNL     1      14.129 -12.769  46.333  1.00  0.00    -0.365 N 
ATOM     18  H6  UNL     1      15.099 -12.770  46.015  1.00  0.00     0.161 HD
BRANCH  17  19
HETATM   19  C6  UNL     1      13.852 -12.461  47.689  1.00  0.00     0.155 C 
HETATM   20  C7  UNL     1      15.092 -11.822  48.369  1.00  0.00     0.086 C 
HETATM   21  C8  UNL     1      14.628 -11.946  49.800  1.00  0.00     0.250 C 
HETATM   22  O3  UNL     1      14.182 -13.238  49.877  1.00  0.00    -0.322 OA
HETATM   23  C12 UNL     1      13.685 -13.625  48.624  1.00  0.00     0.235 C 
BRANCH  21  24
HETATM   24  N7  UNL     1      15.664 -11.641  50.750  1.00  0.00    -0.257 N 
HETATM   25  C9  UNL     1      15.704 -11.806  52.062  1.00  0.00     0.146 A 
HETATM   26  C10 UNL     1      16.917 -11.358  52.521  1.00  0.00     0.098 A 
HETATM   27  N8  UNL     1      17.592 -10.924  51.444  1.00  0.00    -0.284 N 
HETATM   28  N9  UNL     1      16.829 -11.101  50.403  1.00  0.00    -0.238 N 
ATOM     29  H8  UNL     1      18.532 -10.527  51.441  1.00  0.00     0.188 HD
ATOM     30  H9  UNL     1      17.092 -10.857  49.448  1.00  0.00     0.208 HD
BRANCH  26  31
HETATM   31  C11 UNL     1      17.467 -11.318  53.899  1.00  0.00     0.308 C 
BRANCH  31  32
HETATM   32  O1  UNL     1      18.595 -10.467  53.869  1.00  0.00    -0.366 OA
ATOM     33  H1  UNL     1      18.345  -9.660  54.303  1.00  0.00     0.213 HD
ENDBRANCH  31  32
BRANCH  31  34
HETATM   34  O2  UNL     1      16.536 -10.721  54.758  1.00  0.00    -0.366 OA
ATOM     35  H2  UNL     1      16.985 -10.369  55.519  1.00  0.00     0.213 HD
ENDBRANCH  31  34
ENDBRANCH  26  31
ENDBRANCH  21  24
BRANCH  23  36
HETATM   36  O4  UNL     1      12.330 -13.920  48.752  1.00  0.00    -0.360 OA
ATOM     37  H4  UNL     1      11.925 -13.287  49.334  1.00  0.00     0.213 HD
ENDBRANCH  23  36
BRANCH  23  38
HETATM   38  C13 UNL     1      14.393 -14.878  48.248  1.00  0.00     0.319 C 
BRANCH  38  39
HETATM   39  O5  UNL     1      13.689 -15.728  47.423  1.00  0.00    -0.366 OA
ATOM     40  H5  UNL     1      14.111 -16.559  47.240  1.00  0.00     0.212 HD
ENDBRANCH  38  39
BRANCH  38  41
HETATM   41  O6  UNL     1      15.697 -14.669  47.799  1.00  0.00    -0.366 OA
ATOM     42  H6  UNL     1      16.251 -14.230  48.433  1.00  0.00     0.212 HD
ENDBRANCH  38  41
ENDBRANCH  23  38
ENDBRANCH  17  19
ENDBRANCH  13  17
BRANCH  16  43
HETATM   43  O7  UNL     1      11.139 -12.740  42.404  1.00  0.00    -0.345 OA
ATOM     44  H7  UNL     1      11.519 -12.749  41.534  1.00  0.00     0.219 HD
ENDBRANCH  16  43
ENDBRANCH   9  11
ENDBRANCH   5   9
ENDBRANCH   1   5
TORSDOF 14
ENDMDL
MODEL 2
REMARK VINA RESULT: -6.942755172      2.434      9.711
REMARK  14 active torsions:
REMARK  status: ('A' for Active; 'I' for Inactive)
REMARK    1  A    between atoms: C2_2  and  C3_3 
REMARK    2  A    between atoms: C2_2  and  N4_11 
REMARK    3  A    between atoms: C3_3  and  N2_7 
REMARK    4  A    between atoms: C5_14  and  N6_15 
REMARK    5  A    between atoms: N6_15  and  C6_17 
REMARK    6  A    between atoms: C8_19  and  N7_20 
REMARK    7  A    between atoms: C10_22  and  C11_23 
REMARK    8  A    between atoms: C11_23  and  O1_24 
REMARK    9  A    between atoms: C11_23  and  O2_26 
REMARK   10  A    between atoms: C12_33  and  O4_34 
REMARK   11  A    between atoms: C12_33  and  C13_36 
REMARK   12  A    between atoms: C13_36  and  O5_37 
REMARK   13  A    between atoms: C13_36  and  O6_39 
REMARK   14  A    between atoms: C15_42  and  O7_43 
ROOT
HETATM    1  N2  UNL     1      15.725 -13.622  55.113  1.00  0.00    -0.281 N 
ATOM      2  H2  UNL     1      15.036 -13.019  54.664  1.00  0.00     0.179 HD
HETATM    3  C4  UNL     1      15.324 -14.621  56.019  1.00  0.00     0.183 C 
HETATM    4  N3  UNL     1      14.977 -15.441  56.768  1.00  0.00    -0.172 NA
ENDROOT
BRANCH   1   5
HETATM    5  C3  UNL     1      17.115 -13.470  54.836  1.00  0.00     0.108 C 
HETATM    6  N1  UNL     1      17.884 -13.078  55.772  1.00  0.00    -0.387 N 
ATOM      7  H12 UNL     1      18.879 -12.970  55.574  1.00  0.00     0.157 HD
ATOM      8  H11 UNL     1      17.542 -12.871  56.710  1.00  0.00     0.157 HD
BRANCH   5   9
HETATM    9  C2  UNL     1      17.613 -13.773  53.471  1.00  0.00     0.174 C 
HETATM   10  C1  UNL     1      17.248 -15.215  53.135  1.00  0.00     0.043 C 
BRANCH   9  11
HETATM   11  N4  UNL     1      16.904 -12.891  52.546  1.00  0.00    -0.258 N 
HETATM   12  N5  UNL     1      16.042 -13.221  51.613  1.00  0.00    -0.281 N 
HETATM   13  C5  UNL     1      15.597 -12.107  50.954  1.00  0.00     0.120 A 
ATOM     14  H5  UNL     1      15.745 -14.174  51.408  1.00  0.00     0.189 HD
HETATM   15  C14 UNL     1      16.266 -11.073  51.573  1.00  0.00     0.106 A 
HETATM   16  C15 UNL     1      17.084 -11.558  52.569  1.00  0.00     0.161 A 
BRANCH  13  17
HETATM   17  N6  UNL     1      14.648 -12.064  49.901  1.00  0.00    -0.365 N 
ATOM     18  H6  UNL     1      13.736 -11.640  50.076  1.00  0.00     0.161 HD
BRANCH  17  19
HETATM   19  C6  UNL     1      14.924 -12.590  48.614  1.00  0.00     0.155 C 
HETATM   20  C7  UNL     1      13.878 -12.089  47.582  1.00  0.00     0.086 C 
HETATM   21  C8  UNL     1      14.208 -13.054  46.469  1.00  0.00     0.250 C 
HETATM   22  O3  UNL     1      14.269 -14.264  47.108  1.00  0.00    -0.322 OA
HETATM   23  C12 UNL     1      14.706 -14.063  48.425  1.00  0.00     0.235 C 
BRANCH  21  24
HETATM   24  N7  UNL     1      13.249 -13.019  45.399  1.00  0.00    -0.257 N 
HETATM   25  C9  UNL     1      12.922 -12.043  44.568  1.00  0.00     0.146 A 
HETATM   26  C10 UNL     1      11.946 -12.502  43.719  1.00  0.00     0.098 A 
HETATM   27  N8  UNL     1      11.707 -13.775  44.072  1.00  0.00    -0.284 N 
HETATM   28  N9  UNL     1      12.490 -14.062  45.071  1.00  0.00    -0.238 N 
ATOM     29  H8  UNL     1      11.033 -14.404  43.635  1.00  0.00     0.188 HD
ATOM     30  H9  UNL     1      12.519 -14.967  45.541  1.00  0.00     0.208 HD
BRANCH  26  31
HETATM   31  C11 UNL     1      11.239 -11.815  42.609  1.00  0.00     0.308 C 
BRANCH  31  32
HETATM   32  O1  UNL     1      11.968 -10.640  42.319  1.00  0.00    -0.366 OA
ATOM     33  H1  UNL     1      12.824 -10.739  42.718  1.00  0.00     0.213 HD
ENDBRANCH  31  32
BRANCH  31  34
HETATM   34  O2  UNL     1      11.286 -12.611  41.459  1.00  0.00    -0.366 OA
ATOM     35  H2  UNL     1      12.034 -13.196  41.507  1.00  0.00     0.213 HD
ENDBRANCH  31  34
ENDBRANCH  26  31
ENDBRANCH  21  24
BRANCH  23  36
HETATM   36  O4  UNL     1      15.915 -14.733  48.602  1.00  0.00    -0.360 OA
ATOM     37  H4  UNL     1      15.947 -15.096  49.479  1.00  0.00     0.213 HD
ENDBRANCH  23  36
BRANCH  23  38
HETATM   38  C13 UNL     1      13.697 -14.699  49.315  1.00  0.00     0.319 C 
BRANCH  38  39
HETATM   39  O5  UNL     1      14.170 -15.113  50.541  1.00  0.00    -0.366 OA
ATOM     40  H5  UNL     1      15.051 -14.828  50.754  1.00  0.00     0.212 HD
ENDBRANCH  38  39
BRANCH  38  41
HETATM   41  O6  UNL     1      12.514 -13.969  49.427  1.00  0.00    -0.366 OA
ATOM     42  H6  UNL     1      12.652 -13.033  49.519  1.00  0.00     0.212 HD
ENDBRANCH  38  41
ENDBRANCH  23  38
ENDBRANCH  17  19
ENDBRANCH  13  17
BRANCH  16  43
HETATM   43  O7  UNL     1      17.904 -10.811  53.395  1.00  0.00    -0.345 OA
ATOM     44  H7  UNL     1      18.570 -10.178  53.155  1.00  0.00     0.219 HD
ENDBRANCH  16  43
ENDBRANCH   9  11
ENDBRANCH   5   9
ENDBRANCH   1   5
TORSDOF 14
ENDMDL
MODEL 3
REMARK VINA RESULT: -6.839427549      2.444     10.009
REMARK  14 active torsions:
REMARK  status: ('A' for Active; 'I' for Inactive)
REMARK    1  A    between atoms: C2_2  and  C3_3 
REMARK    2  A    between atoms: C2_2  and  N4_11 
REMARK    3  A    between atoms: C3_3  and  N2_7 
REMARK    4  A    between atoms: C5_14  and  N6_15 
REMARK    5  A    between atoms: N6_15  and  C6_17 
REMARK    6  A    between atoms: C8_19  and  N7_20 
REMARK    7  A    between atoms: C10_22  and  C11_23 
REMARK    8  A    between atoms: C11_23  and  O1_24 
REMARK    9  A    between atoms: C11_23  and  O2_26 
REMARK   10  A    between atoms: C12_33  and  O4_34 
REMARK   11  A    between atoms: C12_33  and  C13_36 
REMARK   12  A    between atoms: C13_36  and  O5_37 
REMARK   13  A    between atoms: C13_36  and  O6_39 
REMARK   14  A    between atoms: C15_42  and  O7_43 
ROOT
HETATM    1  N2  UNL     1      17.696 -12.830  55.964  1.00  0.00    -0.281 N 
ATOM      2  H2  UNL     1      18.696 -12.667  55.852  1.00  0.00     0.179 HD
HETATM    3  C4  UNL     1      17.014 -12.358  57.101  1.00  0.00     0.183 C 
HETATM    4  N3  UNL     1      16.465 -11.963  58.048  1.00  0.00    -0.172 NA
ENDROOT
BRANCH   1   5
HETATM    5  C3  UNL     1      16.959 -13.539  54.973  1.00  0.00     0.108 C 
HETATM    6  N1  UNL     1      15.788 -13.950  55.261  1.00  0.00    -0.387 N 
ATOM      7  H12 UNL     1      15.260 -14.458  54.552  1.00  0.00     0.157 HD
ATOM      8  H11 UNL     1      15.361 -13.788  56.173  1.00  0.00     0.157 HD
BRANCH   5   9
HETATM    9  C2  UNL     1      17.580 -13.775  53.646  1.00  0.00     0.174 C 
HETATM   10  C1  UNL     1      17.305 -15.217  53.235  1.00  0.00     0.043 C 
BRANCH   9  11
HETATM   11  N4  UNL     1      16.914 -12.890  52.693  1.00  0.00    -0.258 N 
HETATM   12  N5  UNL     1      16.040 -13.207  51.767  1.00  0.00    -0.281 N 
HETATM   13  C5  UNL     1      15.647 -12.095  51.074  1.00  0.00     0.120 A 
ATOM     14  H5  UNL     1      15.701 -14.152  51.588  1.00  0.00     0.189 HD
HETATM   15  C14 UNL     1      16.360 -11.074  51.664  1.00  0.00     0.106 A 
HETATM   16  C15 UNL     1      17.154 -11.566  52.677  1.00  0.00     0.161 A 
BRANCH  13  17
HETATM   17  N6  UNL     1      14.703 -12.040  50.016  1.00  0.00    -0.365 N 
ATOM     18  H6  UNL     1      13.796 -11.606  50.187  1.00  0.00     0.161 HD
BRANCH  17  19
HETATM   19  C6  UNL     1      14.979 -12.568  48.730  1.00  0.00     0.155 C 
HETATM   20  C7  UNL     1      13.949 -12.048  47.692  1.00  0.00     0.086 C 
HETATM   21  C8  UNL     1      14.270 -13.017  46.580  1.00  0.00     0.250 C 
HETATM   22  O3  UNL     1      14.305 -14.229  47.216  1.00  0.00    -0.322 OA
HETATM   23  C12 UNL     1      14.737 -14.038  48.537  1.00  0.00     0.235 C 
BRANCH  21  24
HETATM   24  N7  UNL     1      13.319 -12.964  45.503  1.00  0.00    -0.257 N 
HETATM   25  C9  UNL     1      12.508 -13.894  45.025  1.00  0.00     0.146 A 
HETATM   26  C10 UNL     1      11.790 -13.355  43.987  1.00  0.00     0.098 A 
HETATM   27  N8  UNL     1      12.200 -12.082  43.866  1.00  0.00    -0.284 N 
HETATM   28  N9  UNL     1      13.108 -11.871  44.775  1.00  0.00    -0.238 N 
ATOM     29  H8  UNL     1      11.861 -11.402  43.184  1.00  0.00     0.188 HD
ATOM     30  H9  UNL     1      13.593 -10.984  44.910  1.00  0.00     0.208 HD
BRANCH  26  31
HETATM   31  C11 UNL     1      10.754 -13.966  43.117  1.00  0.00     0.308 C 
BRANCH  31  32
HETATM   32  O1  UNL     1      11.067 -13.605  41.787  1.00  0.00    -0.366 OA
ATOM     33  H1  UNL     1      10.249 -13.375  41.362  1.00  0.00     0.213 HD
ENDBRANCH  31  32
BRANCH  31  34
HETATM   34  O2  UNL     1      10.846 -15.361  43.187  1.00  0.00    -0.366 OA
ATOM     35  H2  UNL     1      11.717 -15.608  43.476  1.00  0.00     0.213 HD
ENDBRANCH  31  34
ENDBRANCH  26  31
ENDBRANCH  21  24
BRANCH  23  36
HETATM   36  O4  UNL     1      15.933 -14.728  48.721  1.00  0.00    -0.360 OA
ATOM     37  H4  UNL     1      15.790 -15.653  48.555  1.00  0.00     0.213 HD
ENDBRANCH  23  36
BRANCH  23  38
HETATM   38  C13 UNL     1      13.711 -14.657  49.419  1.00  0.00     0.319 C 
BRANCH  38  39
HETATM   39  O5  UNL     1      14.160 -15.046  50.662  1.00  0.00    -0.366 OA
ATOM     40  H5  UNL     1      13.582 -15.631  51.138  1.00  0.00     0.212 HD
ENDBRANCH  38  39
BRANCH  38  41
HETATM   41  O6  UNL     1      12.525 -13.926  49.493  1.00  0.00    -0.366 OA
ATOM     42  H6  UNL     1      12.114 -13.956  50.349  1.00  0.00     0.212 HD
ENDBRANCH  38  41
ENDBRANCH  23  38
ENDBRANCH  17  19
ENDBRANCH  13  17
BRANCH  16  43
HETATM   43  O7  UNL     1      18.004 -10.832  53.484  1.00  0.00    -0.345 OA
ATOM     44  H7  UNL     1      17.785 -10.244  54.196  1.00  0.00     0.219 HD
ENDBRANCH  16  43
ENDBRANCH   9  11
ENDBRANCH   5   9
ENDBRANCH   1   5
TORSDOF 14
ENDMDL
MODEL 4
REMARK VINA RESULT: -6.832086098      2.286      2.800
REMARK  14 active torsions:
REMARK  status: ('A' for Active; 'I' for Inactive)
REMARK    1  A    between atoms: C2_2  and  C3_3 
REMARK    2  A    between atoms: C2_2  and  N4_11 
REMARK    3  A    between atoms: C3_3  and  N2_7 
REMARK    4  A    between atoms: C5_14  and  N6_15 
REMARK    5  A    between atoms: N6_15  and  C6_17 
REMARK    6  A    between atoms: C8_19  and  N7_20 
REMARK    7  A    between atoms: C10_22  and  C11_23 
REMARK    8  A    between atoms: C11_23  and  O1_24 
REMARK    9  A    between atoms: C11_23  and  O2_26 
REMARK   10  A    between atoms: C12_33  and  O4_34 
REMARK   11  A    between atoms: C12_33  and  C13_36 
REMARK   12  A    between atoms: C13_36  and  O5_37 
REMARK   13  A    between atoms: C13_36  and  O6_39 
REMARK   14  A    between atoms: C15_42  and  O7_43 
ROOT
HETATM    1  N2  UNL     1       9.235 -17.774  42.612  1.00  0.00    -0.281 N 
ATOM      2  H2  UNL     1      10.145 -18.140  42.333  1.00  0.00     0.179 HD
HETATM    3  C4  UNL     1       8.246 -17.497  41.651  1.00  0.00     0.183 C 
HETATM    4  N3  UNL     1       7.439 -17.272  40.843  1.00  0.00    -0.172 NA
ENDROOT
BRANCH   1   5
HETATM    5  C3  UNL     1       8.938 -17.532  43.985  1.00  0.00     0.108 C 
HETATM    6  N1  UNL     1       8.934 -18.518  44.791  1.00  0.00    -0.387 N 
ATOM      7  H12 UNL     1       8.722 -18.346  45.773  1.00  0.00     0.157 HD
ATOM      8  H11 UNL     1       9.136 -19.472  44.489  1.00  0.00     0.157 HD
BRANCH   5   9
HETATM    9  C2  UNL     1       8.645 -16.145  44.423  1.00  0.00     0.174 C 
HETATM   10  C1  UNL     1       8.270 -16.177  45.902  1.00  0.00     0.043 C 
BRANCH   9  11
HETATM   11  N4  UNL     1       9.878 -15.375  44.278  1.00  0.00    -0.258 N 
HETATM   12  N5  UNL     1      11.004 -15.516  44.937  1.00  0.00    -0.281 N 
HETATM   13  C5  UNL     1      11.928 -14.601  44.512  1.00  0.00     0.120 A 
ATOM     14  H5  UNL     1      11.167 -16.211  45.665  1.00  0.00     0.189 HD
HETATM   15  C14 UNL     1      11.262 -13.893  43.536  1.00  0.00     0.106 A 
HETATM   16  C15 UNL     1       9.979 -14.374  43.385  1.00  0.00     0.161 A 
BRANCH  13  17
HETATM   17  N6  UNL     1      13.261 -14.459  44.975  1.00  0.00    -0.365 N 
ATOM     18  H6  UNL     1      14.012 -14.348  44.293  1.00  0.00     0.161 HD
BRANCH  17  19
HETATM   19  C6  UNL     1      13.586 -14.468  46.356  1.00  0.00     0.155 C 
HETATM   20  C7  UNL     1      13.710 -13.019  46.898  1.00  0.00     0.086 C 
HETATM   21  C8  UNL     1      14.381 -13.347  48.210  1.00  0.00     0.250 C 
HETATM   22  O3  UNL     1      15.378 -14.213  47.847  1.00  0.00    -0.322 OA
HETATM   23  C12 UNL     1      14.963 -14.941  46.722  1.00  0.00     0.235 C 
BRANCH  21  24
HETATM   24  N7  UNL     1      14.860 -12.179  48.898  1.00  0.00    -0.257 N 
HETATM   25  C9  UNL     1      14.499 -11.655  50.058  1.00  0.00     0.146 A 
HETATM   26  C10 UNL     1      15.254 -10.532  50.283  1.00  0.00     0.098 A 
HETATM   27  N8  UNL     1      16.071 -10.408  49.224  1.00  0.00    -0.284 N 
HETATM   28  N9  UNL     1      15.820 -11.395  48.414  1.00  0.00    -0.238 N 
ATOM     29  H8  UNL     1      16.763  -9.672  49.081  1.00  0.00     0.188 HD
ATOM     30  H9  UNL     1      16.297 -11.548  47.525  1.00  0.00     0.208 HD
BRANCH  26  31
HETATM   31  C11 UNL     1      15.248  -9.584  51.426  1.00  0.00     0.308 C 
BRANCH  31  32
HETATM   32  O1  UNL     1      16.247  -8.619  51.166  1.00  0.00    -0.366 OA
ATOM     33  H1  UNL     1      17.086  -9.059  51.247  1.00  0.00     0.213 HD
ENDBRANCH  31  32
BRANCH  31  34
HETATM   34  O2  UNL     1      14.028  -8.900  51.461  1.00  0.00    -0.366 OA
ATOM     35  H2  UNL     1      14.188  -7.964  51.477  1.00  0.00     0.213 HD
ENDBRANCH  31  34
ENDBRANCH  26  31
ENDBRANCH  21  24
BRANCH  23  36
HETATM   36  O4  UNL     1      14.911 -16.292  47.058  1.00  0.00    -0.360 OA
ATOM     37  H4  UNL     1      15.787 -16.659  47.019  1.00  0.00     0.213 HD
ENDBRANCH  23  36
BRANCH  23  38
HETATM   38  C13 UNL     1      16.016 -14.768  45.685  1.00  0.00     0.319 C 
BRANCH  38  39
HETATM   39  O5  UNL     1      16.120 -15.795  44.773  1.00  0.00    -0.366 OA
ATOM     40  H5  UNL     1      15.310 -16.254  44.584  1.00  0.00     0.212 HD
ENDBRANCH  38  39
BRANCH  38  41
HETATM   41  O6  UNL     1      15.991 -13.517  45.069  1.00  0.00    -0.366 OA
ATOM     42  H6  UNL     1      15.991 -12.792  45.682  1.00  0.00     0.212 HD
ENDBRANCH  38  41
ENDBRANCH  23  38
ENDBRANCH  17  19
ENDBRANCH  13  17
BRANCH  16  43
HETATM   43  O7  UNL     1       9.026 -13.905  42.500  1.00  0.00    -0.345 OA
ATOM     44  H7  UNL     1       9.153 -13.464  41.669  1.00  0.00     0.219 HD
ENDBRANCH  16  43
ENDBRANCH   9  11
ENDBRANCH   5   9
ENDBRANCH   1   5
TORSDOF 14
ENDMDL
MODEL 5
REMARK VINA RESULT: -6.799304952      1.505      2.149
REMARK  14 active torsions:
REMARK  status: ('A' for Active; 'I' for Inactive)
REMARK    1  A    between atoms: C2_2  and  C3_3 
REMARK    2  A    between atoms: C2_2  and  N4_11 
REMARK    3  A    between atoms: C3_3  and  N2_7 
REMARK    4  A    between atoms: C5_14  and  N6_15 
REMARK    5  A    between atoms: N6_15  and  C6_17 
REMARK    6  A    between atoms: C8_19  and  N7_20 
REMARK    7  A    between atoms: C10_22  and  C11_23 
REMARK    8  A    between atoms: C11_23  and  O1_24 
REMARK    9  A    between atoms: C11_23  and  O2_26 
REMARK   10  A    between atoms: C12_33  and  O4_34 
REMARK   11  A    between atoms: C12_33  and  C13_36 
REMARK   12  A    between atoms: C13_36  and  O5_37 
REMARK   13  A    between atoms: C13_36  and  O6_39 
REMARK   14  A    between atoms: C15_42  and  O7_43 
ROOT
HETATM    1  N2  UNL     1       9.920 -16.364  44.602  1.00  0.00    -0.281 N 
ATOM      2  H2  UNL     1       9.132 -16.825  44.148  1.00  0.00     0.179 HD
HETATM    3  C4  UNL     1       9.955 -16.211  46.000  1.00  0.00     0.183 C 
HETATM    4  N3  UNL     1       9.969 -16.091  47.158  1.00  0.00    -0.172 NA
ENDROOT
BRANCH   1   5
HETATM    5  C3  UNL     1      11.010 -15.861  43.833  1.00  0.00     0.108 C 
HETATM    6  N1  UNL     1      12.120 -16.484  43.871  1.00  0.00    -0.387 N 
ATOM      7  H12 UNL     1      12.901 -16.124  43.321  1.00  0.00     0.157 HD
ATOM      8  H11 UNL     1      12.257 -17.327  44.428  1.00  0.00     0.157 HD
BRANCH   5   9
HETATM    9  C2  UNL     1      10.812 -14.635  43.022  1.00  0.00     0.174 C 
HETATM   10  C1  UNL     1       9.349 -14.219  43.128  1.00  0.00     0.043 C 
BRANCH   9  11
HETATM   11  N4  UNL     1      11.634 -13.584  43.618  1.00  0.00    -0.258 N 
HETATM   12  N5  UNL     1      12.332 -13.633  44.727  1.00  0.00    -0.281 N 
HETATM   13  C5  UNL     1      12.969 -12.442  44.949  1.00  0.00     0.120 A 
ATOM     14  H5  UNL     1      12.392 -14.446  45.339  1.00  0.00     0.189 HD
HETATM   15  C14 UNL     1      12.594 -11.667  43.872  1.00  0.00     0.106 A 
HETATM   16  C15 UNL     1      11.759 -12.377  43.037  1.00  0.00     0.161 A 
BRANCH  13  17
HETATM   17  N6  UNL     1      13.827 -12.124  46.032  1.00  0.00    -0.365 N 
ATOM     18  H6  UNL     1      14.680 -11.596  45.847  1.00  0.00     0.161 HD
BRANCH  17  19
HETATM   19  C6  UNL     1      13.539 -12.516  47.364  1.00  0.00     0.155 C 
HETATM   20  C7  UNL     1      14.544 -11.869  48.354  1.00  0.00     0.086 C 
HETATM   21  C8  UNL     1      14.220 -12.718  49.559  1.00  0.00     0.250 C 
HETATM   22  O3  UNL     1      14.215 -13.992  49.057  1.00  0.00    -0.322 OA
HETATM   23  C12 UNL     1      13.801 -13.952  47.717  1.00  0.00     0.235 C 
BRANCH  21  24
HETATM   24  N7  UNL     1      15.153 -12.533  50.638  1.00  0.00    -0.257 N 
HETATM   25  C9  UNL     1      15.620 -11.426  51.191  1.00  0.00     0.146 A 
HETATM   26  C10 UNL     1      16.492 -11.772  52.192  1.00  0.00     0.098 A 
HETATM   27  N8  UNL     1      16.528 -13.115  52.214  1.00  0.00    -0.284 N 
HETATM   28  N9  UNL     1      15.726 -13.546  51.283  1.00  0.00    -0.238 N 
ATOM     29  H8  UNL     1      17.082 -13.693  52.845  1.00  0.00     0.188 HD
ATOM     30  H9  UNL     1      15.559 -14.531  51.076  1.00  0.00     0.208 HD
BRANCH  26  31
HETATM   31  C11 UNL     1      17.283 -10.920  53.115  1.00  0.00     0.308 C 
BRANCH  31  32
HETATM   32  O1  UNL     1      16.360 -10.139  53.847  1.00  0.00    -0.366 OA
ATOM     33  H1  UNL     1      16.488 -10.348  54.766  1.00  0.00     0.213 HD
ENDBRANCH  31  32
BRANCH  31  34
HETATM   34  O2  UNL     1      17.951 -11.728  54.043  1.00  0.00    -0.366 OA
ATOM     35  H2  UNL     1      17.609 -12.613  53.998  1.00  0.00     0.213 HD
ENDBRANCH  31  34
ENDBRANCH  26  31
ENDBRANCH  21  24
BRANCH  23  36
HETATM   36  O4  UNL     1      12.619 -14.679  47.592  1.00  0.00    -0.360 OA
ATOM     37  H4  UNL     1      12.284 -14.884  48.457  1.00  0.00     0.213 HD
ENDBRANCH  23  36
BRANCH  23  38
HETATM   38  C13 UNL     1      14.851 -14.644  46.921  1.00  0.00     0.319 C 
BRANCH  38  39
HETATM   39  O5  UNL     1      14.399 -15.314  45.806  1.00  0.00    -0.366 OA
ATOM     40  H5  UNL     1      14.488 -14.844  44.985  1.00  0.00     0.212 HD
ENDBRANCH  38  39
BRANCH  38  41
HETATM   41  O6  UNL     1      15.957 -13.842  46.641  1.00  0.00    -0.366 OA
ATOM     42  H6  UNL     1      16.542 -13.731  47.382  1.00  0.00     0.212 HD
ENDBRANCH  38  41
ENDBRANCH  23  38
ENDBRANCH  17  19
ENDBRANCH  13  17
BRANCH  16  43
HETATM   43  O7  UNL     1      11.188 -11.918  41.864  1.00  0.00    -0.345 OA
ATOM     44  H7  UNL     1      10.628 -11.163  41.732  1.00  0.00     0.219 HD
ENDBRANCH  16  43
ENDBRANCH   9  11
ENDBRANCH   5   9
ENDBRANCH   1   5
TORSDOF 14
ENDMDL
