MODEL 1
REMARK VINA RESULT: -7.796221142      0.000      0.000
REMARK  12 active torsions:
REMARK  status: ('A' for Active; 'I' for Inactive)
REMARK    1  A    between atoms: C2_2  and  O1_5 
REMARK    2  A    between atoms: O1_5  and  N1_6 
REMARK    3  A    between atoms: C5_8  and  C6_9 
REMARK    4  A    between atoms: C8_15  and  C9_16 
REMARK    5  A    between atoms: C9_16  and  O2_17 
REMARK    6  A    between atoms: C9_16  and  C10_19 
REMARK    7  A    between atoms: C10_19  and  O3_20 
REMARK    8  A    between atoms: C10_19  and  C11_22 
REMARK    9  A    between atoms: C11_22  and  O4_23 
REMARK   10  A    between atoms: C13_32  and  N8_33 
REMARK   11  A    between atoms: N11_40  and  O5_42 
REMARK   12  A    between atoms: C15_44  and  O6_45 
ROOT
HETATM    1  C6  UNL     1      14.873 -15.403  48.817  1.00  0.00     0.206 C 
HETATM    2  N2  UNL     1      15.519 -14.649  49.869  1.00  0.00    -0.208 N 
ATOM      3  H2  UNL     1      16.156 -15.156  50.484  1.00  0.00     0.178 HD
HETATM    4  C7  UNL     1      15.342 -13.273  50.115  1.00  0.00     0.717 A 
HETATM    5  N3  UNL     1      15.717 -12.423  51.112  1.00  0.00    -0.173 N 
ATOM      6  H3  UNL     1      16.251 -12.685  51.940  1.00  0.00     0.185 HD
HETATM    7  C8  UNL     1      15.271 -11.185  50.835  1.00  0.00     0.145 A 
HETATM    8  N4  UNL     1      14.625 -11.298  49.660  1.00  0.00    -0.249 N 
ATOM      9  H4  UNL     1      14.169 -10.526  49.176  1.00  0.00     0.191 HD
HETATM   10  N5  UNL     1      14.660 -12.545  49.216  1.00  0.00     0.001 N 
HETATM   11  N6  UNL     1      14.165 -13.206  48.087  1.00  0.00    -0.039 N 
HETATM   12  C12 UNL     1      13.863 -12.682  46.805  1.00  0.00     0.742 A 
HETATM   13  N7  UNL     1      13.683 -11.527  46.119  1.00  0.00    -0.018 N 
ATOM     14  H7  UNL     1      13.756 -10.589  46.513  1.00  0.00     0.203 HD
HETATM   15  C13 UNL     1      13.395 -11.812  44.838  1.00  0.00     0.706 A 
HETATM   16  N9  UNL     1      13.391 -13.152  44.722  1.00  0.00    -0.109 N 
ATOM     17  H9  UNL     1      13.204 -13.678  43.867  1.00  0.00     0.207 HD
HETATM   18  N10 UNL     1      13.677 -13.681  45.924  1.00  0.00    -0.050 N 
HETATM   19  C14 UNL     1      13.856 -14.915  46.606  1.00  0.00     0.203 C 
HETATM   20  N11 UNL     1      13.983 -16.043  46.001  1.00  0.00    -0.250 N 
ATOM     21  H11 UNL     1      14.109 -16.884  46.564  1.00  0.00     0.195 HD
HETATM   22  C15 UNL     1      13.860 -14.617  48.040  1.00  0.00     0.262 C 
ENDROOT
BRANCH   7  23
HETATM   23  C9  UNL     1      15.443  -9.938  51.638  1.00  0.00     0.218 C 
BRANCH  23  24
HETATM   24  O2  UNL     1      14.333  -9.115  51.581  1.00  0.00    -0.385 OA
ATOM     25  H2  UNL     1      14.536  -8.215  51.808  1.00  0.00     0.210 HD
ENDBRANCH  23  24
BRANCH  23  26
HETATM   26  C10 UNL     1      15.759 -10.272  53.072  1.00  0.00     0.177 C 
BRANCH  26  27
HETATM   27  O3  UNL     1      17.052 -10.714  53.238  1.00  0.00    -0.390 OA
ATOM     28  H3  UNL     1      17.502 -10.268  53.947  1.00  0.00     0.210 HD
ENDBRANCH  26  27
BRANCH  26  29
HETATM   29  C11 UNL     1      15.391  -9.151  54.003  1.00  0.00     0.198 C 
BRANCH  29  30
HETATM   30  O4  UNL     1      16.461  -8.237  53.984  1.00  0.00    -0.398 OA
ATOM     31  H4  UNL     1      16.291  -7.600  54.668  1.00  0.00     0.209 HD
ENDBRANCH  29  30
ENDBRANCH  26  29
ENDBRANCH  23  26
ENDBRANCH   7  23
BRANCH   1  32
HETATM   32  C5  UNL     1      15.869 -16.080  47.942  1.00  0.00     0.118 C 
HETATM   33  N1  UNL     1      17.025 -15.592  47.693  1.00  0.00    -0.279 N 
ATOM     34  H1  UNL     1      17.300 -14.699  48.102  1.00  0.00     0.193 HD
BRANCH  33  35
HETATM   35  O1  UNL     1      17.883 -16.264  46.886  1.00  0.00    -0.271 OA
BRANCH  35  36
HETATM   36  C2  UNL     1      18.314 -15.863  45.620  1.00  0.00     0.078 C 
HETATM   37  C1  UNL     1      17.455 -16.546  44.562  1.00  0.00     0.048 C 
HETATM   38  C3  UNL     1      18.062 -14.377  45.481  1.00  0.00     0.048 C 
HETATM   39  C4  UNL     1      19.748 -16.237  45.407  1.00  0.00     0.048 C 
ENDBRANCH  35  36
ENDBRANCH  33  35
ENDBRANCH   1  32
BRANCH  22  40
HETATM   40  O6  UNL     1      12.570 -14.740  48.598  1.00  0.00    -0.361 OA
ATOM     41  H6  UNL     1      11.895 -14.696  47.930  1.00  0.00     0.213 HD
ENDBRANCH  22  40
BRANCH  15  42
HETATM   42  N8  UNL     1      13.152 -11.020  43.847  1.00  0.00    -0.233 N 
ATOM     43  H82 UNL     1      13.680 -10.163  43.680  1.00  0.00     0.174 HD
ATOM     44  H81 UNL     1      12.454 -11.092  43.107  1.00  0.00     0.174 HD
ENDBRANCH  15  42
BRANCH  20  45
HETATM   45  O5  UNL     1      13.959 -16.167  44.655  1.00  0.00    -0.288 OA
ATOM     46  H5  UNL     1      14.189 -16.971  44.203  1.00  0.00     0.244 HD
ENDBRANCH  20  45
TORSDOF 12
ENDMDL
MODEL 2
REMARK VINA RESULT: -7.436739298      1.842      2.514
REMARK  12 active torsions:
REMARK  status: ('A' for Active; 'I' for Inactive)
REMARK    1  A    between atoms: C2_2  and  O1_5 
REMARK    2  A    between atoms: O1_5  and  N1_6 
REMARK    3  A    between atoms: C5_8  and  C6_9 
REMARK    4  A    between atoms: C8_15  and  C9_16 
REMARK    5  A    between atoms: C9_16  and  O2_17 
REMARK    6  A    between atoms: C9_16  and  C10_19 
REMARK    7  A    between atoms: C10_19  and  O3_20 
REMARK    8  A    between atoms: C10_19  and  C11_22 
REMARK    9  A    between atoms: C11_22  and  O4_23 
REMARK   10  A    between atoms: C13_32  and  N8_33 
REMARK   11  A    between atoms: N11_40  and  O5_42 
REMARK   12  A    between atoms: C15_44  and  O6_45 
ROOT
HETATM    1  C6  UNL     1      13.744 -16.126  46.965  1.00  0.00     0.206 C 
HETATM    2  N2  UNL     1      14.769 -15.567  47.819  1.00  0.00    -0.208 N 
ATOM      3  H2  UNL     1      15.436 -16.217  48.235  1.00  0.00     0.178 HD
HETATM    4  C7  UNL     1      14.924 -14.200  48.122  1.00  0.00     0.717 A 
HETATM    5  N3  UNL     1      15.696 -13.495  48.997  1.00  0.00    -0.173 N 
ATOM      6  H3  UNL     1      16.366 -13.900  49.649  1.00  0.00     0.185 HD
HETATM    7  C8  UNL     1      15.436 -12.182  48.865  1.00  0.00     0.145 A 
HETATM    8  N4  UNL     1      14.500 -12.104  47.902  1.00  0.00    -0.249 N 
ATOM      9  H4  UNL     1      14.087 -11.234  47.567  1.00  0.00     0.191 HD
HETATM   10  N5  UNL     1      14.183 -13.306  47.447  1.00  0.00     0.001 N 
HETATM   11  N6  UNL     1      13.299 -13.796  46.480  1.00  0.00    -0.039 N 
HETATM   12  C12 UNL     1      12.780 -13.146  45.332  1.00  0.00     0.742 A 
HETATM   13  N7  UNL     1      12.651 -11.937  44.734  1.00  0.00    -0.018 N 
ATOM     14  H7  UNL     1      12.998 -11.054  45.108  1.00  0.00     0.203 HD
HETATM   15  C13 UNL     1      11.994 -12.084  43.571  1.00  0.00     0.706 A 
HETATM   16  N9  UNL     1      11.708 -13.393  43.441  1.00  0.00    -0.109 N 
ATOM     17  H9  UNL     1      11.212 -13.821  42.659  1.00  0.00     0.207 HD
HETATM   18  N10 UNL     1      12.189 -14.038  44.517  1.00  0.00    -0.050 N 
HETATM   19  C14 UNL     1      12.302 -15.325  45.109  1.00  0.00     0.203 C 
HETATM   20  N11 UNL     1      12.054 -16.418  44.477  1.00  0.00    -0.250 N 
ATOM     21  H11 UNL     1      12.160 -17.302  44.975  1.00  0.00     0.195 HD
HETATM   22  C15 UNL     1      12.731 -15.124  46.496  1.00  0.00     0.262 C 
ENDROOT
BRANCH   7  23
HETATM   23  C9  UNL     1      16.040 -11.039  49.612  1.00  0.00     0.218 C 
BRANCH  23  24
HETATM   24  O2  UNL     1      16.093  -9.883  48.856  1.00  0.00    -0.385 OA
ATOM     25  H2  UNL     1      15.306  -9.749  48.340  1.00  0.00     0.210 HD
ENDBRANCH  23  24
BRANCH  23  26
HETATM   26  C10 UNL     1      15.284 -10.783  50.888  1.00  0.00     0.177 C 
BRANCH  26  27
HETATM   27  O3  UNL     1      15.581 -11.699  51.871  1.00  0.00    -0.390 OA
ATOM     28  H3  UNL     1      15.444 -11.353  52.745  1.00  0.00     0.210 HD
ENDBRANCH  26  27
BRANCH  26  29
HETATM   29  C11 UNL     1      15.421  -9.357  51.344  1.00  0.00     0.198 C 
BRANCH  29  30
HETATM   30  O4  UNL     1      14.127  -8.803  51.344  1.00  0.00    -0.398 OA
ATOM     31  H4  UNL     1      13.959  -8.497  52.227  1.00  0.00     0.209 HD
ENDBRANCH  29  30
ENDBRANCH  26  29
ENDBRANCH  23  26
ENDBRANCH   7  23
BRANCH   1  32
HETATM   32  C5  UNL     1      14.335 -16.913  45.848  1.00  0.00     0.118 C 
HETATM   33  N1  UNL     1      15.519 -16.717  45.407  1.00  0.00    -0.279 N 
ATOM     34  H1  UNL     1      16.106 -15.994  45.825  1.00  0.00     0.193 HD
BRANCH  33  35
HETATM   35  O1  UNL     1      15.994 -17.472  44.385  1.00  0.00    -0.271 OA
BRANCH  35  36
HETATM   36  C2  UNL     1      17.287 -17.437  43.862  1.00  0.00     0.078 C 
HETATM   37  C1  UNL     1      17.942 -16.114  44.238  1.00  0.00     0.048 C 
HETATM   38  C3  UNL     1      18.100 -18.523  44.534  1.00  0.00     0.048 C 
HETATM   39  C4  UNL     1      17.258 -17.565  42.371  1.00  0.00     0.048 C 
ENDBRANCH  35  36
ENDBRANCH  33  35
ENDBRANCH   1  32
BRANCH  22  40
HETATM   40  O6  UNL     1      11.630 -15.051  47.374  1.00  0.00    -0.361 OA
ATOM     41  H6  UNL     1      11.306 -15.915  47.600  1.00  0.00     0.213 HD
ENDBRANCH  22  40
BRANCH  15  42
HETATM   42  N8  UNL     1      11.658 -11.200  42.691  1.00  0.00    -0.233 N 
ATOM     43  H82 UNL     1      11.477 -11.431  41.714  1.00  0.00     0.174 HD
ATOM     44  H81 UNL     1      11.520 -10.195  42.793  1.00  0.00     0.174 HD
ENDBRANCH  15  42
BRANCH  20  45
HETATM   45  O5  UNL     1      11.661 -16.450  43.184  1.00  0.00    -0.288 OA
ATOM     46  H5  UNL     1      12.216 -16.768  42.480  1.00  0.00     0.244 HD
ENDBRANCH  20  45
TORSDOF 12
ENDMDL
MODEL 3
REMARK VINA RESULT: -7.332825508      2.470      5.137
REMARK  12 active torsions:
REMARK  status: ('A' for Active; 'I' for Inactive)
REMARK    1  A    between atoms: C2_2  and  O1_5 
REMARK    2  A    between atoms: O1_5  and  N1_6 
REMARK    3  A    between atoms: C5_8  and  C6_9 
REMARK    4  A    between atoms: C8_15  and  C9_16 
REMARK    5  A    between atoms: C9_16  and  O2_17 
REMARK    6  A    between atoms: C9_16  and  C10_19 
REMARK    7  A    between atoms: C10_19  and  O3_20 
REMARK    8  A    between atoms: C10_19  and  C11_22 
REMARK    9  A    between atoms: C11_22  and  O4_23 
REMARK   10  A    between atoms: C13_32  and  N8_33 
REMARK   11  A    between atoms: N11_40  and  O5_42 
REMARK   12  A    between atoms: C15_44  and  O6_45 
ROOT
HETATM    1  C6  UNL     1      14.599 -13.777  45.377  1.00  0.00     0.206 C 
HETATM    2  N2  UNL     1      14.070 -12.848  46.352  1.00  0.00    -0.208 N 
ATOM      3  H2  UNL     1      13.265 -12.287  46.075  1.00  0.00     0.178 HD
HETATM    4  C7  UNL     1      14.575 -12.653  47.653  1.00  0.00     0.717 A 
HETATM    5  N3  UNL     1      14.339 -11.751  48.647  1.00  0.00    -0.173 N 
ATOM      6  H3  UNL     1      13.674 -10.980  48.596  1.00  0.00     0.185 HD
HETATM    7  C8  UNL     1      15.118 -12.037  49.705  1.00  0.00     0.145 A 
HETATM    8  N4  UNL     1      15.826 -13.120  49.338  1.00  0.00    -0.249 N 
ATOM      9  H4  UNL     1      16.515 -13.587  49.928  1.00  0.00     0.191 HD
HETATM   10  N5  UNL     1      15.511 -13.502  48.110  1.00  0.00     0.001 N 
HETATM   11  N6  UNL     1      15.926 -14.530  47.257  1.00  0.00    -0.039 N 
HETATM   12  C12 UNL     1      16.482 -15.792  47.583  1.00  0.00     0.742 A 
HETATM   13  N7  UNL     1      17.025 -16.510  48.597  1.00  0.00    -0.018 N 
ATOM     14  H7  UNL     1      17.161 -16.176  49.550  1.00  0.00     0.203 HD
HETATM   15  C13 UNL     1      17.356 -17.733  48.146  1.00  0.00     0.706 A 
HETATM   16  N9  UNL     1      17.020 -17.779  46.844  1.00  0.00    -0.109 N 
ATOM     17  H9  UNL     1      17.147 -18.578  46.223  1.00  0.00     0.207 HD
HETATM   18  N10 UNL     1      16.487 -16.593  46.503  1.00  0.00    -0.050 N 
HETATM   19  C14 UNL     1      15.924 -15.876  45.414  1.00  0.00     0.203 C 
HETATM   20  N11 UNL     1      15.567 -16.433  44.310  1.00  0.00    -0.250 N 
ATOM     21  H11 UNL     1      15.170 -15.846  43.576  1.00  0.00     0.195 HD
HETATM   22  C15 UNL     1      15.855 -14.468  45.816  1.00  0.00     0.262 C 
ENDROOT
BRANCH   7  23
HETATM   23  C9  UNL     1      15.199 -11.324  51.015  1.00  0.00     0.218 C 
BRANCH  23  24
HETATM   24  O2  UNL     1      15.770 -12.101  52.005  1.00  0.00    -0.385 OA
ATOM     25  H2  UNL     1      15.125 -12.450  52.610  1.00  0.00     0.210 HD
ENDBRANCH  23  24
BRANCH  23  26
HETATM   26  C10 UNL     1      15.965 -10.036  50.868  1.00  0.00     0.177 C 
BRANCH  26  27
HETATM   27  O3  UNL     1      16.160  -9.684  49.551  1.00  0.00    -0.390 OA
ATOM     28  H3  UNL     1      17.074  -9.726  49.294  1.00  0.00     0.210 HD
ENDBRANCH  26  27
BRANCH  26  29
HETATM   29  C11 UNL     1      15.369  -8.932  51.695  1.00  0.00     0.198 C 
BRANCH  29  30
HETATM   30  O4  UNL     1      14.013  -8.835  51.328  1.00  0.00    -0.398 OA
ATOM     31  H4  UNL     1      13.529  -8.624  52.118  1.00  0.00     0.209 HD
ENDBRANCH  29  30
ENDBRANCH  26  29
ENDBRANCH  23  26
ENDBRANCH   7  23
BRANCH   1  32
HETATM   32  C5  UNL     1      13.553 -14.727  44.908  1.00  0.00     0.118 C 
HETATM   33  N1  UNL     1      12.305 -14.445  44.904  1.00  0.00    -0.279 N 
ATOM     34  H1  UNL     1      11.987 -13.532  45.232  1.00  0.00     0.193 HD
BRANCH  33  35
HETATM   35  O1  UNL     1      11.407 -15.360  44.463  1.00  0.00    -0.271 OA
BRANCH  35  36
HETATM   36  C2  UNL     1      10.506 -15.194  43.410  1.00  0.00     0.078 C 
HETATM   37  C1  UNL     1       9.086 -15.195  43.964  1.00  0.00     0.048 C 
HETATM   38  C3  UNL     1      10.728 -13.824  42.806  1.00  0.00     0.048 C 
HETATM   39  C4  UNL     1      10.646 -16.304  42.414  1.00  0.00     0.048 C 
ENDBRANCH  35  36
ENDBRANCH  33  35
ENDBRANCH   1  32
BRANCH  22  40
HETATM   40  O6  UNL     1      17.005 -13.758  45.413  1.00  0.00    -0.361 OA
ATOM     41  H6  UNL     1      17.797 -14.148  45.765  1.00  0.00     0.213 HD
ENDBRANCH  22  40
BRANCH  15  42
HETATM   42  N8  UNL     1      17.895 -18.728  48.770  1.00  0.00    -0.233 N 
ATOM     43  H82 UNL     1      17.364 -19.542  49.080  1.00  0.00     0.174 HD
ATOM     44  H81 UNL     1      18.865 -18.879  49.045  1.00  0.00     0.174 HD
ENDBRANCH  15  42
BRANCH  20  45
HETATM   45  O5  UNL     1      15.692 -17.759  44.078  1.00  0.00    -0.288 OA
ATOM     46  H5  UNL     1      15.110 -18.243  43.503  1.00  0.00     0.244 HD
ENDBRANCH  20  45
TORSDOF 12
ENDMDL
MODEL 4
REMARK VINA RESULT: -7.107040191      1.041      1.228
REMARK  12 active torsions:
REMARK  status: ('A' for Active; 'I' for Inactive)
REMARK    1  A    between atoms: C2_2  and  O1_5 
REMARK    2  A    between atoms: O1_5  and  N1_6 
REMARK    3  A    between atoms: C5_8  and  C6_9 
REMARK    4  A    between atoms: C8_15  and  C9_16 
REMARK    5  A    between atoms: C9_16  and  O2_17 
REMARK    6  A    between atoms: C9_16  and  C10_19 
REMARK    7  A    between atoms: C10_19  and  O3_20 
REMARK    8  A    between atoms: C10_19  and  C11_22 
REMARK    9  A    between atoms: C11_22  and  O4_23 
REMARK   10  A    between atoms: C13_32  and  N8_33 
REMARK   11  A    between atoms: N11_40  and  O5_42 
REMARK   12  A    between atoms: C15_44  and  O6_45 
ROOT
HETATM    1  C6  UNL     1      14.767 -15.515  48.799  1.00  0.00     0.206 C 
HETATM    2  N2  UNL     1      15.439 -14.773  49.844  1.00  0.00    -0.208 N 
ATOM      3  H2  UNL     1      16.067 -15.294  50.457  1.00  0.00     0.178 HD
HETATM    4  C7  UNL     1      15.300 -13.392  50.085  1.00  0.00     0.717 A 
HETATM    5  N3  UNL     1      15.703 -12.549  51.077  1.00  0.00    -0.173 N 
ATOM      6  H3  UNL     1      16.235 -12.821  51.902  1.00  0.00     0.185 HD
HETATM    7  C8  UNL     1      15.288 -11.300  50.797  1.00  0.00     0.145 A 
HETATM    8  N4  UNL     1      14.632 -11.401  49.627  1.00  0.00    -0.249 N 
ATOM      9  H4  UNL     1      14.193 -10.619  49.142  1.00  0.00     0.191 HD
HETATM   10  N5  UNL     1      14.631 -12.650  49.187  1.00  0.00     0.001 N 
HETATM   11  N6  UNL     1      14.112 -13.302  48.064  1.00  0.00    -0.039 N 
HETATM   12  C12 UNL     1      13.816 -12.776  46.782  1.00  0.00     0.742 A 
HETATM   13  N7  UNL     1      13.662 -11.619  46.093  1.00  0.00    -0.018 N 
ATOM     14  H7  UNL     1      13.762 -10.682  46.482  1.00  0.00     0.203 HD
HETATM   15  C13 UNL     1      13.358 -11.902  44.814  1.00  0.00     0.706 A 
HETATM   16  N9  UNL     1      13.319 -13.242  44.704  1.00  0.00    -0.109 N 
ATOM     17  H9  UNL     1      13.113 -13.766  43.853  1.00  0.00     0.207 HD
HETATM   18  N10 UNL     1      13.598 -13.773  45.907  1.00  0.00    -0.050 N 
HETATM   19  C14 UNL     1      13.750 -15.008  46.592  1.00  0.00     0.203 C 
HETATM   20  N11 UNL     1      13.843 -16.142  45.991  1.00  0.00    -0.250 N 
ATOM     21  H11 UNL     1      13.950 -16.984  46.557  1.00  0.00     0.195 HD
HETATM   22  C15 UNL     1      13.770 -14.705  48.025  1.00  0.00     0.262 C 
ENDROOT
BRANCH   7  23
HETATM   23  C9  UNL     1      15.497 -10.054  51.594  1.00  0.00     0.218 C 
BRANCH  23  24
HETATM   24  O2  UNL     1      14.405  -9.208  51.548  1.00  0.00    -0.385 OA
ATOM     25  H2  UNL     1      14.652  -8.293  51.617  1.00  0.00     0.210 HD
ENDBRANCH  23  24
BRANCH  23  26
HETATM   26  C10 UNL     1      15.825 -10.392  53.024  1.00  0.00     0.177 C 
BRANCH  26  27
HETATM   27  O3  UNL     1      17.139 -10.765  53.191  1.00  0.00    -0.390 OA
ATOM     28  H3  UNL     1      17.259 -11.361  53.921  1.00  0.00     0.210 HD
ENDBRANCH  26  27
BRANCH  26  29
HETATM   29  C11 UNL     1      15.392  -9.306  53.969  1.00  0.00     0.198 C 
BRANCH  29  30
HETATM   30  O4  UNL     1      16.390  -8.313  53.933  1.00  0.00    -0.398 OA
ATOM     31  H4  UNL     1      17.210  -8.740  54.149  1.00  0.00     0.209 HD
ENDBRANCH  29  30
ENDBRANCH  26  29
ENDBRANCH  23  26
ENDBRANCH   7  23
BRANCH   1  32
HETATM   32  C5  UNL     1      15.740 -16.221  47.921  1.00  0.00     0.118 C 
HETATM   33  N1  UNL     1      16.989 -15.947  47.902  1.00  0.00    -0.279 N 
ATOM     34  H1  UNL     1      17.361 -15.216  48.508  1.00  0.00     0.193 HD
BRANCH  33  35
HETATM   35  O1  UNL     1      17.819 -16.632  47.076  1.00  0.00    -0.271 OA
BRANCH  35  36
HETATM   36  C2  UNL     1      18.815 -17.530  47.461  1.00  0.00     0.078 C 
HETATM   37  C1  UNL     1      18.365 -18.947  47.127  1.00  0.00     0.048 C 
HETATM   38  C3  UNL     1      20.046 -17.263  46.620  1.00  0.00     0.048 C 
HETATM   39  C4  UNL     1      19.077 -17.430  48.931  1.00  0.00     0.048 C 
ENDBRANCH  35  36
ENDBRANCH  33  35
ENDBRANCH   1  32
BRANCH  22  40
HETATM   40  O6  UNL     1      12.481 -14.792  48.592  1.00  0.00    -0.361 OA
ATOM     41  H6  UNL     1      12.105 -15.657  48.472  1.00  0.00     0.213 HD
ENDBRANCH  22  40
BRANCH  15  42
HETATM   42  N8  UNL     1      13.131 -11.107  43.821  1.00  0.00    -0.233 N 
ATOM     43  H82 UNL     1      13.125 -10.091  43.913  1.00  0.00     0.174 HD
ATOM     44  H81 UNL     1      12.933 -11.321  42.844  1.00  0.00     0.174 HD
ENDBRANCH  15  42
BRANCH  20  45
HETATM   45  O5  UNL     1      13.808 -16.271  44.646  1.00  0.00    -0.288 OA
ATOM     46  H5  UNL     1      13.473 -15.595  44.068  1.00  0.00     0.244 HD
ENDBRANCH  20  45
TORSDOF 12
ENDMDL
MODEL 5
REMARK VINA RESULT: -7.063665971      0.793      1.222
REMARK  12 active torsions:
REMARK  status: ('A' for Active; 'I' for Inactive)
REMARK    1  A    between atoms: C2_2  and  O1_5 
REMARK    2  A    between atoms: O1_5  and  N1_6 
REMARK    3  A    between atoms: C5_8  and  C6_9 
REMARK    4  A    between atoms: C8_15  and  C9_16 
REMARK    5  A    between atoms: C9_16  and  O2_17 
REMARK    6  A    between atoms: C9_16  and  C10_19 
REMARK    7  A    between atoms: C10_19  and  O3_20 
REMARK    8  A    between atoms: C10_19  and  C11_22 
REMARK    9  A    between atoms: C11_22  and  O4_23 
REMARK   10  A    between atoms: C13_32  and  N8_33 
REMARK   11  A    between atoms: N11_40  and  O5_42 
REMARK   12  A    between atoms: C15_44  and  O6_45 
ROOT
HETATM    1  C6  UNL     1      14.621 -15.611  48.678  1.00  0.00     0.206 C 
HETATM    2  N2  UNL     1      15.323 -14.911  49.731  1.00  0.00    -0.208 N 
ATOM      3  H2  UNL     1      15.937 -15.463  50.330  1.00  0.00     0.178 HD
HETATM    4  C7  UNL     1      15.230 -13.531  49.998  1.00  0.00     0.717 A 
HETATM    5  N3  UNL     1      15.666 -12.719  51.002  1.00  0.00    -0.173 N 
ATOM      6  H3  UNL     1      16.194 -13.023  51.819  1.00  0.00     0.185 HD
HETATM    7  C8  UNL     1      15.291 -11.452  50.748  1.00  0.00     0.145 A 
HETATM    8  N4  UNL     1      14.625 -11.511  49.580  1.00  0.00    -0.249 N 
ATOM      9  H4  UNL     1      14.209 -10.706  49.112  1.00  0.00     0.191 HD
HETATM   10  N5  UNL     1      14.581 -12.751  49.118  1.00  0.00     0.001 N 
HETATM   11  N6  UNL     1      14.035 -13.365  47.986  1.00  0.00    -0.039 N 
HETATM   12  C12 UNL     1      13.748 -12.806  46.716  1.00  0.00     0.742 A 
HETATM   13  N7  UNL     1      13.629 -11.633  46.049  1.00  0.00    -0.018 N 
ATOM     14  H7  UNL     1      13.761 -10.707  46.454  1.00  0.00     0.203 HD
HETATM   15  C13 UNL     1      13.308 -11.882  44.767  1.00  0.00     0.706 A 
HETATM   16  N9  UNL     1      13.225 -13.218  44.633  1.00  0.00    -0.109 N 
ATOM     17  H9  UNL     1      12.997 -13.719  43.773  1.00  0.00     0.207 HD
HETATM   18  N10 UNL     1      13.494 -13.780  45.824  1.00  0.00    -0.050 N 
HETATM   19  C14 UNL     1      13.609 -15.032  46.486  1.00  0.00     0.203 C 
HETATM   20  N11 UNL     1      13.662 -16.157  45.865  1.00  0.00    -0.250 N 
ATOM     21  H11 UNL     1      13.745 -17.012  46.414  1.00  0.00     0.195 HD
HETATM   22  C15 UNL     1      13.646 -14.756  47.925  1.00  0.00     0.262 C 
ENDROOT
BRANCH   7  23
HETATM   23  C9  UNL     1      15.544 -10.229  51.566  1.00  0.00     0.218 C 
BRANCH  23  24
HETATM   24  O2  UNL     1      14.465  -9.366  51.575  1.00  0.00    -0.385 OA
ATOM     25  H2  UNL     1      13.678  -9.765  51.222  1.00  0.00     0.210 HD
ENDBRANCH  23  24
BRANCH  23  26
HETATM   26  C10 UNL     1      15.913 -10.604  52.976  1.00  0.00     0.177 C 
BRANCH  26  27
HETATM   27  O3  UNL     1      15.078 -11.563  53.504  1.00  0.00    -0.390 OA
ATOM     28  H3  UNL     1      15.550 -12.238  53.976  1.00  0.00     0.210 HD
ENDBRANCH  26  27
BRANCH  26  29
HETATM   29  C11 UNL     1      17.371 -10.954  53.099  1.00  0.00     0.198 C 
BRANCH  29  30
HETATM   30  O4  UNL     1      17.916 -10.888  51.803  1.00  0.00    -0.398 OA
ATOM     31  H4  UNL     1      17.305 -11.329  51.225  1.00  0.00     0.209 HD
ENDBRANCH  29  30
ENDBRANCH  26  29
ENDBRANCH  23  26
ENDBRANCH   7  23
BRANCH   1  32
HETATM   32  C5  UNL     1      15.565 -16.332  47.780  1.00  0.00     0.118 C 
HETATM   33  N1  UNL     1      16.760 -15.932  47.558  1.00  0.00    -0.279 N 
ATOM     34  H1  UNL     1      17.105 -15.082  48.004  1.00  0.00     0.193 HD
BRANCH  33  35
HETATM   35  O1  UNL     1      17.566 -16.639  46.728  1.00  0.00    -0.271 OA
BRANCH  35  36
HETATM   36  C2  UNL     1      18.139 -16.181  45.541  1.00  0.00     0.078 C 
HETATM   37  C1  UNL     1      18.064 -14.658  45.506  1.00  0.00     0.048 C 
HETATM   38  C3  UNL     1      19.611 -16.536  45.555  1.00  0.00     0.048 C 
HETATM   39  C4  UNL     1      17.414 -16.736  44.354  1.00  0.00     0.048 C 
ENDBRANCH  35  36
ENDBRANCH  33  35
ENDBRANCH   1  32
BRANCH  22  40
HETATM   40  O6  UNL     1      12.359 -14.811  48.497  1.00  0.00    -0.361 OA
ATOM     41  H6  UNL     1      11.764 -15.329  47.968  1.00  0.00     0.213 HD
ENDBRANCH  22  40
BRANCH  15  42
HETATM   42  N8  UNL     1      13.101 -11.063  43.790  1.00  0.00    -0.233 N 
ATOM     43  H82 UNL     1      12.167 -10.805  43.471  1.00  0.00     0.174 HD
ATOM     44  H81 UNL     1      13.768 -10.561  43.204  1.00  0.00     0.174 HD
ENDBRANCH  15  42
BRANCH  20  45
HETATM   45  O5  UNL     1      13.614 -16.260  44.517  1.00  0.00    -0.288 OA
ATOM     46  H5  UNL     1      13.132 -15.654  43.967  1.00  0.00     0.244 HD
ENDBRANCH  20  45
TORSDOF 12
ENDMDL
