MODEL 1
REMARK VINA RESULT: -7.534962365      0.000      0.000
REMARK  13 active torsions:
REMARK  status: ('A' for Active; 'I' for Inactive)
REMARK       I    between atoms: C1_4  and  N2_5 
REMARK       I    between atoms: C1_4  and  N9_33 
REMARK    1  A    between atoms: C3_9  and  C4_10 
REMARK    2  A    between atoms: C4_10  and  O2_11 
REMARK    3  A    between atoms: C4_10  and  C5_13 
REMARK    4  A    between atoms: C5_13  and  N3_14 
REMARK    5  A    between atoms: C6_16  and  N4_17 
REMARK    6  A    between atoms: C7_22  and  O3_23 
REMARK    7  A    between atoms: N7_27  and  C8_28 
REMARK    8  A    between atoms: C8_28  and  O4_29 
REMARK    9  A    between atoms: O4_29  and  C9_30 
REMARK   10  A    between atoms: N9_33  and  C10_35 
REMARK   11  A    between atoms: C10_35  and  S2_39 
REMARK   12  A    between atoms: S2_39  and  N11_40 
REMARK   13  A    between atoms: N11_40  and  N12_41 
ROOT
HETATM    1  N1  UNL     1      17.417 -14.263  52.473  1.00  0.00    -0.234 N 
ATOM      2  H11 UNL     1      17.622 -14.996  53.151  1.00  0.00     0.174 HD
ATOM      3  H12 UNL     1      17.407 -14.408  51.464  1.00  0.00     0.174 HD
HETATM    4  C1  UNL     1      17.155 -13.088  52.921  1.00  0.00     0.681 C 
HETATM    5  N2  UNL     1      16.869 -12.067  51.977  1.00  0.00    -0.153 N 
ATOM      6  H2  UNL     1      17.318 -11.154  52.058  1.00  0.00     0.188 HD
HETATM    7  C2  UNL     1      16.023 -12.304  50.996  1.00  0.00     0.268 A 
HETATM    8  O1  UNL     1      15.396 -13.456  50.811  1.00  0.00    -0.260 OA
HETATM    9  C3  UNL     1      14.606 -13.398  49.751  1.00  0.00     0.173 A 
HETATM   10  N6  UNL     1      14.770 -12.159  49.282  1.00  0.00    -0.270 N 
ATOM     11  H6  UNL     1      14.296 -11.786  48.459  1.00  0.00     0.189 HD
HETATM   12  N7  UNL     1      15.642 -11.467  50.036  1.00  0.00    -0.205 N 
HETATM   13  N9  UNL     1      17.169 -12.886  54.324  1.00  0.00    -0.170 N 
ATOM     14  H9  UNL     1      17.508 -12.014  54.730  1.00  0.00     0.186 HD
ENDROOT
BRANCH  12  15
HETATM   15  C8  UNL     1      16.038 -10.133  49.757  1.00  0.00     0.267 C 
BRANCH  15  16
HETATM   16  O4  UNL     1      15.852  -9.158  50.694  1.00  0.00    -0.257 OA
BRANCH  16  17
HETATM   17  C9  UNL     1      15.009  -8.988  51.725  1.00  0.00     0.378 C 
HETATM   18  N8  UNL     1      15.400  -9.331  53.078  1.00  0.00    -0.032 NA
HETATM   19  O5  UNL     1      13.863  -8.531  51.547  1.00  0.00    -0.242 OA
ENDBRANCH  16  17
ENDBRANCH  15  16
ENDBRANCH  12  15
BRANCH   9  20
HETATM   20  C4  UNL     1      13.763 -14.519  49.264  1.00  0.00     0.213 C 
BRANCH  20  21
HETATM   21  O2  UNL     1      12.441 -14.038  49.185  1.00  0.00    -0.386 OA
ATOM     22  H2  UNL     1      12.172 -14.110  48.276  1.00  0.00     0.210 HD
ENDBRANCH  20  21
BRANCH  20  23
HETATM   23  C5  UNL     1      14.225 -15.066  47.968  1.00  0.00     0.181 C 
BRANCH  23  24
HETATM   24  N3  UNL     1      13.444 -14.651  46.805  1.00  0.00    -0.277 N 
HETATM   25  S1  UNL     1      12.114 -15.381  46.095  1.00  0.00     0.028 SA
HETATM   26  C6  UNL     1      11.822 -14.249  44.861  1.00  0.00     0.162 A 
HETATM   27  N5  UNL     1      12.785 -13.347  45.064  1.00  0.00    -0.301 N 
HETATM   28  C7  UNL     1      13.617 -13.551  46.060  1.00  0.00     0.232 A 
ATOM     29  H5  UNL     1      12.872 -12.527  44.464  1.00  0.00     0.171 HD
BRANCH  26  30
HETATM   30  N4  UNL     1      10.896 -14.228  43.923  1.00  0.00    -0.378 N 
ATOM     31  H42 UNL     1      10.162 -14.918  43.768  1.00  0.00     0.158 HD
ATOM     32  H41 UNL     1      10.720 -13.547  43.184  1.00  0.00     0.158 HD
ENDBRANCH  26  30
BRANCH  28  33
HETATM   33  O3  UNL     1      14.587 -12.732  46.339  1.00  0.00    -0.332 OA
ATOM     34  H3  UNL     1      14.568 -12.242  47.153  1.00  0.00     0.221 HD
ENDBRANCH  28  33
ENDBRANCH  23  24
ENDBRANCH  20  23
ENDBRANCH   9  20
BRANCH  13  35
HETATM   35  C10 UNL     1      16.693 -13.942  55.142  1.00  0.00     0.171 C 
HETATM   36  N10 UNL     1      15.428 -14.138  55.271  1.00  0.00    -0.378 N 
ATOM     37 2H10 UNL     1      14.746 -13.547  54.796  1.00  0.00     0.158 HD
ATOM     38 1H10 UNL     1      15.086 -14.897  55.859  1.00  0.00     0.158 HD
BRANCH  35  39
HETATM   39  S2  UNL     1      17.885 -14.974  55.972  1.00  0.00     0.036 SA
BRANCH  39  40
HETATM   40  N11 UNL     1      19.215 -15.360  54.917  1.00  0.00    -0.065 NA
BRANCH  40  41
HETATM   41  N12 UNL     1      20.200 -14.396  54.866  1.00  0.00    -0.337 N 
ATOM     42 2H12 UNL     1      19.981 -13.409  54.734  1.00  0.00     0.173 HD
ATOM     43 1H12 UNL     1      21.148 -14.756  54.970  1.00  0.00     0.173 HD
ENDBRANCH  40  41
ENDBRANCH  39  40
ENDBRANCH  35  39
ENDBRANCH  13  35
TORSDOF 13
ENDMDL
MODEL 2
REMARK VINA RESULT: -7.328017688      1.837      2.308
REMARK  13 active torsions:
REMARK  status: ('A' for Active; 'I' for Inactive)
REMARK       I    between atoms: C1_4  and  N2_5 
REMARK       I    between atoms: C1_4  and  N9_33 
REMARK    1  A    between atoms: C3_9  and  C4_10 
REMARK    2  A    between atoms: C4_10  and  O2_11 
REMARK    3  A    between atoms: C4_10  and  C5_13 
REMARK    4  A    between atoms: C5_13  and  N3_14 
REMARK    5  A    between atoms: C6_16  and  N4_17 
REMARK    6  A    between atoms: C7_22  and  O3_23 
REMARK    7  A    between atoms: N7_27  and  C8_28 
REMARK    8  A    between atoms: C8_28  and  O4_29 
REMARK    9  A    between atoms: O4_29  and  C9_30 
REMARK   10  A    between atoms: N9_33  and  C10_35 
REMARK   11  A    between atoms: C10_35  and  S2_39 
REMARK   12  A    between atoms: S2_39  and  N11_40 
REMARK   13  A    between atoms: N11_40  and  N12_41 
ROOT
HETATM    1  N1  UNL     1      17.835 -13.851  52.803  1.00  0.00    -0.234 N 
ATOM      2  H11 UNL     1      18.109 -14.510  53.532  1.00  0.00     0.174 HD
ATOM      3  H12 UNL     1      17.900 -14.049  51.804  1.00  0.00     0.174 HD
HETATM    4  C1  UNL     1      17.382 -12.707  53.169  1.00  0.00     0.681 C 
HETATM    5  N2  UNL     1      17.000 -11.790  52.154  1.00  0.00    -0.153 N 
ATOM      6  H2  UNL     1      17.305 -10.818  52.200  1.00  0.00     0.188 HD
HETATM    7  C2  UNL     1      16.250 -12.201  51.152  1.00  0.00     0.268 A 
HETATM    8  O1  UNL     1      15.808 -13.441  51.009  1.00  0.00    -0.260 OA
HETATM    9  C3  UNL     1      15.075 -13.557  49.912  1.00  0.00     0.173 A 
HETATM   10  N6  UNL     1      15.081 -12.334  49.378  1.00  0.00    -0.270 N 
ATOM     11  H6  UNL     1      14.601 -12.078  48.515  1.00  0.00     0.189 HD
HETATM   12  N7  UNL     1      15.802 -11.482  50.129  1.00  0.00    -0.205 N 
HETATM   13  N9  UNL     1      17.292 -12.432  54.556  1.00  0.00    -0.170 N 
ATOM     14  H9  UNL     1      17.479 -11.500  54.925  1.00  0.00     0.186 HD
ENDROOT
BRANCH  12  15
HETATM   15  C8  UNL     1      16.013 -10.120  49.789  1.00  0.00     0.267 C 
BRANCH  15  16
HETATM   16  O4  UNL     1      15.831  -9.148  50.729  1.00  0.00    -0.257 OA
BRANCH  16  17
HETATM   17  C9  UNL     1      14.967  -8.962  51.740  1.00  0.00     0.378 C 
HETATM   18  N8  UNL     1      15.335  -9.270  53.108  1.00  0.00    -0.032 NA
HETATM   19  O5  UNL     1      13.822  -8.519  51.530  1.00  0.00    -0.242 OA
ENDBRANCH  16  17
ENDBRANCH  15  16
ENDBRANCH  12  15
BRANCH   9  20
HETATM   20  C4  UNL     1      14.432 -14.815  49.457  1.00  0.00     0.213 C 
BRANCH  20  21
HETATM   21  O2  UNL     1      13.246 -14.967  50.204  1.00  0.00    -0.386 OA
ATOM     22  H2  UNL     1      12.534 -14.641  49.665  1.00  0.00     0.210 HD
ENDBRANCH  20  21
BRANCH  20  23
HETATM   23  C5  UNL     1      14.166 -14.830  47.999  1.00  0.00     0.181 C 
BRANCH  23  24
HETATM   24  N3  UNL     1      15.352 -14.753  47.151  1.00  0.00    -0.277 N 
HETATM   25  S1  UNL     1      16.786 -15.616  47.237  1.00  0.00     0.028 SA
HETATM   26  C6  UNL     1      17.576 -14.945  45.890  1.00  0.00     0.162 A 
HETATM   27  N5  UNL     1      16.676 -14.072  45.433  1.00  0.00    -0.301 N 
HETATM   28  C7  UNL     1      15.536 -13.972  46.077  1.00  0.00     0.232 A 
ATOM     29  H5  UNL     1      16.868 -13.501  44.610  1.00  0.00     0.171 HD
BRANCH  26  30
HETATM   30  N4  UNL     1      18.770 -15.192  45.390  1.00  0.00    -0.378 N 
ATOM     31  H42 UNL     1      19.246 -16.093  45.350  1.00  0.00     0.158 HD
ATOM     32  H41 UNL     1      19.447 -14.566  44.954  1.00  0.00     0.158 HD
ENDBRANCH  26  30
BRANCH  28  33
HETATM   33  O3  UNL     1      14.595 -13.152  45.712  1.00  0.00    -0.332 OA
ATOM     34  H3  UNL     1      13.811 -13.492  45.296  1.00  0.00     0.221 HD
ENDBRANCH  28  33
ENDBRANCH  23  24
ENDBRANCH  20  23
ENDBRANCH   9  20
BRANCH  13  35
HETATM   35  C10 UNL     1      16.933 -13.504  55.413  1.00  0.00     0.171 C 
HETATM   36  N10 UNL     1      15.709 -13.892  55.481  1.00  0.00    -0.378 N 
ATOM     37 2H10 UNL     1      14.976 -13.446  54.929  1.00  0.00     0.158 HD
ATOM     38 1H10 UNL     1      15.451 -14.662  56.098  1.00  0.00     0.158 HD
BRANCH  35  39
HETATM   39  S2  UNL     1      18.213 -14.282  56.378  1.00  0.00     0.036 SA
BRANCH  39  40
HETATM   40  N11 UNL     1      19.555 -14.747  55.371  1.00  0.00    -0.065 NA
BRANCH  40  41
HETATM   41  N12 UNL     1      20.500 -13.759  55.190  1.00  0.00    -0.337 N 
ATOM     42 2H12 UNL     1      20.362 -12.810  55.538  1.00  0.00     0.173 HD
ATOM     43 1H12 UNL     1      21.334 -14.060  54.686  1.00  0.00     0.173 HD
ENDBRANCH  40  41
ENDBRANCH  39  40
ENDBRANCH  35  39
ENDBRANCH  13  35
TORSDOF 13
ENDMDL
MODEL 3
REMARK VINA RESULT: -7.307150734      3.204      6.985
REMARK  13 active torsions:
REMARK  status: ('A' for Active; 'I' for Inactive)
REMARK       I    between atoms: C1_4  and  N2_5 
REMARK       I    between atoms: C1_4  and  N9_33 
REMARK    1  A    between atoms: C3_9  and  C4_10 
REMARK    2  A    between atoms: C4_10  and  O2_11 
REMARK    3  A    between atoms: C4_10  and  C5_13 
REMARK    4  A    between atoms: C5_13  and  N3_14 
REMARK    5  A    between atoms: C6_16  and  N4_17 
REMARK    6  A    between atoms: C7_22  and  O3_23 
REMARK    7  A    between atoms: N7_27  and  C8_28 
REMARK    8  A    between atoms: C8_28  and  O4_29 
REMARK    9  A    between atoms: O4_29  and  C9_30 
REMARK   10  A    between atoms: N9_33  and  C10_35 
REMARK   11  A    between atoms: C10_35  and  S2_39 
REMARK   12  A    between atoms: S2_39  and  N11_40 
REMARK   13  A    between atoms: N11_40  and  N12_41 
ROOT
HETATM    1  N1  UNL     1      12.871 -13.609  47.480  1.00  0.00    -0.234 N 
ATOM      2  H11 UNL     1      12.456 -13.911  46.599  1.00  0.00     0.174 HD
ATOM      3  H12 UNL     1      12.801 -14.135  48.351  1.00  0.00     0.174 HD
HETATM    4  C1  UNL     1      13.519 -12.500  47.489  1.00  0.00     0.681 C 
HETATM    5  N2  UNL     1      14.097 -12.080  48.717  1.00  0.00    -0.153 N 
ATOM      6  H2  UNL     1      13.977 -11.119  49.037  1.00  0.00     0.188 HD
HETATM    7  C2  UNL     1      14.787 -12.938  49.440  1.00  0.00     0.268 A 
HETATM    8  O1  UNL     1      14.993 -14.203  49.105  1.00  0.00    -0.260 OA
HETATM    9  C3  UNL     1      15.725 -14.820  50.020  1.00  0.00     0.173 A 
HETATM   10  N6  UNL     1      15.964 -13.883  50.940  1.00  0.00    -0.270 N 
ATOM     11  H6  UNL     1      16.510 -14.034  51.789  1.00  0.00     0.189 HD
HETATM   12  N7  UNL     1      15.393 -12.714  50.601  1.00  0.00    -0.205 N 
HETATM   13  N9  UNL     1      13.616 -11.769  46.279  1.00  0.00    -0.170 N 
ATOM     14  H9  UNL     1      13.596 -10.749  46.274  1.00  0.00     0.186 HD
ENDROOT
BRANCH  12  15
HETATM   15  C8  UNL     1      15.451 -11.547  51.407  1.00  0.00     0.267 C 
BRANCH  15  16
HETATM   16  O4  UNL     1      15.168 -10.328  50.862  1.00  0.00    -0.257 OA
BRANCH  16  17
HETATM   17  C9  UNL     1      14.939  -9.102  51.359  1.00  0.00     0.378 C 
HETATM   18  N8  UNL     1      16.032  -8.227  51.731  1.00  0.00    -0.032 NA
HETATM   19  O5  UNL     1      13.776  -8.682  51.516  1.00  0.00    -0.242 OA
ENDBRANCH  16  17
ENDBRANCH  15  16
ENDBRANCH  12  15
BRANCH   9  20
HETATM   20  C4  UNL     1      16.135 -16.244  49.952  1.00  0.00     0.213 C 
BRANCH  20  21
HETATM   21  O2  UNL     1      15.359 -16.944  50.898  1.00  0.00    -0.386 OA
ATOM     22  H2  UNL     1      14.662 -17.379  50.419  1.00  0.00     0.210 HD
ENDBRANCH  20  21
BRANCH  20  23
HETATM   23  C5  UNL     1      15.993 -16.820  48.594  1.00  0.00     0.181 C 
BRANCH  23  24
HETATM   24  N3  UNL     1      17.143 -16.627  47.715  1.00  0.00    -0.277 N 
HETATM   25  S1  UNL     1      18.547 -17.531  47.576  1.00  0.00     0.028 SA
HETATM   26  C6  UNL     1      19.301 -16.653  46.331  1.00  0.00     0.162 A 
HETATM   27  N5  UNL     1      18.414 -15.687  46.080  1.00  0.00    -0.301 N 
HETATM   28  C7  UNL     1      17.308 -15.672  46.788  1.00  0.00     0.232 A 
ATOM     29  H5  UNL     1      18.590 -14.984  45.363  1.00  0.00     0.171 HD
BRANCH  26  30
HETATM   30  N4  UNL     1      20.462 -16.841  45.736  1.00  0.00    -0.378 N 
ATOM     31  H42 UNL     1      20.959 -17.723  45.622  1.00  0.00     0.158 HD
ATOM     32  H41 UNL     1      21.087 -16.174  45.281  1.00  0.00     0.158 HD
ENDBRANCH  26  30
BRANCH  28  33
HETATM   33  O3  UNL     1      16.382 -14.774  46.621  1.00  0.00    -0.332 OA
ATOM     34  H3  UNL     1      15.997 -14.652  45.761  1.00  0.00     0.221 HD
ENDBRANCH  28  33
ENDBRANCH  23  24
ENDBRANCH  20  23
ENDBRANCH   9  20
BRANCH  13  35
HETATM   35  C10 UNL     1      13.741 -12.509  45.076  1.00  0.00     0.171 C 
HETATM   36  N10 UNL     1      14.847 -13.105  44.798  1.00  0.00    -0.378 N 
ATOM     37 2H10 UNL     1      15.649 -13.061  45.427  1.00  0.00     0.158 HD
ATOM     38 1H10 UNL     1      14.937 -13.636  43.933  1.00  0.00     0.158 HD
BRANCH  35  39
HETATM   39  S2  UNL     1      12.340 -12.585  43.978  1.00  0.00     0.036 SA
BRANCH  39  40
HETATM   40  N11 UNL     1      12.162 -11.095  43.094  1.00  0.00    -0.065 NA
BRANCH  40  41
HETATM   41  N12 UNL     1      11.321 -11.177  42.004  1.00  0.00    -0.337 N 
ATOM     42 2H12 UNL     1      10.309 -11.094  42.097  1.00  0.00     0.173 HD
ATOM     43 1H12 UNL     1      11.796 -11.325  41.114  1.00  0.00     0.173 HD
ENDBRANCH  40  41
ENDBRANCH  39  40
ENDBRANCH  35  39
ENDBRANCH  13  35
TORSDOF 13
ENDMDL
MODEL 4
REMARK VINA RESULT: -7.225264529      3.046      6.871
REMARK  13 active torsions:
REMARK  status: ('A' for Active; 'I' for Inactive)
REMARK       I    between atoms: C1_4  and  N2_5 
REMARK       I    between atoms: C1_4  and  N9_33 
REMARK    1  A    between atoms: C3_9  and  C4_10 
REMARK    2  A    between atoms: C4_10  and  O2_11 
REMARK    3  A    between atoms: C4_10  and  C5_13 
REMARK    4  A    between atoms: C5_13  and  N3_14 
REMARK    5  A    between atoms: C6_16  and  N4_17 
REMARK    6  A    between atoms: C7_22  and  O3_23 
REMARK    7  A    between atoms: N7_27  and  C8_28 
REMARK    8  A    between atoms: C8_28  and  O4_29 
REMARK    9  A    between atoms: O4_29  and  C9_30 
REMARK   10  A    between atoms: N9_33  and  C10_35 
REMARK   11  A    between atoms: C10_35  and  S2_39 
REMARK   12  A    between atoms: S2_39  and  N11_40 
REMARK   13  A    between atoms: N11_40  and  N12_41 
ROOT
HETATM    1  N1  UNL     1      12.964 -13.401  48.424  1.00  0.00    -0.234 N 
ATOM      2  H11 UNL     1      12.428 -13.711  47.614  1.00  0.00     0.174 HD
ATOM      3  H12 UNL     1      12.849 -13.784  49.362  1.00  0.00     0.174 HD
HETATM    4  C1  UNL     1      13.836 -12.475  48.247  1.00  0.00     0.681 C 
HETATM    5  N2  UNL     1      14.583 -12.045  49.376  1.00  0.00    -0.153 N 
ATOM      6  H2  UNL     1      14.700 -11.049  49.563  1.00  0.00     0.188 HD
HETATM    7  C2  UNL     1      15.125 -12.938  50.179  1.00  0.00     0.268 A 
HETATM    8  O1  UNL     1      15.025 -14.248  50.015  1.00  0.00    -0.260 OA
HETATM    9  C3  UNL     1      15.673 -14.893  50.972  1.00  0.00     0.173 A 
HETATM   10  N6  UNL     1      16.181 -13.926  51.740  1.00  0.00    -0.270 N 
ATOM     11  H6  UNL     1      16.743 -14.088  52.575  1.00  0.00     0.189 HD
HETATM   12  N7  UNL     1      15.852 -12.710  51.267  1.00  0.00    -0.205 N 
HETATM   13  N9  UNL     1      13.997 -11.943  46.943  1.00  0.00    -0.170 N 
ATOM     14  H9  UNL     1      14.198 -10.954  46.796  1.00  0.00     0.186 HD
ENDROOT
BRANCH  12  15
HETATM   15  C8  UNL     1      16.223 -11.495  51.899  1.00  0.00     0.267 C 
BRANCH  15  16
HETATM   16  O4  UNL     1      15.304 -10.496  52.045  1.00  0.00    -0.257 OA
BRANCH  16  17
HETATM   17  C9  UNL     1      15.168  -9.258  51.544  1.00  0.00     0.378 C 
HETATM   18  N8  UNL     1      13.874  -8.609  51.488  1.00  0.00    -0.032 NA
HETATM   19  O5  UNL     1      16.154  -8.631  51.109  1.00  0.00    -0.242 OA
ENDBRANCH  16  17
ENDBRANCH  15  16
ENDBRANCH  12  15
BRANCH   9  20
HETATM   20  C4  UNL     1      15.759 -16.371  51.085  1.00  0.00     0.213 C 
BRANCH  20  21
HETATM   21  O2  UNL     1      16.147 -16.860  49.822  1.00  0.00    -0.386 OA
ATOM     22  H2  UNL     1      17.089 -16.750  49.758  1.00  0.00     0.210 HD
ENDBRANCH  20  21
BRANCH  20  23
HETATM   23  C5  UNL     1      16.686 -16.814  52.153  1.00  0.00     0.181 C 
BRANCH  23  24
HETATM   24  N3  UNL     1      18.070 -17.012  51.729  1.00  0.00    -0.277 N 
HETATM   25  S1  UNL     1      18.789 -18.345  51.012  1.00  0.00     0.028 SA
HETATM   26  C6  UNL     1      20.362 -17.727  50.830  1.00  0.00     0.162 A 
HETATM   27  N5  UNL     1      20.251 -16.499  51.342  1.00  0.00    -0.301 N 
HETATM   28  C7  UNL     1      19.077 -16.130  51.803  1.00  0.00     0.232 A 
ATOM     29  H5  UNL     1      21.051 -15.868  51.374  1.00  0.00     0.171 HD
BRANCH  26  30
HETATM   30  N4  UNL     1      21.443 -18.282  50.322  1.00  0.00    -0.378 N 
ATOM     31  H42 UNL     1      21.485 -19.068  49.674  1.00  0.00     0.158 HD
ATOM     32  H41 UNL     1      22.429 -18.056  50.459  1.00  0.00     0.158 HD
ENDBRANCH  26  30
BRANCH  28  33
HETATM   33  O3  UNL     1      18.866 -14.956  52.320  1.00  0.00    -0.332 OA
ATOM     34  H3  UNL     1      18.918 -14.842  53.262  1.00  0.00     0.221 HD
ENDBRANCH  28  33
ENDBRANCH  23  24
ENDBRANCH  20  23
ENDBRANCH   9  20
BRANCH  13  35
HETATM   35  C10 UNL     1      13.866 -12.838  45.851  1.00  0.00     0.171 C 
HETATM   36  N10 UNL     1      12.915 -12.681  44.999  1.00  0.00    -0.378 N 
ATOM     37 2H10 UNL     1      12.241 -11.921  45.086  1.00  0.00     0.158 HD
ATOM     38 1H10 UNL     1      12.821 -13.325  44.214  1.00  0.00     0.158 HD
BRANCH  35  39
HETATM   39  S2  UNL     1      15.043 -14.167  45.699  1.00  0.00     0.036 SA
BRANCH  39  40
HETATM   40  N11 UNL     1      16.453 -13.863  46.674  1.00  0.00    -0.065 NA
BRANCH  40  41
HETATM   41  N12 UNL     1      16.743 -14.858  47.584  1.00  0.00    -0.337 N 
ATOM     42 2H12 UNL     1      16.011 -15.416  48.023  1.00  0.00     0.173 HD
ATOM     43 1H12 UNL     1      17.738 -14.980  47.773  1.00  0.00     0.173 HD
ENDBRANCH  40  41
ENDBRANCH  39  40
ENDBRANCH  35  39
ENDBRANCH  13  35
TORSDOF 13
ENDMDL
MODEL 5
REMARK VINA RESULT: -7.161040249      4.144      5.976
REMARK  13 active torsions:
REMARK  status: ('A' for Active; 'I' for Inactive)
REMARK       I    between atoms: C1_4  and  N2_5 
REMARK       I    between atoms: C1_4  and  N9_33 
REMARK    1  A    between atoms: C3_9  and  C4_10 
REMARK    2  A    between atoms: C4_10  and  O2_11 
REMARK    3  A    between atoms: C4_10  and  C5_13 
REMARK    4  A    between atoms: C5_13  and  N3_14 
REMARK    5  A    between atoms: C6_16  and  N4_17 
REMARK    6  A    between atoms: C7_22  and  O3_23 
REMARK    7  A    between atoms: N7_27  and  C8_28 
REMARK    8  A    between atoms: C8_28  and  O4_29 
REMARK    9  A    between atoms: O4_29  and  C9_30 
REMARK   10  A    between atoms: N9_33  and  C10_35 
REMARK   11  A    between atoms: C10_35  and  S2_39 
REMARK   12  A    between atoms: S2_39  and  N11_40 
REMARK   13  A    between atoms: N11_40  and  N12_41 
ROOT
HETATM    1  N1  UNL     1      17.247 -14.170  45.573  1.00  0.00    -0.234 N 
ATOM      2  H11 UNL     1      17.694 -14.662  44.799  1.00  0.00     0.174 HD
ATOM      3  H12 UNL     1      16.956 -13.194  45.534  1.00  0.00     0.174 HD
HETATM    4  C1  UNL     1      17.040 -14.825  46.658  1.00  0.00     0.681 C 
HETATM    5  N2  UNL     1      16.418 -14.141  47.736  1.00  0.00    -0.153 N 
ATOM      6  H2  UNL     1      16.801 -14.213  48.679  1.00  0.00     0.188 HD
HETATM    7  C2  UNL     1      15.343 -13.412  47.513  1.00  0.00     0.268 A 
HETATM    8  O1  UNL     1      14.777 -13.259  46.325  1.00  0.00    -0.260 OA
HETATM    9  C3  UNL     1      13.712 -12.478  46.408  1.00  0.00     0.173 A 
HETATM   10  N6  UNL     1      13.640 -12.149  47.699  1.00  0.00    -0.270 N 
ATOM     11  H6  UNL     1      12.922 -11.548  48.103  1.00  0.00     0.189 HD
HETATM   12  N7  UNL     1      14.640 -12.716  48.399  1.00  0.00    -0.205 N 
HETATM   13  N9  UNL     1      17.445 -16.182  46.712  1.00  0.00    -0.170 N 
ATOM     14  H9  UNL     1      17.821 -16.589  47.568  1.00  0.00     0.186 HD
ENDROOT
BRANCH  12  15
HETATM   15  C8  UNL     1      14.837 -12.516  49.790  1.00  0.00     0.267 C 
BRANCH  15  16
HETATM   16  O4  UNL     1      15.763 -11.611  50.223  1.00  0.00    -0.257 OA
BRANCH  16  17
HETATM   17  C9  UNL     1      16.091 -10.356  49.876  1.00  0.00     0.378 C 
HETATM   18  N8  UNL     1      16.078  -9.281  50.847  1.00  0.00    -0.032 NA
HETATM   19  O5  UNL     1      16.414 -10.079  48.705  1.00  0.00    -0.242 OA
ENDBRANCH  16  17
ENDBRANCH  15  16
ENDBRANCH  12  15
BRANCH   9  20
HETATM   20  C4  UNL     1      12.850 -12.102  45.259  1.00  0.00     0.213 C 
BRANCH  20  21
HETATM   21  O2  UNL     1      13.258 -10.821  44.837  1.00  0.00    -0.386 OA
ATOM     22  H2  UNL     1      14.081 -10.929  44.374  1.00  0.00     0.210 HD
ENDBRANCH  20  21
BRANCH  20  23
HETATM   23  C5  UNL     1      12.906 -13.086  44.152  1.00  0.00     0.181 C 
BRANCH  23  24
HETATM   24  N3  UNL     1      11.639 -13.745  43.844  1.00  0.00    -0.277 N 
HETATM   25  S1  UNL     1      10.889 -15.033  44.609  1.00  0.00     0.028 SA
HETATM   26  C6  UNL     1       9.486 -15.123  43.654  1.00  0.00     0.162 A 
HETATM   27  N5  UNL     1       9.671 -14.135  42.775  1.00  0.00    -0.301 N 
HETATM   28  C7  UNL     1      10.773 -13.428  42.871  1.00  0.00     0.232 A 
ATOM     29  H5  UNL     1       8.978 -13.937  42.053  1.00  0.00     0.171 HD
BRANCH  26  30
HETATM   30  N4  UNL     1       8.456 -15.942  43.726  1.00  0.00    -0.378 N 
ATOM     31  H42 UNL     1       8.461 -16.912  44.040  1.00  0.00     0.158 HD
ATOM     32  H41 UNL     1       7.474 -15.791  43.493  1.00  0.00     0.158 HD
ENDBRANCH  26  30
BRANCH  28  33
HETATM   33  O3  UNL     1      11.046 -12.445  42.063  1.00  0.00    -0.332 OA
ATOM     34  H3  UNL     1      10.376 -11.802  41.864  1.00  0.00     0.221 HD
ENDBRANCH  28  33
ENDBRANCH  23  24
ENDBRANCH  20  23
ENDBRANCH   9  20
BRANCH  13  35
HETATM   35  C10 UNL     1      17.306 -16.953  45.530  1.00  0.00     0.171 C 
HETATM   36  N10 UNL     1      16.146 -17.373  45.167  1.00  0.00    -0.378 N 
ATOM     37 2H10 UNL     1      15.308 -17.165  45.711  1.00  0.00     0.158 HD
ATOM     38 1H10 UNL     1      16.046 -17.928  44.317  1.00  0.00     0.158 HD
BRANCH  35  39
HETATM   39  S2  UNL     1      18.768 -17.317  44.579  1.00  0.00     0.036 SA
BRANCH  39  40
HETATM   40  N11 UNL     1      19.422 -15.869  43.867  1.00  0.00    -0.065 NA
BRANCH  40  41
HETATM   41  N12 UNL     1      20.657 -15.499  44.359  1.00  0.00    -0.337 N 
ATOM     42 2H12 UNL     1      20.766 -15.087  45.285  1.00  0.00     0.173 HD
ATOM     43 1H12 UNL     1      21.434 -15.674  43.722  1.00  0.00     0.173 HD
ENDBRANCH  40  41
ENDBRANCH  39  40
ENDBRANCH  35  39
ENDBRANCH  13  35
TORSDOF 13
ENDMDL
