MODEL 1
REMARK VINA RESULT: -6.725948470      0.000      0.000
REMARK  12 active torsions:
REMARK  status: ('A' for Active; 'I' for Inactive)
REMARK    1  A    between atoms: N1_1  and  C1_4 
REMARK    2  A    between atoms: C4_9  and  C5_10 
REMARK    3  A    between atoms: C6_11  and  O1_12 
REMARK    4  A    between atoms: C7_17  and  N4_18 
REMARK    5  A    between atoms: N6_23  and  C8_24 
REMARK    6  A    between atoms: C8_24  and  C9_25 
REMARK    7  A    between atoms: C9_25  and  O3_26 
REMARK    8  A    between atoms: C10_28  and  C11_29 
REMARK    9  A    between atoms: C11_29  and  N7_30 
REMARK   10  A    between atoms: C11_29  and  S1_34 
REMARK   11  A    between atoms: S1_34  and  N8_37 
REMARK   12  A    between atoms: C12_42  and  N11_43 
ROOT
HETATM    1  C1  UNL     1      17.040 -13.443  52.557  1.00  0.00     0.677 A 
HETATM    2  N2  UNL     1      16.710 -12.242  52.076  1.00  0.00    -0.174 N 
ATOM      3  H2  UNL     1      17.105 -11.403  52.501  1.00  0.00     0.186 HD
HETATM    4  C2  UNL     1      15.870 -12.126  51.042  1.00  0.00     0.152 A 
HETATM    5  C3  UNL     1      15.302 -13.264  50.426  1.00  0.00     0.066 A 
HETATM    6  C4  UNL     1      14.486 -12.833  49.420  1.00  0.00     0.083 A 
HETATM    7  N5  UNL     1      14.564 -11.465  49.432  1.00  0.00    -0.295 N 
ATOM      8  H5  UNL     1      14.065 -10.845  48.793  1.00  0.00     0.187 HD
HETATM    9  N6  UNL     1      15.372 -11.069  50.379  1.00  0.00    -0.273 N 
HETATM   10  C10 UNL     1      15.643 -14.505  50.922  1.00  0.00     0.090 A 
HETATM   11  N13 UNL     1      16.508 -14.518  51.979  1.00  0.00    -0.192 N 
ATOM     12  H13 UNL     1      16.770 -15.428  52.357  1.00  0.00     0.184 HD
ENDROOT
BRANCH  10  13
HETATM   13  C11 UNL     1      15.104 -15.735  50.406  1.00  0.00     0.379 C 
BRANCH  13  14
HETATM   14  N7  UNL     1      14.784 -16.475  51.734  1.00  0.00    -0.054 N 
ATOM     15  H73 UNL     1      15.139 -17.428  51.806  1.00  0.00     0.276 HD
ATOM     16  H72 UNL     1      15.280 -16.139  52.560  1.00  0.00     0.276 HD
ATOM     17  H71 UNL     1      13.769 -16.378  51.757  1.00  0.00     0.276 HD
ENDBRANCH  13  14
BRANCH  13  18
HETATM   18  S1  UNL     1      16.272 -16.824  49.681  1.00  0.00     0.301 S 
HETATM   19  O4  UNL     1      17.403 -17.132  50.652  1.00  0.00    -0.200 OA
HETATM   20  O5  UNL     1      15.630 -18.164  49.363  1.00  0.00    -0.200 OA
BRANCH  18  21
HETATM   21  N8  UNL     1      16.996 -16.281  48.234  1.00  0.00    -0.085 N 
HETATM   22  N9  UNL     1      17.891 -16.928  47.488  1.00  0.00    -0.196 N 
HETATM   23  N10 UNL     1      18.232 -16.210  46.444  1.00  0.00    -0.114 N 
ATOM     24  H9  UNL     1      18.261 -17.855  47.700  1.00  0.00     0.212 HD
HETATM   25  C12 UNL     1      17.538 -15.070  46.518  1.00  0.00     0.708 A 
ATOM     26  H10 UNL     1      18.897 -16.472  45.717  1.00  0.00     0.207 HD
HETATM   27  N12 UNL     1      16.784 -15.129  47.623  1.00  0.00    -0.099 N 
ATOM     28  H12 UNL     1      16.146 -14.399  47.942  1.00  0.00     0.208 HD
BRANCH  25  29
HETATM   29  N11 UNL     1      17.636 -14.131  45.637  1.00  0.00    -0.232 N 
ATOM     30 2H11 UNL     1      17.847 -13.141  45.762  1.00  0.00     0.174 HD
ATOM     31 1H11 UNL     1      17.501 -14.292  44.639  1.00  0.00     0.174 HD
ENDBRANCH  25  29
ENDBRANCH  18  21
ENDBRANCH  13  18
ENDBRANCH  10  13
BRANCH   6  32
HETATM   32  C5  UNL     1      13.660 -13.582  48.490  1.00  0.00     0.098 A 
HETATM   33  C6  UNL     1      13.858 -13.633  47.112  1.00  0.00     0.177 A 
HETATM   34  N3  UNL     1      12.935 -14.461  46.591  1.00  0.00    -0.236 N 
HETATM   35  O2  UNL     1      12.219 -14.891  47.574  1.00  0.00    -0.217 OA
ATOM     36  H3  UNL     1      12.823 -14.703  45.607  1.00  0.00     0.197 HD
HETATM   37  C7  UNL     1      12.593 -14.412  48.730  1.00  0.00     0.181 A 
BRANCH  33  38
HETATM   38  O1  UNL     1      14.831 -12.953  46.402  1.00  0.00    -0.344 OA
ATOM     39  H1  UNL     1      14.994 -13.022  45.469  1.00  0.00     0.219 HD
ENDBRANCH  33  38
BRANCH  37  40
HETATM   40  N4  UNL     1      12.069 -14.664  49.896  1.00  0.00    -0.377 N 
ATOM     41  H42 UNL     1      11.994 -14.029  50.691  1.00  0.00     0.158 HD
ATOM     42  H41 UNL     1      11.650 -15.548  50.184  1.00  0.00     0.158 HD
ENDBRANCH  37  40
ENDBRANCH   6  32
BRANCH   1  43
HETATM   43  N1  UNL     1      17.866 -13.567  53.574  1.00  0.00    -0.234 N 
ATOM     44  H12 UNL     1      18.292 -12.744  54.002  1.00  0.00     0.174 HD
ATOM     45  H11 UNL     1      18.099 -14.483  53.957  1.00  0.00     0.174 HD
ENDBRANCH   1  43
BRANCH   9  46
HETATM   46  C8  UNL     1      15.661  -9.669  50.644  1.00  0.00     0.177 C 
BRANCH  46  47
HETATM   47  C9  UNL     1      14.965  -9.178  51.886  1.00  0.00     0.185 C 
BRANCH  47  48
HETATM   48  O3  UNL     1      13.787  -8.550  51.475  1.00  0.00    -0.399 OA
ATOM     49  H3  UNL     1      13.453  -8.066  52.221  1.00  0.00     0.209 HD
ENDBRANCH  47  48
ENDBRANCH  46  47
ENDBRANCH   9  46
TORSDOF 12
ENDMDL
MODEL 2
REMARK VINA RESULT: -6.618470607      3.308      6.940
REMARK  12 active torsions:
REMARK  status: ('A' for Active; 'I' for Inactive)
REMARK    1  A    between atoms: N1_1  and  C1_4 
REMARK    2  A    between atoms: C4_9  and  C5_10 
REMARK    3  A    between atoms: C6_11  and  O1_12 
REMARK    4  A    between atoms: C7_17  and  N4_18 
REMARK    5  A    between atoms: N6_23  and  C8_24 
REMARK    6  A    between atoms: C8_24  and  C9_25 
REMARK    7  A    between atoms: C9_25  and  O3_26 
REMARK    8  A    between atoms: C10_28  and  C11_29 
REMARK    9  A    between atoms: C11_29  and  N7_30 
REMARK   10  A    between atoms: C11_29  and  S1_34 
REMARK   11  A    between atoms: S1_34  and  N8_37 
REMARK   12  A    between atoms: C12_42  and  N11_43 
ROOT
HETATM    1  C1  UNL     1      14.859 -17.348  44.226  1.00  0.00     0.677 A 
HETATM    2  N2  UNL     1      16.063 -16.810  44.434  1.00  0.00    -0.174 N 
ATOM      3  H2  UNL     1      16.875 -17.184  43.942  1.00  0.00     0.186 HD
HETATM    4  C2  UNL     1      16.217 -15.786  45.281  1.00  0.00     0.152 A 
HETATM    5  C3  UNL     1      15.118 -15.240  45.982  1.00  0.00     0.066 A 
HETATM    6  C4  UNL     1      15.584 -14.228  46.770  1.00  0.00     0.083 A 
HETATM    7  N5  UNL     1      16.935 -14.166  46.544  1.00  0.00    -0.295 N 
ATOM      8  H5  UNL     1      17.572 -13.504  46.988  1.00  0.00     0.187 HD
HETATM    9  N6  UNL     1      17.288 -15.077  45.677  1.00  0.00    -0.273 N 
HETATM   10  C10 UNL     1      13.875 -15.795  45.766  1.00  0.00     0.090 A 
HETATM   11  N13 UNL     1      13.821 -16.837  44.883  1.00  0.00    -0.192 N 
ATOM     12  H13 UNL     1      12.908 -17.258  44.712  1.00  0.00     0.184 HD
ENDROOT
BRANCH  10  13
HETATM   13  C11 UNL     1      12.686 -15.355  46.446  1.00  0.00     0.379 C 
BRANCH  13  14
HETATM   14  N7  UNL     1      12.655 -16.362  47.629  1.00  0.00    -0.054 N 
ATOM     15  H73 UNL     1      13.446 -16.315  48.271  1.00  0.00     0.276 HD
ATOM     16  H72 UNL     1      11.954 -16.179  48.347  1.00  0.00     0.276 HD
ATOM     17  H71 UNL     1      12.549 -17.239  47.119  1.00  0.00     0.276 HD
ENDBRANCH  13  14
BRANCH  13  18
HETATM   18  S1  UNL     1      11.174 -15.729  45.639  1.00  0.00     0.301 S 
HETATM   19  O4  UNL     1      11.164 -17.169  45.145  1.00  0.00    -0.200 OA
HETATM   20  O5  UNL     1      10.009 -15.622  46.608  1.00  0.00    -0.200 OA
BRANCH  18  21
HETATM   21  N8  UNL     1      10.781 -14.744  44.302  1.00  0.00    -0.085 N 
HETATM   22  N9  UNL     1       9.693 -14.820  43.536  1.00  0.00    -0.196 N 
HETATM   23  N10 UNL     1       9.721 -13.905  42.597  1.00  0.00    -0.114 N 
ATOM     24  H9  UNL     1       8.941 -15.497  43.664  1.00  0.00     0.212 HD
HETATM   25  C12 UNL     1      10.857 -13.221  42.760  1.00  0.00     0.708 A 
ATOM     26  H10 UNL     1       9.012 -13.746  41.880  1.00  0.00     0.207 HD
HETATM   27  N12 UNL     1      11.497 -13.748  43.811  1.00  0.00    -0.099 N 
ATOM     28  H12 UNL     1      12.396 -13.430  44.175  1.00  0.00     0.208 HD
BRANCH  25  29
HETATM   29  N11 UNL     1      11.200 -12.237  41.995  1.00  0.00    -0.232 N 
ATOM     30 2H11 UNL     1      11.322 -11.250  42.221  1.00  0.00     0.174 HD
ATOM     31 1H11 UNL     1      11.399 -12.352  41.002  1.00  0.00     0.174 HD
ENDBRANCH  25  29
ENDBRANCH  18  21
ENDBRANCH  13  18
ENDBRANCH  10  13
BRANCH   6  32
HETATM   32  C5  UNL     1      14.883 -13.352  47.692  1.00  0.00     0.098 A 
HETATM   33  C6  UNL     1      14.975 -13.420  49.080  1.00  0.00     0.177 A 
HETATM   34  N3  UNL     1      14.232 -12.424  49.593  1.00  0.00    -0.236 N 
HETATM   35  O2  UNL     1      13.717 -11.787  48.597  1.00  0.00    -0.217 OA
ATOM     36  H3  UNL     1      14.100 -12.213  50.583  1.00  0.00     0.197 HD
HETATM   37  C7  UNL     1      14.061 -12.281  47.439  1.00  0.00     0.181 A 
BRANCH  33  38
HETATM   38  O1  UNL     1      15.702 -14.346  49.805  1.00  0.00    -0.344 OA
ATOM     39  H1  UNL     1      16.384 -14.913  49.466  1.00  0.00     0.219 HD
ENDBRANCH  33  38
BRANCH  37  40
HETATM   40  N4  UNL     1      13.707 -11.854  46.259  1.00  0.00    -0.377 N 
ATOM     41  H42 UNL     1      14.295 -11.763  45.431  1.00  0.00     0.158 HD
ATOM     42  H41 UNL     1      12.772 -11.545  45.992  1.00  0.00     0.158 HD
ENDBRANCH  37  40
ENDBRANCH   6  32
BRANCH   1  43
HETATM   43  N1  UNL     1      14.698 -18.356  43.394  1.00  0.00    -0.234 N 
ATOM     44  H12 UNL     1      15.465 -19.001  43.202  1.00  0.00     0.174 HD
ATOM     45  H11 UNL     1      13.807 -18.516  42.924  1.00  0.00     0.174 HD
ENDBRANCH   1  43
BRANCH   9  46
HETATM   46  C8  UNL     1      18.660 -15.262  45.233  1.00  0.00     0.177 C 
BRANCH  46  47
HETATM   47  C9  UNL     1      19.018 -14.320  44.114  1.00  0.00     0.185 C 
BRANCH  47  48
HETATM   48  O3  UNL     1      18.361 -13.113  44.368  1.00  0.00    -0.399 OA
ATOM     49  H3  UNL     1      17.631 -13.308  44.943  1.00  0.00     0.209 HD
ENDBRANCH  47  48
ENDBRANCH  46  47
ENDBRANCH   9  46
TORSDOF 12
ENDMDL
MODEL 3
REMARK VINA RESULT: -6.590311604      3.353      6.940
REMARK  12 active torsions:
REMARK  status: ('A' for Active; 'I' for Inactive)
REMARK    1  A    between atoms: N1_1  and  C1_4 
REMARK    2  A    between atoms: C4_9  and  C5_10 
REMARK    3  A    between atoms: C6_11  and  O1_12 
REMARK    4  A    between atoms: C7_17  and  N4_18 
REMARK    5  A    between atoms: N6_23  and  C8_24 
REMARK    6  A    between atoms: C8_24  and  C9_25 
REMARK    7  A    between atoms: C9_25  and  O3_26 
REMARK    8  A    between atoms: C10_28  and  C11_29 
REMARK    9  A    between atoms: C11_29  and  N7_30 
REMARK   10  A    between atoms: C11_29  and  S1_34 
REMARK   11  A    between atoms: S1_34  and  N8_37 
REMARK   12  A    between atoms: C12_42  and  N11_43 
ROOT
HETATM    1  C1  UNL     1      15.047 -17.373  43.892  1.00  0.00     0.677 A 
HETATM    2  N2  UNL     1      16.235 -16.831  44.171  1.00  0.00    -0.174 N 
ATOM      3  H2  UNL     1      17.069 -17.173  43.695  1.00  0.00     0.186 HD
HETATM    4  C2  UNL     1      16.342 -15.844  45.067  1.00  0.00     0.152 A 
HETATM    5  C3  UNL     1      15.210 -15.343  45.748  1.00  0.00     0.066 A 
HETATM    6  C4  UNL     1      15.632 -14.361  46.598  1.00  0.00     0.083 A 
HETATM    7  N5  UNL     1      16.989 -14.274  46.428  1.00  0.00    -0.295 N 
ATOM      8  H5  UNL     1      17.600 -13.625  46.925  1.00  0.00     0.187 HD
HETATM    9  N6  UNL     1      17.387 -15.141  45.536  1.00  0.00    -0.273 N 
HETATM   10  C10 UNL     1      13.983 -15.902  45.459  1.00  0.00     0.090 A 
HETATM   11  N13 UNL     1      13.977 -16.903  44.530  1.00  0.00    -0.192 N 
ATOM     12  H13 UNL     1      13.077 -17.327  44.305  1.00  0.00     0.184 HD
ENDROOT
BRANCH  10  13
HETATM   13  C11 UNL     1      12.764 -15.506  46.111  1.00  0.00     0.379 C 
BRANCH  13  14
HETATM   14  N7  UNL     1      12.533 -16.733  47.037  1.00  0.00    -0.054 N 
ATOM     15  H73 UNL     1      12.023 -17.511  46.621  1.00  0.00     0.276 HD
ATOM     16  H72 UNL     1      13.363 -17.285  47.256  1.00  0.00     0.276 HD
ATOM     17  H71 UNL     1      12.080 -16.280  47.830  1.00  0.00     0.276 HD
ENDBRANCH  13  14
BRANCH  13  18
HETATM   18  S1  UNL     1      11.323 -15.558  45.112  1.00  0.00     0.301 S 
HETATM   19  O4  UNL     1      11.182 -16.913  44.432  1.00  0.00    -0.200 OA
HETATM   20  O5  UNL     1      10.074 -15.395  45.961  1.00  0.00    -0.200 OA
BRANCH  18  21
HETATM   21  N8  UNL     1      11.228 -14.377  43.883  1.00  0.00    -0.085 N 
HETATM   22  N9  UNL     1      10.743 -14.531  42.652  1.00  0.00    -0.196 N 
HETATM   23  N10 UNL     1      10.828 -13.410  41.975  1.00  0.00    -0.114 N 
ATOM     24  H9  UNL     1      10.358 -15.402  42.286  1.00  0.00     0.212 HD
HETATM   25  C12 UNL     1      11.383 -12.509  42.791  1.00  0.00     0.708 A 
ATOM     26  H10 UNL     1      10.528 -13.257  41.012  1.00  0.00     0.207 HD
HETATM   27  N12 UNL     1      11.622 -13.117  43.959  1.00  0.00    -0.099 N 
ATOM     28  H12 UNL     1      12.043 -12.678  44.778  1.00  0.00     0.208 HD
BRANCH  25  29
HETATM   29  N11 UNL     1      11.610 -11.288  42.436  1.00  0.00    -0.232 N 
ATOM     30 2H11 UNL     1      12.489 -10.839  42.179  1.00  0.00     0.174 HD
ATOM     31 1H11 UNL     1      10.876 -10.584  42.371  1.00  0.00     0.174 HD
ENDBRANCH  25  29
ENDBRANCH  18  21
ENDBRANCH  13  18
ENDBRANCH  10  13
BRANCH   6  32
HETATM   32  C5  UNL     1      14.884 -13.536  47.530  1.00  0.00     0.098 A 
HETATM   33  C6  UNL     1      14.011 -12.514  47.166  1.00  0.00     0.177 A 
HETATM   34  N3  UNL     1      13.469 -12.013  48.290  1.00  0.00    -0.236 N 
HETATM   35  O2  UNL     1      13.969 -12.676  49.276  1.00  0.00    -0.217 OA
ATOM     36  H3  UNL     1      12.791 -11.253  48.350  1.00  0.00     0.197 HD
HETATM   37  C7  UNL     1      14.815 -13.596  48.900  1.00  0.00     0.181 A 
BRANCH  33  38
HETATM   38  O1  UNL     1      13.747 -12.087  45.877  1.00  0.00    -0.344 OA
ATOM     39  H1  UNL     1      14.119 -11.323  45.453  1.00  0.00     0.219 HD
ENDBRANCH  33  38
BRANCH  37  40
HETATM   40  N4  UNL     1      15.474 -14.423  49.662  1.00  0.00    -0.377 N 
ATOM     41  H42 UNL     1      16.358 -14.252  50.143  1.00  0.00     0.158 HD
ATOM     42  H41 UNL     1      15.193 -15.376  49.892  1.00  0.00     0.158 HD
ENDBRANCH  37  40
ENDBRANCH   6  32
BRANCH   1  43
HETATM   43  N1  UNL     1      14.931 -18.345  43.011  1.00  0.00    -0.234 N 
ATOM     44  H12 UNL     1      15.458 -19.212  43.119  1.00  0.00     0.174 HD
ATOM     45  H11 UNL     1      14.315 -18.255  42.203  1.00  0.00     0.174 HD
ENDBRANCH   1  43
BRANCH   9  46
HETATM   46  C8  UNL     1      18.778 -15.291  45.138  1.00  0.00     0.177 C 
BRANCH  46  47
HETATM   47  C9  UNL     1      19.164 -14.299  44.072  1.00  0.00     0.185 C 
BRANCH  47  48
HETATM   48  O3  UNL     1      18.441 -13.129  44.318  1.00  0.00    -0.399 OA
ATOM     49  H3  UNL     1      18.701 -12.496  43.660  1.00  0.00     0.209 HD
ENDBRANCH  47  48
ENDBRANCH  46  47
ENDBRANCH   9  46
TORSDOF 12
ENDMDL
MODEL 4
REMARK VINA RESULT: -6.465170218      3.739      7.308
REMARK  12 active torsions:
REMARK  status: ('A' for Active; 'I' for Inactive)
REMARK    1  A    between atoms: N1_1  and  C1_4 
REMARK    2  A    between atoms: C4_9  and  C5_10 
REMARK    3  A    between atoms: C6_11  and  O1_12 
REMARK    4  A    between atoms: C7_17  and  N4_18 
REMARK    5  A    between atoms: N6_23  and  C8_24 
REMARK    6  A    between atoms: C8_24  and  C9_25 
REMARK    7  A    between atoms: C9_25  and  O3_26 
REMARK    8  A    between atoms: C10_28  and  C11_29 
REMARK    9  A    between atoms: C11_29  and  N7_30 
REMARK   10  A    between atoms: C11_29  and  S1_34 
REMARK   11  A    between atoms: S1_34  and  N8_37 
REMARK   12  A    between atoms: C12_42  and  N11_43 
ROOT
HETATM    1  C1  UNL     1      15.839 -13.169  51.127  1.00  0.00     0.677 A 
HETATM    2  N2  UNL     1      15.603 -11.961  51.643  1.00  0.00    -0.174 N 
ATOM      3  H2  UNL     1      15.037 -11.292  51.122  1.00  0.00     0.186 HD
HETATM    4  C2  UNL     1      16.100 -11.619  52.836  1.00  0.00     0.152 A 
HETATM    5  C3  UNL     1      16.890 -12.518  53.589  1.00  0.00     0.066 A 
HETATM    6  C4  UNL     1      17.258 -11.888  54.743  1.00  0.00     0.083 A 
HETATM    7  N5  UNL     1      16.699 -10.637  54.684  1.00  0.00    -0.295 N 
ATOM      8  H5  UNL     1      16.791  -9.921  55.405  1.00  0.00     0.187 HD
HETATM    9  N6  UNL     1      16.030 -10.496  53.571  1.00  0.00    -0.273 N 
HETATM   10  C10 UNL     1      17.132 -13.766  53.056  1.00  0.00     0.090 A 
HETATM   11  N13 UNL     1      16.581 -14.020  51.832  1.00  0.00    -0.192 N 
ATOM     12  H13 UNL     1      16.752 -14.939  51.425  1.00  0.00     0.184 HD
ENDROOT
BRANCH  10  13
HETATM   13  C11 UNL     1      17.950 -14.755  53.706  1.00  0.00     0.379 C 
BRANCH  13  14
HETATM   14  N7  UNL     1      18.802 -15.244  52.503  1.00  0.00    -0.054 N 
ATOM     15  H73 UNL     1      18.337 -15.888  51.864  1.00  0.00     0.276 HD
ATOM     16  H72 UNL     1      19.000 -14.545  51.787  1.00  0.00     0.276 HD
ATOM     17  H71 UNL     1      19.615 -15.616  52.994  1.00  0.00     0.276 HD
ENDBRANCH  13  14
BRANCH  13  18
HETATM   18  S1  UNL     1      17.125 -16.233  54.163  1.00  0.00     0.301 S 
HETATM   19  O4  UNL     1      16.411 -16.849  52.967  1.00  0.00    -0.200 OA
HETATM   20  O5  UNL     1      18.121 -17.282  54.628  1.00  0.00    -0.200 OA
BRANCH  18  21
HETATM   21  N8  UNL     1      15.966 -16.084  55.407  1.00  0.00    -0.085 N 
HETATM   22  N9  UNL     1      16.113 -16.413  56.690  1.00  0.00    -0.196 N 
HETATM   23  N10 UNL     1      15.015 -16.163  57.363  1.00  0.00    -0.114 N 
ATOM     24  H9  UNL     1      16.963 -16.806  57.094  1.00  0.00     0.212 HD
HETATM   25  C12 UNL     1      14.136 -15.659  56.492  1.00  0.00     0.708 A 
ATOM     26  H10 UNL     1      14.862 -16.322  58.359  1.00  0.00     0.207 HD
HETATM   27  N12 UNL     1      14.735 -15.616  55.295  1.00  0.00    -0.099 N 
ATOM     28  H12 UNL     1      14.308 -15.277  54.433  1.00  0.00     0.208 HD
BRANCH  25  29
HETATM   29  N11 UNL     1      12.942 -15.300  56.828  1.00  0.00    -0.232 N 
ATOM     30 2H11 UNL     1      12.361 -15.620  57.603  1.00  0.00     0.174 HD
ATOM     31 1H11 UNL     1      12.406 -14.603  56.311  1.00  0.00     0.174 HD
ENDBRANCH  25  29
ENDBRANCH  18  21
ENDBRANCH  13  18
ENDBRANCH  10  13
BRANCH   6  32
HETATM   32  C5  UNL     1      18.073 -12.352  55.851  1.00  0.00     0.098 A 
HETATM   33  C6  UNL     1      17.591 -13.041  56.961  1.00  0.00     0.177 A 
HETATM   34  N3  UNL     1      18.639 -13.348  57.746  1.00  0.00    -0.236 N 
HETATM   35  O2  UNL     1      19.692 -12.883  57.164  1.00  0.00    -0.217 OA
ATOM     36  H3  UNL     1      18.607 -13.852  58.632  1.00  0.00     0.197 HD
HETATM   37  C7  UNL     1      19.432 -12.280  56.035  1.00  0.00     0.181 A 
BRANCH  33  38
HETATM   38  O1  UNL     1      16.268 -13.356  57.215  1.00  0.00    -0.344 OA
ATOM     39  H1  UNL     1      15.743 -13.029  57.935  1.00  0.00     0.219 HD
ENDBRANCH  33  38
BRANCH  37  40
HETATM   40  N4  UNL     1      20.284 -11.718  55.225  1.00  0.00    -0.377 N 
ATOM     41  H42 UNL     1      20.977 -12.180  54.637  1.00  0.00     0.158 HD
ATOM     42  H41 UNL     1      20.377 -10.715  55.059  1.00  0.00     0.158 HD
ENDBRANCH  37  40
ENDBRANCH   6  32
BRANCH   1  43
HETATM   43  N1  UNL     1      15.354 -13.515  49.952  1.00  0.00    -0.234 N 
ATOM     44  H12 UNL     1      14.463 -13.141  49.626  1.00  0.00     0.174 HD
ATOM     45  H11 UNL     1      15.855 -14.162  49.344  1.00  0.00     0.174 HD
ENDBRANCH   1  43
BRANCH   9  46
HETATM   46  C8  UNL     1      15.323  -9.275  53.218  1.00  0.00     0.177 C 
BRANCH  46  47
HETATM   47  C9  UNL     1      15.253  -9.080  51.726  1.00  0.00     0.185 C 
BRANCH  47  48
HETATM   48  O3  UNL     1      13.944  -8.695  51.424  1.00  0.00    -0.399 OA
ATOM     49  H3  UNL     1      13.993  -7.846  51.001  1.00  0.00     0.209 HD
ENDBRANCH  47  48
ENDBRANCH  46  47
ENDBRANCH   9  46
TORSDOF 12
ENDMDL
MODEL 5
REMARK VINA RESULT: -6.288920106      1.324      1.860
REMARK  12 active torsions:
REMARK  status: ('A' for Active; 'I' for Inactive)
REMARK    1  A    between atoms: N1_1  and  C1_4 
REMARK    2  A    between atoms: C4_9  and  C5_10 
REMARK    3  A    between atoms: C6_11  and  O1_12 
REMARK    4  A    between atoms: C7_17  and  N4_18 
REMARK    5  A    between atoms: N6_23  and  C8_24 
REMARK    6  A    between atoms: C8_24  and  C9_25 
REMARK    7  A    between atoms: C9_25  and  O3_26 
REMARK    8  A    between atoms: C10_28  and  C11_29 
REMARK    9  A    between atoms: C11_29  and  N7_30 
REMARK   10  A    between atoms: C11_29  and  S1_34 
REMARK   11  A    between atoms: S1_34  and  N8_37 
REMARK   12  A    between atoms: C12_42  and  N11_43 
ROOT
HETATM    1  C1  UNL     1      16.813 -13.558  52.612  1.00  0.00     0.677 A 
HETATM    2  N2  UNL     1      16.555 -12.361  52.079  1.00  0.00    -0.174 N 
ATOM      3  H2  UNL     1      16.897 -11.519  52.542  1.00  0.00     0.186 HD
HETATM    4  C2  UNL     1      15.855 -12.254  50.945  1.00  0.00     0.152 A 
HETATM    5  C3  UNL     1      15.363 -13.397  50.275  1.00  0.00     0.066 A 
HETATM    6  C4  UNL     1      14.684 -12.975  49.168  1.00  0.00     0.083 A 
HETATM    7  N5  UNL     1      14.769 -11.607  49.174  1.00  0.00    -0.295 N 
ATOM      8  H5  UNL     1      14.360 -10.992  48.469  1.00  0.00     0.187 HD
HETATM    9  N6  UNL     1      15.452 -11.203  50.212  1.00  0.00    -0.273 N 
HETATM   10  C10 UNL     1      15.630 -14.633  50.825  1.00  0.00     0.090 A 
HETATM   11  N13 UNL     1      16.353 -14.637  51.984  1.00  0.00    -0.192 N 
ATOM     12  H13 UNL     1      16.558 -15.544  52.403  1.00  0.00     0.184 HD
ENDROOT
BRANCH  10  13
HETATM   13  C11 UNL     1      15.153 -15.867  50.259  1.00  0.00     0.379 C 
BRANCH  13  14
HETATM   14  N7  UNL     1      15.032 -16.732  51.544  1.00  0.00    -0.054 N 
ATOM     15  H73 UNL     1      14.546 -17.622  51.433  1.00  0.00     0.276 HD
ATOM     16  H72 UNL     1      15.899 -17.151  51.879  1.00  0.00     0.276 HD
ATOM     17  H71 UNL     1      14.591 -16.062  52.174  1.00  0.00     0.276 HD
ENDBRANCH  13  14
BRANCH  13  18
HETATM   18  S1  UNL     1      16.335 -16.782  49.342  1.00  0.00     0.301 S 
HETATM   19  O4  UNL     1      17.718 -16.155  49.461  1.00  0.00    -0.200 OA
HETATM   20  O5  UNL     1      16.475 -18.188  49.898  1.00  0.00    -0.200 OA
BRANCH  18  21
HETATM   21  N8  UNL     1      16.012 -16.953  47.674  1.00  0.00    -0.085 N 
HETATM   22  N9  UNL     1      14.873 -17.354  47.111  1.00  0.00    -0.196 N 
HETATM   23  N10 UNL     1      14.981 -17.369  45.803  1.00  0.00    -0.114 N 
ATOM     24  H9  UNL     1      14.032 -17.615  47.626  1.00  0.00     0.212 HD
HETATM   25  C12 UNL     1      16.222 -16.966  45.516  1.00  0.00     0.708 A 
ATOM     26  H10 UNL     1      14.257 -17.636  45.136  1.00  0.00     0.207 HD
HETATM   27  N12 UNL     1      16.843 -16.714  46.675  1.00  0.00    -0.099 N 
ATOM     28  H12 UNL     1      17.805 -16.389  46.771  1.00  0.00     0.208 HD
BRANCH  25  29
HETATM   29  N11 UNL     1      16.663 -16.863  44.306  1.00  0.00    -0.232 N 
ATOM     30 2H11 UNL     1      16.423 -16.187  43.581  1.00  0.00     0.174 HD
ATOM     31 1H11 UNL     1      17.356 -17.501  43.913  1.00  0.00     0.174 HD
ENDBRANCH  25  29
ENDBRANCH  18  21
ENDBRANCH  13  18
ENDBRANCH  10  13
BRANCH   6  32
HETATM   32  C5  UNL     1      13.980 -13.731  48.148  1.00  0.00     0.098 A 
HETATM   33  C6  UNL     1      12.750 -14.358  48.329  1.00  0.00     0.177 A 
HETATM   34  N3  UNL     1      12.391 -14.912  47.157  1.00  0.00    -0.236 N 
HETATM   35  O2  UNL     1      13.329 -14.647  46.313  1.00  0.00    -0.217 OA
ATOM     36  H3  UNL     1      11.538 -15.440  46.972  1.00  0.00     0.197 HD
HETATM   37  C7  UNL     1      14.304 -13.949  46.831  1.00  0.00     0.181 A 
BRANCH  33  38
HETATM   38  O1  UNL     1      12.023 -14.405  49.505  1.00  0.00    -0.344 OA
ATOM     39  H1  UNL     1      11.091 -14.246  49.594  1.00  0.00     0.219 HD
ENDBRANCH  33  38
BRANCH  37  40
HETATM   40  N4  UNL     1      15.381 -13.528  46.231  1.00  0.00    -0.377 N 
ATOM     41  H42 UNL     1      15.486 -12.686  45.665  1.00  0.00     0.158 HD
ATOM     42  H41 UNL     1      16.291 -13.990  46.243  1.00  0.00     0.158 HD
ENDBRANCH  37  40
ENDBRANCH   6  32
BRANCH   1  43
HETATM   43  N1  UNL     1      17.502 -13.673  53.728  1.00  0.00    -0.234 N 
ATOM     44  H12 UNL     1      17.092 -13.407  54.624  1.00  0.00     0.174 HD
ATOM     45  H11 UNL     1      18.457 -14.029  53.725  1.00  0.00     0.174 HD
ENDBRANCH   1  43
BRANCH   9  46
HETATM   46  C8  UNL     1      15.714  -9.801  50.495  1.00  0.00     0.177 C 
BRANCH  46  47
HETATM   47  C9  UNL     1      15.035  -9.349  51.762  1.00  0.00     0.185 C 
BRANCH  47  48
HETATM   48  O3  UNL     1      13.897  -8.631  51.384  1.00  0.00    -0.399 OA
ATOM     49  H3  UNL     1      13.775  -7.943  52.026  1.00  0.00     0.209 HD
ENDBRANCH  47  48
ENDBRANCH  46  47
ENDBRANCH   9  46
TORSDOF 12
ENDMDL
