MODEL 1
REMARK VINA RESULT: -9.309008200      0.000      0.000
REMARK  14 active torsions:
REMARK  status: ('A' for Active; 'I' for Inactive)
REMARK    1  A    between atoms: C2_2  and  C3_3 
REMARK    2  A    between atoms: C4_4  and  C5_5 
REMARK    3  A    between atoms: C5_5  and  N1_6 
REMARK       I    between atoms: N1_6  and  C6_8 
REMARK    4  A    between atoms: C6_8  and  C7_10 
REMARK    5  A    between atoms: C7_10  and  N2_11 
REMARK    6  A    between atoms: C7_10  and  C13_21 
REMARK    7  A    between atoms: N2_11  and  C8_13 
REMARK    8  A    between atoms: C13_21  and  N4_22 
REMARK    9  A    between atoms: C13_21  and  C32_46 
REMARK       I    between atoms: N4_22  and  C14_24 
REMARK   10  A    between atoms: C14_24  and  C15_26 
REMARK   11  A    between atoms: N5_30  and  C19_31 
REMARK   12  A    between atoms: C19_31  and  O3_32 
REMARK   13  A    between atoms: C19_31  and  C20_34 
REMARK   14  A    between atoms: C26_40  and  C27_41 
ROOT
HETATM    1  C13 UNL     1     -21.928 -35.675  20.964  1.00  0.00     0.119 C 
ENDROOT
BRANCH   1   2
HETATM    2  C7  UNL     1     -21.822 -34.299  21.546  1.00  0.00     0.198 C 
BRANCH   2   3
HETATM    3  C6  UNL     1     -20.919 -33.379  20.871  1.00  0.00     0.243 C 
HETATM    4  N1  UNL     1     -20.061 -32.483  21.560  1.00  0.00    -0.349 N 
ATOM      5  H1  UNL     1     -20.088 -32.495  22.579  1.00  0.00     0.163 HD
HETATM    6  O1  UNL     1     -20.874 -33.353  19.620  1.00  0.00    -0.271 OA
BRANCH   4   7
HETATM    7  C5  UNL     1     -19.165 -31.566  20.933  1.00  0.00     0.217 C 
BRANCH   7   8
HETATM    8  C4  UNL     1     -17.782 -32.038  20.914  1.00  0.00    -0.087 C 
HETATM    9  C3  UNL     1     -16.637 -32.436  20.914  1.00  0.00    -0.105 C 
BRANCH   9  10
HETATM   10  C2  UNL     1     -15.246 -32.931  20.931  1.00  0.00     0.089 C 
HETATM   11  C1  UNL     1     -15.271 -34.398  21.302  1.00  0.00     0.018 C 
ENDBRANCH   9  10
ENDBRANCH   7   8
ENDBRANCH   4   7
ENDBRANCH   2   3
BRANCH   2  12
HETATM   12  N2  UNL     1     -23.173 -33.776  21.606  1.00  0.00    -0.361 N 
ATOM     13  H2  UNL     1     -23.898 -34.266  21.082  1.00  0.00     0.162 HD
BRANCH  12  14
HETATM   14  C8  UNL     1     -23.518 -32.725  22.283  1.00  0.00     0.101 A 
HETATM   15  C9  UNL     1     -23.500 -31.482  21.698  1.00  0.00     0.050 A 
HETATM   16  C10 UNL     1     -23.870 -30.389  22.445  1.00  0.00     0.029 A 
HETATM   17  C11 UNL     1     -24.255 -30.522  23.763  1.00  0.00     0.049 A 
HETATM   18 CL1  UNL     1     -24.720 -29.084  24.670  1.00  0.00    -0.083 Cl
HETATM   19  C12 UNL     1     -24.264 -31.781  24.323  1.00  0.00     0.113 A 
HETATM   20  N3  UNL     1     -23.898 -32.819  23.566  1.00  0.00    -0.351 N 
ATOM     21  H3  UNL     1     -23.908 -33.746  23.992  1.00  0.00     0.166 HD
ENDBRANCH  12  14
ENDBRANCH   2  12
ENDBRANCH   1   2
BRANCH   1  22
HETATM   22  N4  UNL     1     -21.214 -36.645  21.787  1.00  0.00    -0.353 N 
HETATM   23  C14 UNL     1     -19.926 -37.122  21.427  1.00  0.00     0.226 C 
HETATM   24  O2  UNL     1     -19.423 -36.685  20.381  1.00  0.00    -0.273 OA
ATOM     25  H4  UNL     1     -21.651 -36.989  22.643  1.00  0.00     0.163 HD
BRANCH  23  26
HETATM   26  C15 UNL     1     -19.176 -38.111  22.251  1.00  0.00     0.041 C 
HETATM   27  C16 UNL     1     -19.865 -39.456  21.909  1.00  0.00     0.025 C 
HETATM   28  C17 UNL     1     -19.456 -37.813  23.663  1.00  0.00     0.039 C 
HETATM   29  C18 UNL     1     -18.282 -37.715  24.573  1.00  0.00     0.127 C 
HETATM   30  N5  UNL     1     -17.265 -36.915  23.851  1.00  0.00    -0.356 N 
HETATM   31  C26 UNL     1     -16.716 -37.556  22.721  1.00  0.00     0.095 C 
HETATM   32  C31 UNL     1     -17.774 -38.190  21.820  1.00  0.00     0.045 C 
BRANCH  30  33
HETATM   33  C19 UNL     1     -17.011 -35.631  24.338  1.00  0.00     0.148 C 
BRANCH  33  34
HETATM   34  O3  UNL     1     -17.898 -34.764  23.845  1.00  0.00    -0.346 OA
ATOM     35  H3  UNL     1     -17.964 -34.002  24.409  1.00  0.00     0.219 HD
ENDBRANCH  33  34
BRANCH  33  36
HETATM   36  C20 UNL     1     -16.060 -35.022  25.210  1.00  0.00     0.015 A 
HETATM   37  C21 UNL     1     -15.367 -33.875  24.744  1.00  0.00     0.016 A 
HETATM   38  C22 UNL     1     -14.440 -33.210  25.501  1.00  0.00     0.001 A 
HETATM   39  C23 UNL     1     -14.138 -33.630  26.766  1.00  0.00     0.000 A 
HETATM   40  C24 UNL     1     -14.768 -34.718  27.264  1.00  0.00     0.001 A 
HETATM   41  C25 UNL     1     -15.699 -35.373  26.481  1.00  0.00     0.016 A 
ENDBRANCH  33  36
ENDBRANCH  30  33
BRANCH  31  42
HETATM   42  C27 UNL     1     -15.656 -38.590  23.037  1.00  0.00    -0.031 C 
HETATM   43  C28 UNL     1     -14.866 -38.331  24.280  1.00  0.00     0.016 C 
HETATM   44  C29 UNL     1     -16.075 -40.009  23.034  1.00  0.00     0.016 C 
HETATM   45  C30 UNL     1     -14.587 -38.494  21.888  1.00  0.00     0.016 C 
ENDBRANCH  31  42
ENDBRANCH  23  26
ENDBRANCH   1  22
BRANCH   1  46
HETATM   46  C32 UNL     1     -23.294 -36.203  20.749  1.00  0.00     0.003 C 
HETATM   47  C33 UNL     1     -23.853 -35.955  19.365  1.00  0.00     0.011 C 
HETATM   48  C34 UNL     1     -23.542 -37.604  21.226  1.00  0.00     0.011 C 
ENDBRANCH   1  46
TORSDOF 14
ENDMDL
MODEL 2
REMARK VINA RESULT: -8.855257619      5.736      9.507
REMARK  14 active torsions:
REMARK  status: ('A' for Active; 'I' for Inactive)
REMARK    1  A    between atoms: C2_2  and  C3_3 
REMARK    2  A    between atoms: C4_4  and  C5_5 
REMARK    3  A    between atoms: C5_5  and  N1_6 
REMARK       I    between atoms: N1_6  and  C6_8 
REMARK    4  A    between atoms: C6_8  and  C7_10 
REMARK    5  A    between atoms: C7_10  and  N2_11 
REMARK    6  A    between atoms: C7_10  and  C13_21 
REMARK    7  A    between atoms: N2_11  and  C8_13 
REMARK    8  A    between atoms: C13_21  and  N4_22 
REMARK    9  A    between atoms: C13_21  and  C32_46 
REMARK       I    between atoms: N4_22  and  C14_24 
REMARK   10  A    between atoms: C14_24  and  C15_26 
REMARK   11  A    between atoms: N5_30  and  C19_31 
REMARK   12  A    between atoms: C19_31  and  O3_32 
REMARK   13  A    between atoms: C19_31  and  C20_34 
REMARK   14  A    between atoms: C26_40  and  C27_41 
ROOT
HETATM    1  C13 UNL     1     -21.237 -33.560  18.409  1.00  0.00     0.119 C 
ENDROOT
BRANCH   1   2
HETATM    2  C7  UNL     1     -20.751 -32.838  19.629  1.00  0.00     0.198 C 
BRANCH   2   3
HETATM    3  C6  UNL     1     -19.386 -32.338  19.584  1.00  0.00     0.243 C 
HETATM    4  N1  UNL     1     -18.309 -32.949  20.277  1.00  0.00    -0.349 N 
ATOM      5  H1  UNL     1     -18.516 -33.780  20.830  1.00  0.00     0.163 HD
HETATM    6  O1  UNL     1     -19.115 -31.318  18.908  1.00  0.00    -0.271 OA
BRANCH   4   7
HETATM    7  C5  UNL     1     -16.959 -32.486  20.258  1.00  0.00     0.217 C 
BRANCH   7   8
HETATM    8  C4  UNL     1     -16.129 -33.094  21.297  1.00  0.00    -0.087 C 
HETATM    9  C3  UNL     1     -15.444 -33.584  22.168  1.00  0.00    -0.105 C 
BRANCH   9  10
HETATM   10  C2  UNL     1     -14.616 -34.167  23.243  1.00  0.00     0.089 C 
HETATM   11  C1  UNL     1     -15.158 -33.685  24.571  1.00  0.00     0.018 C 
ENDBRANCH   9  10
ENDBRANCH   7   8
ENDBRANCH   4   7
ENDBRANCH   2   3
BRANCH   2  12
HETATM   12  N2  UNL     1     -21.704 -31.774  19.879  1.00  0.00    -0.361 N 
ATOM     13  H2  UNL     1     -21.929 -31.144  19.108  1.00  0.00     0.162 HD
BRANCH  12  14
HETATM   14  C8  UNL     1     -22.287 -31.572  21.020  1.00  0.00     0.101 A 
HETATM   15  C9  UNL     1     -21.817 -30.613  21.883  1.00  0.00     0.050 A 
HETATM   16  C10 UNL     1     -22.457 -30.425  23.085  1.00  0.00     0.029 A 
HETATM   17  C11 UNL     1     -23.558 -31.181  23.432  1.00  0.00     0.049 A 
HETATM   18 CL1  UNL     1     -24.338 -30.896  24.986  1.00  0.00    -0.083 Cl
HETATM   19  C12 UNL     1     -24.009 -32.136  22.546  1.00  0.00     0.113 A 
HETATM   20  N3  UNL     1     -23.359 -32.289  21.388  1.00  0.00    -0.351 N 
ATOM     21  H3  UNL     1     -23.701 -32.998  20.741  1.00  0.00     0.166 HD
ENDBRANCH  12  14
ENDBRANCH   2  12
ENDBRANCH   1   2
BRANCH   1  22
HETATM   22  N4  UNL     1     -20.206 -33.594  17.379  1.00  0.00    -0.353 N 
HETATM   23  C14 UNL     1     -20.274 -32.763  16.230  1.00  0.00     0.226 C 
HETATM   24  O2  UNL     1     -21.246 -32.001  16.128  1.00  0.00    -0.273 OA
ATOM     25  H4  UNL     1     -19.415 -34.231  17.487  1.00  0.00     0.163 HD
BRANCH  23  26
HETATM   26  C15 UNL     1     -19.232 -32.778  15.164  1.00  0.00     0.041 C 
HETATM   27  C16 UNL     1     -17.908 -32.644  15.958  1.00  0.00     0.025 C 
HETATM   28  C17 UNL     1     -19.399 -31.555  14.365  1.00  0.00     0.039 C 
HETATM   29  C18 UNL     1     -19.442 -31.722  12.886  1.00  0.00     0.127 C 
HETATM   30  N5  UNL     1     -20.324 -32.884  12.626  1.00  0.00    -0.356 N 
HETATM   31  C26 UNL     1     -19.796 -34.121  13.052  1.00  0.00     0.095 C 
HETATM   32  C31 UNL     1     -19.221 -34.071  14.467  1.00  0.00     0.045 C 
BRANCH  30  33
HETATM   33  C19 UNL     1     -21.565 -32.615  12.045  1.00  0.00     0.148 C 
BRANCH  33  34
HETATM   34  O3  UNL     1     -21.836 -31.310  12.112  1.00  0.00    -0.346 OA
ATOM     35  H3  UNL     1     -21.257 -30.823  11.537  1.00  0.00     0.219 HD
ENDBRANCH  33  34
BRANCH  33  36
HETATM   36  C20 UNL     1     -22.599 -33.369  11.413  1.00  0.00     0.015 A 
HETATM   37  C21 UNL     1     -23.945 -33.046  11.725  1.00  0.00     0.016 A 
HETATM   38  C22 UNL     1     -25.012 -33.700  11.171  1.00  0.00     0.001 A 
HETATM   39  C23 UNL     1     -24.823 -34.712  10.272  1.00  0.00     0.000 A 
HETATM   40  C24 UNL     1     -23.560 -35.063   9.936  1.00  0.00     0.001 A 
HETATM   41  C25 UNL     1     -22.499 -34.389  10.509  1.00  0.00     0.016 A 
ENDBRANCH  33  36
ENDBRANCH  30  33
BRANCH  31  42
HETATM   42  C27 UNL     1     -18.762 -34.718  12.123  1.00  0.00    -0.031 C 
HETATM   43  C28 UNL     1     -18.599 -34.010  10.815  1.00  0.00     0.016 C 
HETATM   44  C29 UNL     1     -17.418 -34.978  12.686  1.00  0.00     0.016 C 
HETATM   45  C30 UNL     1     -19.299 -36.138  11.715  1.00  0.00     0.016 C 
ENDBRANCH  31  42
ENDBRANCH  23  26
ENDBRANCH   1  22
BRANCH   1  46
HETATM   46  C32 UNL     1     -21.711 -34.949  18.602  1.00  0.00     0.003 C 
HETATM   47  C33 UNL     1     -20.990 -35.981  17.763  1.00  0.00     0.011 C 
HETATM   48  C34 UNL     1     -21.895 -35.391  20.024  1.00  0.00     0.011 C 
ENDBRANCH   1  46
TORSDOF 14
ENDMDL
MODEL 3
REMARK VINA RESULT: -8.775204758      3.584      7.807
REMARK  14 active torsions:
REMARK  status: ('A' for Active; 'I' for Inactive)
REMARK    1  A    between atoms: C2_2  and  C3_3 
REMARK    2  A    between atoms: C4_4  and  C5_5 
REMARK    3  A    between atoms: C5_5  and  N1_6 
REMARK       I    between atoms: N1_6  and  C6_8 
REMARK    4  A    between atoms: C6_8  and  C7_10 
REMARK    5  A    between atoms: C7_10  and  N2_11 
REMARK    6  A    between atoms: C7_10  and  C13_21 
REMARK    7  A    between atoms: N2_11  and  C8_13 
REMARK    8  A    between atoms: C13_21  and  N4_22 
REMARK    9  A    between atoms: C13_21  and  C32_46 
REMARK       I    between atoms: N4_22  and  C14_24 
REMARK   10  A    between atoms: C14_24  and  C15_26 
REMARK   11  A    between atoms: N5_30  and  C19_31 
REMARK   12  A    between atoms: C19_31  and  O3_32 
REMARK   13  A    between atoms: C19_31  and  C20_34 
REMARK   14  A    between atoms: C26_40  and  C27_41 
ROOT
HETATM    1  C13 UNL     1     -20.046 -33.054  19.657  1.00  0.00     0.119 C 
ENDROOT
BRANCH   1   2
HETATM    2  C7  UNL     1     -20.439 -31.921  20.556  1.00  0.00     0.198 C 
BRANCH   2   3
HETATM    3  C6  UNL     1     -21.539 -32.174  21.473  1.00  0.00     0.243 C 
HETATM    4  N1  UNL     1     -22.853 -31.679  21.269  1.00  0.00    -0.349 N 
ATOM      5  H1  UNL     1     -23.022 -31.120  20.432  1.00  0.00     0.163 HD
HETATM    6  O1  UNL     1     -21.350 -32.860  22.504  1.00  0.00    -0.271 OA
BRANCH   4   7
HETATM    7  C5  UNL     1     -23.957 -31.904  22.146  1.00  0.00     0.217 C 
BRANCH   7   8
HETATM    8  C4  UNL     1     -24.129 -30.843  23.136  1.00  0.00    -0.087 C 
HETATM    9  C3  UNL     1     -24.282 -29.975  23.967  1.00  0.00    -0.105 C 
BRANCH   9  10
HETATM   10  C2  UNL     1     -24.475 -28.930  24.992  1.00  0.00     0.089 C 
HETATM   11  C1  UNL     1     -23.160 -28.204  25.182  1.00  0.00     0.018 C 
ENDBRANCH   9  10
ENDBRANCH   7   8
ENDBRANCH   4   7
ENDBRANCH   2   3
BRANCH   2  12
HETATM   12  N2  UNL     1     -19.235 -31.524  21.260  1.00  0.00    -0.361 N 
ATOM     13  H2  UNL     1     -19.138 -30.544  21.525  1.00  0.00     0.162 HD
BRANCH  12  14
HETATM   14  C8  UNL     1     -18.274 -32.337  21.576  1.00  0.00     0.101 A 
HETATM   15  C9  UNL     1     -17.055 -32.252  20.949  1.00  0.00     0.050 A 
HETATM   16  C10 UNL     1     -16.059 -33.130  21.305  1.00  0.00     0.029 A 
HETATM   17  C11 UNL     1     -16.266 -34.087  22.277  1.00  0.00     0.049 A 
HETATM   18 CL1  UNL     1     -14.951 -35.184  22.693  1.00  0.00    -0.083 Cl
HETATM   19  C12 UNL     1     -17.498 -34.149  22.890  1.00  0.00     0.113 A 
HETATM   20  N3  UNL     1     -18.441 -33.279  22.515  1.00  0.00    -0.351 N 
ATOM     21  H3  UNL     1     -19.350 -33.335  22.976  1.00  0.00     0.166 HD
ENDBRANCH  12  14
ENDBRANCH   2  12
ENDBRANCH   1   2
BRANCH   1  22
HETATM   22  N4  UNL     1     -20.909 -34.210  19.871  1.00  0.00    -0.353 N 
HETATM   23  C14 UNL     1     -20.398 -35.437  20.371  1.00  0.00     0.226 C 
HETATM   24  O2  UNL     1     -19.186 -35.496  20.622  1.00  0.00    -0.273 OA
ATOM     25  H4  UNL     1     -21.904 -34.135  19.655  1.00  0.00     0.163 HD
BRANCH  23  26
HETATM   26  C15 UNL     1     -21.259 -36.633  20.598  1.00  0.00     0.041 C 
HETATM   27  C16 UNL     1     -21.615 -36.534  22.103  1.00  0.00     0.025 C 
HETATM   28  C17 UNL     1     -20.417 -37.824  20.417  1.00  0.00     0.039 C 
HETATM   29  C18 UNL     1     -20.951 -38.893  19.527  1.00  0.00     0.127 C 
HETATM   30  N5  UNL     1     -21.499 -38.203  18.336  1.00  0.00    -0.356 N 
HETATM   31  C26 UNL     1     -22.647 -37.424  18.591  1.00  0.00     0.095 C 
HETATM   32  C31 UNL     1     -22.503 -36.533  19.824  1.00  0.00     0.045 C 
BRANCH  30  33
HETATM   33  C19 UNL     1     -20.801 -38.366  17.137  1.00  0.00     0.148 C 
BRANCH  33  34
HETATM   34  O3  UNL     1     -20.832 -39.645  16.753  1.00  0.00    -0.346 OA
ATOM     35  H3  UNL     1     -20.510 -39.730  15.863  1.00  0.00     0.219 HD
ENDBRANCH  33  34
BRANCH  33  36
HETATM   36  C20 UNL     1     -20.076 -37.530  16.237  1.00  0.00     0.015 A 
HETATM   37  C21 UNL     1     -20.209 -36.124  16.381  1.00  0.00     0.016 A 
HETATM   38  C22 UNL     1     -19.553 -35.231  15.577  1.00  0.00     0.001 A 
HETATM   39  C23 UNL     1     -18.723 -35.664  14.582  1.00  0.00     0.000 A 
HETATM   40  C24 UNL     1     -18.557 -36.994  14.398  1.00  0.00     0.001 A 
HETATM   41  C25 UNL     1     -19.229 -37.876  15.222  1.00  0.00     0.016 A 
ENDBRANCH  33  36
ENDBRANCH  30  33
BRANCH  31  42
HETATM   42  C27 UNL     1     -23.932 -38.215  18.706  1.00  0.00    -0.031 C 
HETATM   43  C28 UNL     1     -24.171 -39.201  17.606  1.00  0.00     0.016 C 
HETATM   44  C29 UNL     1     -24.203 -38.880  20.000  1.00  0.00     0.016 C 
HETATM   45  C30 UNL     1     -25.105 -37.181  18.542  1.00  0.00     0.016 C 
ENDBRANCH  31  42
ENDBRANCH  23  26
ENDBRANCH   1  22
BRANCH   1  46
HETATM   46  C32 UNL     1     -20.035 -32.777  18.203  1.00  0.00     0.003 C 
HETATM   47  C33 UNL     1     -21.303 -32.144  17.674  1.00  0.00     0.011 C 
HETATM   48  C34 UNL     1     -18.797 -32.120  17.667  1.00  0.00     0.011 C 
ENDBRANCH   1  46
TORSDOF 14
ENDMDL
MODEL 4
REMARK VINA RESULT: -8.711479709      3.146      6.708
REMARK  14 active torsions:
REMARK  status: ('A' for Active; 'I' for Inactive)
REMARK    1  A    between atoms: C2_2  and  C3_3 
REMARK    2  A    between atoms: C4_4  and  C5_5 
REMARK    3  A    between atoms: C5_5  and  N1_6 
REMARK       I    between atoms: N1_6  and  C6_8 
REMARK    4  A    between atoms: C6_8  and  C7_10 
REMARK    5  A    between atoms: C7_10  and  N2_11 
REMARK    6  A    between atoms: C7_10  and  C13_21 
REMARK    7  A    between atoms: N2_11  and  C8_13 
REMARK    8  A    between atoms: C13_21  and  N4_22 
REMARK    9  A    between atoms: C13_21  and  C32_46 
REMARK       I    between atoms: N4_22  and  C14_24 
REMARK   10  A    between atoms: C14_24  and  C15_26 
REMARK   11  A    between atoms: N5_30  and  C19_31 
REMARK   12  A    between atoms: C19_31  and  O3_32 
REMARK   13  A    between atoms: C19_31  and  C20_34 
REMARK   14  A    between atoms: C26_40  and  C27_41 
ROOT
HETATM    1  C13 UNL     1     -19.309 -33.415  19.761  1.00  0.00     0.119 C 
ENDROOT
BRANCH   1   2
HETATM    2  C7  UNL     1     -19.085 -32.798  21.107  1.00  0.00     0.198 C 
BRANCH   2   3
HETATM    3  C6  UNL     1     -17.700 -32.595  21.503  1.00  0.00     0.243 C 
HETATM    4  N1  UNL     1     -16.957 -33.542  22.255  1.00  0.00    -0.349 N 
ATOM      5  H1  UNL     1     -17.430 -34.405  22.524  1.00  0.00     0.163 HD
HETATM    6  O1  UNL     1     -17.105 -31.541  21.180  1.00  0.00    -0.271 OA
BRANCH   4   7
HETATM    7  C5  UNL     1     -15.599 -33.378  22.663  1.00  0.00     0.217 C 
BRANCH   7   8
HETATM    8  C4  UNL     1     -15.350 -33.842  24.026  1.00  0.00    -0.087 C 
HETATM    9  C3  UNL     1     -15.159 -34.221  25.161  1.00  0.00    -0.105 C 
BRANCH   9  10
HETATM   10  C2  UNL     1     -14.946 -34.681  26.548  1.00  0.00     0.089 C 
HETATM   11  C1  UNL     1     -14.259 -33.572  27.315  1.00  0.00     0.018 C 
ENDBRANCH   9  10
ENDBRANCH   7   8
ENDBRANCH   4   7
ENDBRANCH   2   3
BRANCH   2  12
HETATM   12  N2  UNL     1     -19.832 -31.556  21.116  1.00  0.00    -0.361 N 
ATOM     13  H2  UNL     1     -19.477 -30.781  20.555  1.00  0.00     0.162 HD
BRANCH  12  14
HETATM   14  C8  UNL     1     -20.923 -31.367  21.792  1.00  0.00     0.101 A 
HETATM   15  C9  UNL     1     -21.787 -32.409  22.026  1.00  0.00     0.050 A 
HETATM   16  C10 UNL     1     -22.935 -32.175  22.745  1.00  0.00     0.029 A 
HETATM   17  C11 UNL     1     -23.229 -30.917  23.230  1.00  0.00     0.049 A 
HETATM   18 CL1  UNL     1     -24.716 -30.677  24.146  1.00  0.00    -0.083 Cl
HETATM   19  C12 UNL     1     -22.344 -29.890  22.980  1.00  0.00     0.113 A 
HETATM   20  N3  UNL     1     -21.239 -30.158  22.278  1.00  0.00    -0.351 N 
ATOM     21  H3  UNL     1     -20.592 -29.390  22.099  1.00  0.00     0.166 HD
ENDBRANCH  12  14
ENDBRANCH   2  12
ENDBRANCH   1   2
BRANCH   1  22
HETATM   22  N4  UNL     1     -20.194 -34.569  19.858  1.00  0.00    -0.353 N 
HETATM   23  C14 UNL     1     -19.872 -35.687  20.673  1.00  0.00     0.226 C 
HETATM   24  O2  UNL     1     -18.806 -35.651  21.303  1.00  0.00    -0.273 OA
ATOM     25  H4  UNL     1     -21.066 -34.574  19.328  1.00  0.00     0.163 HD
BRANCH  23  26
HETATM   26  C15 UNL     1     -20.761 -36.878  20.790  1.00  0.00     0.041 C 
HETATM   27  C16 UNL     1     -21.016 -36.985  22.315  1.00  0.00     0.025 C 
HETATM   28  C17 UNL     1     -19.977 -38.055  20.386  1.00  0.00     0.039 C 
HETATM   29  C18 UNL     1     -20.608 -38.971  19.395  1.00  0.00     0.127 C 
HETATM   30  N5  UNL     1     -21.204 -38.105  18.352  1.00  0.00    -0.356 N 
HETATM   31  C26 UNL     1     -22.304 -37.338  18.793  1.00  0.00     0.095 C 
HETATM   32  C31 UNL     1     -22.047 -36.635  20.125  1.00  0.00     0.045 C 
BRANCH  30  33
HETATM   33  C19 UNL     1     -20.592 -38.115  17.097  1.00  0.00     0.148 C 
BRANCH  33  34
HETATM   34  O3  UNL     1     -20.639 -39.341  16.569  1.00  0.00    -0.346 OA
ATOM     35  H3  UNL     1     -21.027 -39.312  15.702  1.00  0.00     0.219 HD
ENDBRANCH  33  34
BRANCH  33  36
HETATM   36  C20 UNL     1     -19.939 -37.168  16.254  1.00  0.00     0.015 A 
HETATM   37  C21 UNL     1     -18.977 -37.650  15.329  1.00  0.00     0.016 A 
HETATM   38  C22 UNL     1     -18.298 -36.829  14.469  1.00  0.00     0.001 A 
HETATM   39  C23 UNL     1     -18.524 -35.482  14.463  1.00  0.00     0.000 A 
HETATM   40  C24 UNL     1     -19.432 -34.965  15.323  1.00  0.00     0.001 A 
HETATM   41  C25 UNL     1     -20.104 -35.813  16.182  1.00  0.00     0.016 A 
ENDBRANCH  33  36
ENDBRANCH  30  33
BRANCH  31  42
HETATM   42  C27 UNL     1     -23.608 -38.101  18.884  1.00  0.00    -0.031 C 
HETATM   43  C28 UNL     1     -23.847 -39.084  17.782  1.00  0.00     0.016 C 
HETATM   44  C29 UNL     1     -23.918 -38.757  20.173  1.00  0.00     0.016 C 
HETATM   45  C30 UNL     1     -24.755 -37.042  18.696  1.00  0.00     0.016 C 
ENDBRANCH  31  42
ENDBRANCH  23  26
ENDBRANCH   1  22
BRANCH   1  46
HETATM   46  C32 UNL     1     -19.855 -32.531  18.706  1.00  0.00     0.003 C 
HETATM   47  C33 UNL     1     -18.844 -32.094  17.668  1.00  0.00     0.011 C 
HETATM   48  C34 UNL     1     -21.157 -32.958  18.096  1.00  0.00     0.011 C 
ENDBRANCH   1  46
TORSDOF 14
ENDMDL
MODEL 5
REMARK VINA RESULT: -8.615642527      2.732      6.059
REMARK  14 active torsions:
REMARK  status: ('A' for Active; 'I' for Inactive)
REMARK    1  A    between atoms: C2_2  and  C3_3 
REMARK    2  A    between atoms: C4_4  and  C5_5 
REMARK    3  A    between atoms: C5_5  and  N1_6 
REMARK       I    between atoms: N1_6  and  C6_8 
REMARK    4  A    between atoms: C6_8  and  C7_10 
REMARK    5  A    between atoms: C7_10  and  N2_11 
REMARK    6  A    between atoms: C7_10  and  C13_21 
REMARK    7  A    between atoms: N2_11  and  C8_13 
REMARK    8  A    between atoms: C13_21  and  N4_22 
REMARK    9  A    between atoms: C13_21  and  C32_46 
REMARK       I    between atoms: N4_22  and  C14_24 
REMARK   10  A    between atoms: C14_24  and  C15_26 
REMARK   11  A    between atoms: N5_30  and  C19_31 
REMARK   12  A    between atoms: C19_31  and  O3_32 
REMARK   13  A    between atoms: C19_31  and  C20_34 
REMARK   14  A    between atoms: C26_40  and  C27_41 
ROOT
HETATM    1  C13 UNL     1     -19.761 -33.159  20.793  1.00  0.00     0.119 C 
ENDROOT
BRANCH   1   2
HETATM    2  C7  UNL     1     -20.677 -34.185  21.386  1.00  0.00     0.198 C 
BRANCH   2   3
HETATM    3  C6  UNL     1     -22.076 -33.808  21.511  1.00  0.00     0.243 C 
HETATM    4  N1  UNL     1     -22.528 -32.756  22.350  1.00  0.00    -0.349 N 
ATOM      5  H1  UNL     1     -21.826 -32.246  22.886  1.00  0.00     0.163 HD
HETATM    6  O1  UNL     1     -22.951 -34.423  20.859  1.00  0.00    -0.271 OA
BRANCH   4   7
HETATM    7  C5  UNL     1     -23.891 -32.359  22.500  1.00  0.00     0.217 C 
BRANCH   7   8
HETATM    8  C4  UNL     1     -24.054 -31.176  23.342  1.00  0.00    -0.087 C 
HETATM    9  C3  UNL     1     -24.207 -30.194  24.036  1.00  0.00    -0.105 C 
BRANCH   9  10
HETATM   10  C2  UNL     1     -24.413 -29.000  24.879  1.00  0.00     0.089 C 
HETATM   11  C1  UNL     1     -23.067 -28.352  25.119  1.00  0.00     0.018 C 
ENDBRANCH   9  10
ENDBRANCH   7   8
ENDBRANCH   4   7
ENDBRANCH   2   3
BRANCH   2  12
HETATM   12  N2  UNL     1     -20.515 -35.385  20.587  1.00  0.00    -0.361 N 
ATOM     13  H2  UNL     1     -20.763 -35.338  19.599  1.00  0.00     0.162 HD
BRANCH  12  14
HETATM   14  C8  UNL     1     -20.075 -36.514  21.051  1.00  0.00     0.101 A 
HETATM   15  C9  UNL     1     -19.790 -37.553  20.200  1.00  0.00     0.050 A 
HETATM   16  C10 UNL     1     -19.327 -38.737  20.724  1.00  0.00     0.029 A 
HETATM   17  C11 UNL     1     -19.145 -38.893  22.083  1.00  0.00     0.049 A 
HETATM   18 CL1  UNL     1     -18.547 -40.433  22.697  1.00  0.00    -0.083 Cl
HETATM   19  C12 UNL     1     -19.438 -37.833  22.913  1.00  0.00     0.113 A 
HETATM   20  N3  UNL     1     -19.887 -36.699  22.366  1.00  0.00    -0.351 N 
ATOM     21  H3  UNL     1     -20.101 -35.921  22.991  1.00  0.00     0.166 HD
ENDBRANCH  12  14
ENDBRANCH   2  12
ENDBRANCH   1   2
BRANCH   1  22
HETATM   22  N4  UNL     1     -18.366 -33.546  20.965  1.00  0.00    -0.353 N 
HETATM   23  C14 UNL     1     -17.832 -33.857  22.245  1.00  0.00     0.226 C 
HETATM   24  O2  UNL     1     -18.596 -33.788  23.218  1.00  0.00    -0.273 OA
ATOM     25  H4  UNL     1     -17.758 -33.594  20.147  1.00  0.00     0.163 HD
BRANCH  23  26
HETATM   26  C15 UNL     1     -16.411 -34.257  22.447  1.00  0.00     0.041 C 
HETATM   27  C16 UNL     1     -15.688 -33.634  21.225  1.00  0.00     0.025 C 
HETATM   28  C17 UNL     1     -16.339 -35.719  22.309  1.00  0.00     0.039 C 
HETATM   29  C18 UNL     1     -15.619 -36.458  23.383  1.00  0.00     0.127 C 
HETATM   30  N5  UNL     1     -16.076 -35.872  24.665  1.00  0.00    -0.356 N 
HETATM   31  C26 UNL     1     -15.653 -34.544  24.881  1.00  0.00     0.095 C 
HETATM   32  C31 UNL     1     -15.867 -33.643  23.665  1.00  0.00     0.045 C 
BRANCH  30  33
HETATM   33  C19 UNL     1     -16.892 -36.672  25.468  1.00  0.00     0.148 C 
BRANCH  33  34
HETATM   34  O3  UNL     1     -18.086 -36.098  25.633  1.00  0.00    -0.346 OA
ATOM     35  H3  UNL     1     -17.985 -35.166  25.788  1.00  0.00     0.219 HD
ENDBRANCH  33  34
BRANCH  33  36
HETATM   36  C20 UNL     1     -16.774 -37.922  26.147  1.00  0.00     0.015 A 
HETATM   37  C21 UNL     1     -17.822 -38.866  25.990  1.00  0.00     0.016 A 
HETATM   38  C22 UNL     1     -17.806 -40.097  26.589  1.00  0.00     0.001 A 
HETATM   39  C23 UNL     1     -16.758 -40.477  27.379  1.00  0.00     0.000 A 
HETATM   40  C24 UNL     1     -15.730 -39.618  27.564  1.00  0.00     0.001 A 
HETATM   41  C25 UNL     1     -15.768 -38.382  26.949  1.00  0.00     0.016 A 
ENDBRANCH  33  36
ENDBRANCH  30  33
BRANCH  31  42
HETATM   42  C27 UNL     1     -14.219 -34.407  25.346  1.00  0.00    -0.031 C 
HETATM   43  C28 UNL     1     -13.690 -35.571  26.123  1.00  0.00     0.016 C 
HETATM   44  C29 UNL     1     -13.213 -34.024  24.331  1.00  0.00     0.016 C 
HETATM   45  C30 UNL     1     -14.200 -33.226  26.384  1.00  0.00     0.016 C 
ENDBRANCH  31  42
ENDBRANCH  23  26
ENDBRANCH   1  22
BRANCH   1  46
HETATM   46  C32 UNL     1     -19.955 -32.841  19.360  1.00  0.00     0.003 C 
HETATM   47  C33 UNL     1     -21.166 -31.983  19.066  1.00  0.00     0.011 C 
HETATM   48  C34 UNL     1     -18.734 -32.388  18.615  1.00  0.00     0.011 C 
ENDBRANCH   1  46
TORSDOF 14
ENDMDL
