MODEL 1
REMARK VINA RESULT: -10.121520920      0.000      0.000
REMARK  9 active torsions:
REMARK  status: ('A' for Active; 'I' for Inactive)
REMARK    1  A    between atoms: C10_11  and  C11_12 
REMARK       I    between atoms: C11_12  and  N1_14 
REMARK    2  A    between atoms: N1_14  and  C12_16 
REMARK    3  A    between atoms: C12_16  and  C13_17 
REMARK       I    between atoms: N2_23  and  C19_24 
REMARK    4  A    between atoms: C19_24  and  C20_26 
REMARK    5  A    between atoms: C20_26  and  C21_27 
REMARK    6  A    between atoms: C20_26  and  N3_34 
REMARK    7  A    between atoms: C21_27  and  C22_28 
REMARK       I    between atoms: N3_34  and  C28_36 
REMARK       I    between atoms: C28_36  and  N4_38 
REMARK    8  A    between atoms: N4_38  and  C29_40 
REMARK    9  A    between atoms: C29_40  and  C32_43 
ROOT
HETATM    1  C1  UNL     1     -24.004 -40.070  19.773  1.00  0.00     0.011 C 
HETATM    2  C2  UNL     1     -22.631 -39.512  19.649  1.00  0.00    -0.001 C 
HETATM    3  C3  UNL     1     -22.503 -38.531  18.468  1.00  0.00     0.014 C 
HETATM    4  C4  UNL     1     -23.484 -37.529  18.891  1.00  0.00    -0.025 C 
HETATM    5  C5  UNL     1     -23.394 -37.455  20.238  1.00  0.00    -0.023 C 
HETATM    6  C6  UNL     1     -22.358 -38.409  20.696  1.00  0.00     0.042 C 
HETATM    7  C7  UNL     1     -21.018 -37.949  20.233  1.00  0.00     0.063 C 
HETATM    8  C8  UNL     1     -21.105 -37.990  18.751  1.00  0.00     0.042 C 
HETATM    9  C9  UNL     1     -19.923 -38.760  20.850  1.00  0.00     0.143 C 
HETATM   10 CL1  UNL     1     -20.331 -40.272  21.639  1.00  0.00    -0.120 Cl
HETATM   11  C10 UNL     1     -20.010 -37.638  21.921  1.00  0.00     0.201 C 
HETATM   12  N2  UNL     1     -20.442 -36.769  20.883  1.00  0.00    -0.324 N 
HETATM   13  C19 UNL     1     -20.443 -35.414  20.489  1.00  0.00     0.244 C 
HETATM   14  O2  UNL     1     -20.997 -35.079  19.393  1.00  0.00    -0.271 OA
ENDROOT
BRANCH  11  15
HETATM   15  C11 UNL     1     -18.732 -37.565  22.591  1.00  0.00     0.242 C 
HETATM   16  O1  UNL     1     -17.646 -37.612  22.014  1.00  0.00    -0.271 OA
HETATM   17  N1  UNL     1     -18.748 -37.428  24.007  1.00  0.00    -0.359 N 
ATOM     18  H1  UNL     1     -19.637 -37.390  24.507  1.00  0.00     0.162 HD
BRANCH  17  19
HETATM   19  C12 UNL     1     -17.506 -37.343  24.733  1.00  0.00     0.127 C 
BRANCH  19  20
HETATM   20  C13 UNL     1     -17.519 -36.241  25.764  1.00  0.00     0.003 C 
HETATM   21  C14 UNL     1     -17.151 -34.947  25.050  1.00  0.00     0.006 C 
HETATM   22  C15 UNL     1     -15.772 -34.471  25.402  1.00  0.00     0.000 C 
HETATM   23  C16 UNL     1     -14.742 -35.566  25.209  1.00  0.00     0.000 C 
HETATM   24  C17 UNL     1     -15.087 -36.686  26.142  1.00  0.00     0.000 C 
HETATM   25  C18 UNL     1     -16.438 -36.521  26.805  1.00  0.00     0.006 C 
ENDBRANCH  19  20
ENDBRANCH  17  19
ENDBRANCH  11  15
BRANCH  13  26
HETATM   26  C20 UNL     1     -19.846 -34.297  21.244  1.00  0.00     0.182 C 
BRANCH  26  27
HETATM   27  C21 UNL     1     -18.553 -34.590  21.932  1.00  0.00     0.073 C 
BRANCH  27  28
HETATM   28  C22 UNL     1     -17.371 -33.898  21.433  1.00  0.00    -0.056 A 
HETATM   29  C23 UNL     1     -17.418 -32.855  20.515  1.00  0.00     0.007 A 
HETATM   30  C24 UNL     1     -16.260 -32.254  20.073  1.00  0.00     0.001 A 
HETATM   31  C25 UNL     1     -15.029 -32.655  20.514  1.00  0.00     0.000 A 
HETATM   32  C26 UNL     1     -14.944 -33.685  21.421  1.00  0.00     0.001 A 
HETATM   33  C27 UNL     1     -16.123 -34.271  21.849  1.00  0.00     0.007 A 
ENDBRANCH  27  28
ENDBRANCH  26  27
BRANCH  26  34
HETATM   34  N3  UNL     1     -20.822 -33.775  22.219  1.00  0.00    -0.330 N 
HETATM   35  C28 UNL     1     -21.460 -32.544  22.014  1.00  0.00     0.317 C 
HETATM   36  O3  UNL     1     -21.193 -31.883  20.986  1.00  0.00    -0.247 OA
HETATM   37  N4  UNL     1     -22.404 -32.014  22.930  1.00  0.00    -0.334 N 
ATOM     38  H4  UNL     1     -22.633 -32.534  23.777  1.00  0.00     0.165 HD
ATOM     39  H3  UNL     1     -21.036 -34.318  23.055  1.00  0.00     0.165 HD
BRANCH  37  40
HETATM   40  C29 UNL     1     -23.040 -30.757  22.679  1.00  0.00     0.030 C 
HETATM   41  C30 UNL     1     -23.527 -30.640  21.240  1.00  0.00     0.038 C 
HETATM   42  C31 UNL     1     -22.027 -29.629  22.881  1.00  0.00     0.038 C 
BRANCH  40  43
HETATM   43  C32 UNL     1     -24.201 -30.549  23.602  1.00  0.00     0.005 C 
HETATM   44  C33 UNL     1     -24.639 -31.841  24.262  1.00  0.00     0.012 C 
HETATM   45  C34 UNL     1     -23.840 -29.521  24.643  1.00  0.00     0.012 C 
ENDBRANCH  40  43
ENDBRANCH  37  40
ENDBRANCH  26  34
ENDBRANCH  13  26
TORSDOF 9
ENDMDL
MODEL 2
REMARK VINA RESULT: -9.504033468      2.155      5.983
REMARK  9 active torsions:
REMARK  status: ('A' for Active; 'I' for Inactive)
REMARK    1  A    between atoms: C10_11  and  C11_12 
REMARK       I    between atoms: C11_12  and  N1_14 
REMARK    2  A    between atoms: N1_14  and  C12_16 
REMARK    3  A    between atoms: C12_16  and  C13_17 
REMARK       I    between atoms: N2_23  and  C19_24 
REMARK    4  A    between atoms: C19_24  and  C20_26 
REMARK    5  A    between atoms: C20_26  and  C21_27 
REMARK    6  A    between atoms: C20_26  and  N3_34 
REMARK    7  A    between atoms: C21_27  and  C22_28 
REMARK       I    between atoms: N3_34  and  C28_36 
REMARK       I    between atoms: C28_36  and  N4_38 
REMARK    8  A    between atoms: N4_38  and  C29_40 
REMARK    9  A    between atoms: C29_40  and  C32_43 
ROOT
HETATM    1  C1  UNL     1     -13.927 -36.692  23.900  1.00  0.00     0.011 C 
HETATM    2  C2  UNL     1     -15.361 -36.330  24.053  1.00  0.00    -0.001 C 
HETATM    3  C3  UNL     1     -15.555 -34.843  24.402  1.00  0.00     0.014 C 
HETATM    4  C4  UNL     1     -14.945 -34.245  23.212  1.00  0.00    -0.025 C 
HETATM    5  C5  UNL     1     -15.258 -35.055  22.177  1.00  0.00    -0.023 C 
HETATM    6  C6  UNL     1     -16.069 -36.183  22.688  1.00  0.00     0.042 C 
HETATM    7  C7  UNL     1     -17.395 -35.677  23.146  1.00  0.00     0.063 C 
HETATM    8  C8  UNL     1     -17.071 -34.756  24.265  1.00  0.00     0.042 C 
HETATM    9  C9  UNL     1     -18.323 -36.804  23.470  1.00  0.00     0.143 C 
HETATM   10 CL1  UNL     1     -17.664 -38.419  23.652  1.00  0.00    -0.120 Cl
HETATM   11  C10 UNL     1     -18.697 -36.620  21.974  1.00  0.00     0.201 C 
HETATM   12  N2  UNL     1     -18.350 -35.250  22.121  1.00  0.00    -0.324 N 
HETATM   13  C19 UNL     1     -18.640 -33.964  21.617  1.00  0.00     0.244 C 
HETATM   14  O2  UNL     1     -18.029 -32.952  22.091  1.00  0.00    -0.271 OA
ENDROOT
BRANCH  11  15
HETATM   15  C11 UNL     1     -20.039 -37.125  21.786  1.00  0.00     0.242 C 
HETATM   16  O1  UNL     1     -21.025 -36.705  22.391  1.00  0.00    -0.271 OA
HETATM   17  N1  UNL     1     -20.212 -38.170  20.838  1.00  0.00    -0.359 N 
ATOM     18  H1  UNL     1     -19.409 -38.536  20.326  1.00  0.00     0.162 HD
BRANCH  17  19
HETATM   19  C12 UNL     1     -21.527 -38.712  20.600  1.00  0.00     0.127 C 
BRANCH  19  20
HETATM   20  C13 UNL     1     -21.995 -38.482  19.185  1.00  0.00     0.003 C 
HETATM   21  C14 UNL     1     -21.494 -37.109  18.758  1.00  0.00     0.006 C 
HETATM   22  C15 UNL     1     -22.599 -36.097  18.674  1.00  0.00     0.000 C 
HETATM   23  C16 UNL     1     -23.414 -36.058  19.951  1.00  0.00     0.000 C 
HETATM   24  C17 UNL     1     -24.044 -37.405  20.130  1.00  0.00     0.000 C 
HETATM   25  C18 UNL     1     -23.521 -38.447  19.165  1.00  0.00     0.006 C 
ENDBRANCH  19  20
ENDBRANCH  17  19
ENDBRANCH  11  15
BRANCH  13  26
HETATM   26  C20 UNL     1     -19.616 -33.654  20.556  1.00  0.00     0.182 C 
BRANCH  26  27
HETATM   27  C21 UNL     1     -19.299 -32.470  19.702  1.00  0.00     0.073 C 
BRANCH  27  28
HETATM   28  C22 UNL     1     -19.320 -32.675  18.260  1.00  0.00    -0.056 A 
HETATM   29  C23 UNL     1     -18.623 -31.879  17.357  1.00  0.00     0.007 A 
HETATM   30  C24 UNL     1     -18.697 -32.120  16.003  1.00  0.00     0.001 A 
HETATM   31  C25 UNL     1     -19.453 -33.141  15.496  1.00  0.00     0.000 A 
HETATM   32  C26 UNL     1     -20.156 -33.949  16.358  1.00  0.00     0.001 A 
HETATM   33  C27 UNL     1     -20.063 -33.685  17.714  1.00  0.00     0.007 A 
ENDBRANCH  27  28
ENDBRANCH  26  27
BRANCH  26  34
HETATM   34  N3  UNL     1     -20.960 -33.500  21.143  1.00  0.00    -0.330 N 
HETATM   35  C28 UNL     1     -21.444 -32.240  21.518  1.00  0.00     0.317 C 
HETATM   36  O3  UNL     1     -20.719 -31.233  21.349  1.00  0.00    -0.247 OA
HETATM   37  N4  UNL     1     -22.732 -32.055  22.084  1.00  0.00    -0.334 N 
ATOM     38  H4  UNL     1     -23.337 -32.863  22.234  1.00  0.00     0.165 HD
ATOM     39  H3  UNL     1     -21.546 -34.323  21.278  1.00  0.00     0.165 HD
BRANCH  37  40
HETATM   40  C29 UNL     1     -23.191 -30.750  22.445  1.00  0.00     0.030 C 
HETATM   41  C30 UNL     1     -23.696 -29.967  21.239  1.00  0.00     0.038 C 
HETATM   42  C31 UNL     1     -22.026 -29.945  23.021  1.00  0.00     0.038 C 
BRANCH  40  43
HETATM   43  C32 UNL     1     -24.287 -30.830  23.463  1.00  0.00     0.005 C 
HETATM   44  C33 UNL     1     -24.528 -32.252  23.927  1.00  0.00     0.012 C 
HETATM   45  C34 UNL     1     -23.952 -29.943  24.635  1.00  0.00     0.012 C 
ENDBRANCH  40  43
ENDBRANCH  37  40
ENDBRANCH  26  34
ENDBRANCH  13  26
TORSDOF 9
ENDMDL
MODEL 3
REMARK VINA RESULT: -9.496472787      2.335      3.049
REMARK  9 active torsions:
REMARK  status: ('A' for Active; 'I' for Inactive)
REMARK    1  A    between atoms: C10_11  and  C11_12 
REMARK       I    between atoms: C11_12  and  N1_14 
REMARK    2  A    between atoms: N1_14  and  C12_16 
REMARK    3  A    between atoms: C12_16  and  C13_17 
REMARK       I    between atoms: N2_23  and  C19_24 
REMARK    4  A    between atoms: C19_24  and  C20_26 
REMARK    5  A    between atoms: C20_26  and  C21_27 
REMARK    6  A    between atoms: C20_26  and  N3_34 
REMARK    7  A    between atoms: C21_27  and  C22_28 
REMARK       I    between atoms: N3_34  and  C28_36 
REMARK       I    between atoms: C28_36  and  N4_38 
REMARK    8  A    between atoms: N4_38  and  C29_40 
REMARK    9  A    between atoms: C29_40  and  C32_43 
ROOT
HETATM    1  C1  UNL     1     -22.421 -39.956  21.983  1.00  0.00     0.011 C 
HETATM    2  C2  UNL     1     -21.335 -39.166  21.346  1.00  0.00    -0.001 C 
HETATM    3  C3  UNL     1     -21.559 -38.977  19.834  1.00  0.00     0.014 C 
HETATM    4  C4  UNL     1     -22.833 -38.255  19.877  1.00  0.00    -0.025 C 
HETATM    5  C5  UNL     1     -22.780 -37.455  20.965  1.00  0.00    -0.023 C 
HETATM    6  C6  UNL     1     -21.474 -37.654  21.634  1.00  0.00     0.042 C 
HETATM    7  C7  UNL     1     -20.382 -37.131  20.764  1.00  0.00     0.063 C 
HETATM    8  C8  UNL     1     -20.445 -37.977  19.545  1.00  0.00     0.042 C 
HETATM    9  C9  UNL     1     -19.073 -37.115  21.486  1.00  0.00     0.143 C 
HETATM   10 CL1  UNL     1     -18.920 -38.017  22.983  1.00  0.00    -0.120 Cl
HETATM   11  C10 UNL     1     -19.555 -35.685  21.853  1.00  0.00     0.201 C 
HETATM   12  N2  UNL     1     -20.265 -35.678  20.622  1.00  0.00    -0.324 N 
HETATM   13  C19 UNL     1     -20.745 -34.814  19.614  1.00  0.00     0.244 C 
HETATM   14  O2  UNL     1     -21.378 -35.298  18.622  1.00  0.00    -0.271 OA
ENDROOT
BRANCH  11  15
HETATM   15  C11 UNL     1     -18.388 -34.885  22.147  1.00  0.00     0.242 C 
HETATM   16  O1  UNL     1     -17.819 -34.166  21.326  1.00  0.00    -0.271 OA
HETATM   17  N1  UNL     1     -17.880 -34.942  23.474  1.00  0.00    -0.359 N 
ATOM     18  H1  UNL     1     -18.333 -35.534  24.171  1.00  0.00     0.162 HD
BRANCH  17  19
HETATM   19  C12 UNL     1     -16.722 -34.162  23.832  1.00  0.00     0.127 C 
BRANCH  19  20
HETATM   20  C13 UNL     1     -15.451 -34.975  23.800  1.00  0.00     0.003 C 
HETATM   21  C14 UNL     1     -15.611 -36.108  24.805  1.00  0.00     0.006 C 
HETATM   22  C15 UNL     1     -14.769 -35.909  26.031  1.00  0.00     0.000 C 
HETATM   23  C16 UNL     1     -14.994 -34.541  26.642  1.00  0.00     0.000 C 
HETATM   24  C17 UNL     1     -14.575 -33.516  25.633  1.00  0.00     0.000 C 
HETATM   25  C18 UNL     1     -14.289 -34.100  24.267  1.00  0.00     0.006 C 
ENDBRANCH  19  20
ENDBRANCH  17  19
ENDBRANCH  11  15
BRANCH  13  26
HETATM   26  C20 UNL     1     -20.585 -33.348  19.588  1.00  0.00     0.182 C 
BRANCH  26  27
HETATM   27  C21 UNL     1     -19.300 -32.841  19.019  1.00  0.00     0.073 C 
BRANCH  27  28
HETATM   28  C22 UNL     1     -19.346 -32.308  17.663  1.00  0.00    -0.056 A 
HETATM   29  C23 UNL     1     -20.507 -32.242  16.900  1.00  0.00     0.007 A 
HETATM   30  C24 UNL     1     -20.477 -31.740  15.617  1.00  0.00     0.001 A 
HETATM   31  C25 UNL     1     -19.317 -31.291  15.048  1.00  0.00     0.000 A 
HETATM   32  C26 UNL     1     -18.150 -31.342  15.773  1.00  0.00     0.001 A 
HETATM   33  C27 UNL     1     -18.208 -31.851  17.059  1.00  0.00     0.007 A 
ENDBRANCH  27  28
ENDBRANCH  26  27
BRANCH  26  34
HETATM   34  N3  UNL     1     -20.781 -32.800  20.943  1.00  0.00    -0.330 N 
HETATM   35  C28 UNL     1     -22.031 -32.318  21.353  1.00  0.00     0.317 C 
HETATM   36  O3  UNL     1     -22.992 -32.356  20.552  1.00  0.00    -0.247 OA
HETATM   37  N4  UNL     1     -22.255 -31.786  22.648  1.00  0.00    -0.334 N 
ATOM     38  H4  UNL     1     -21.485 -31.741  23.315  1.00  0.00     0.165 HD
ATOM     39  H3  UNL     1     -19.995 -32.772  21.591  1.00  0.00     0.165 HD
BRANCH  37  40
HETATM   40  C29 UNL     1     -23.549 -31.312  23.030  1.00  0.00     0.030 C 
HETATM   41  C30 UNL     1     -24.612 -32.399  22.922  1.00  0.00     0.038 C 
HETATM   42  C31 UNL     1     -23.980 -30.195  22.078  1.00  0.00     0.038 C 
BRANCH  40  43
HETATM   43  C32 UNL     1     -23.536 -30.785  24.433  1.00  0.00     0.005 C 
HETATM   44  C33 UNL     1     -24.161 -29.408  24.527  1.00  0.00     0.012 C 
HETATM   45  C34 UNL     1     -24.252 -31.752  25.341  1.00  0.00     0.012 C 
ENDBRANCH  40  43
ENDBRANCH  37  40
ENDBRANCH  26  34
ENDBRANCH  13  26
TORSDOF 9
ENDMDL
MODEL 4
REMARK VINA RESULT: -9.493853694      2.132      6.260
REMARK  9 active torsions:
REMARK  status: ('A' for Active; 'I' for Inactive)
REMARK    1  A    between atoms: C10_11  and  C11_12 
REMARK       I    between atoms: C11_12  and  N1_14 
REMARK    2  A    between atoms: N1_14  and  C12_16 
REMARK    3  A    between atoms: C12_16  and  C13_17 
REMARK       I    between atoms: N2_23  and  C19_24 
REMARK    4  A    between atoms: C19_24  and  C20_26 
REMARK    5  A    between atoms: C20_26  and  C21_27 
REMARK    6  A    between atoms: C20_26  and  N3_34 
REMARK    7  A    between atoms: C21_27  and  C22_28 
REMARK       I    between atoms: N3_34  and  C28_36 
REMARK       I    between atoms: C28_36  and  N4_38 
REMARK    8  A    between atoms: N4_38  and  C29_40 
REMARK    9  A    between atoms: C29_40  and  C32_43 
ROOT
HETATM    1  C1  UNL     1     -13.887 -37.171  23.887  1.00  0.00     0.011 C 
HETATM    2  C2  UNL     1     -15.273 -36.666  24.069  1.00  0.00    -0.001 C 
HETATM    3  C3  UNL     1     -15.307 -35.264  24.705  1.00  0.00     0.014 C 
HETATM    4  C4  UNL     1     -14.567 -34.526  23.679  1.00  0.00    -0.025 C 
HETATM    5  C5  UNL     1     -14.919 -35.070  22.492  1.00  0.00    -0.023 C 
HETATM    6  C6  UNL     1     -15.885 -36.163  22.742  1.00  0.00     0.042 C 
HETATM    7  C7  UNL     1     -17.163 -35.592  23.255  1.00  0.00     0.063 C 
HETATM    8  C8  UNL     1     -16.792 -34.958  24.545  1.00  0.00     0.042 C 
HETATM    9  C9  UNL     1     -18.236 -36.633  23.318  1.00  0.00     0.143 C 
HETATM   10 CL1  UNL     1     -17.785 -38.323  23.188  1.00  0.00    -0.120 Cl
HETATM   11  C10 UNL     1     -18.505 -36.112  21.879  1.00  0.00     0.201 C 
HETATM   12  N2  UNL     1     -18.004 -34.854  22.310  1.00  0.00    -0.324 N 
HETATM   13  C19 UNL     1     -18.111 -33.467  22.069  1.00  0.00     0.244 C 
HETATM   14  O2  UNL     1     -17.410 -32.655  22.754  1.00  0.00    -0.271 OA
ENDROOT
BRANCH  11  15
HETATM   15  C11 UNL     1     -19.884 -36.394  21.556  1.00  0.00     0.242 C 
HETATM   16  O1  UNL     1     -20.842 -35.768  22.010  1.00  0.00    -0.271 OA
HETATM   17  N1  UNL     1     -20.133 -37.463  20.652  1.00  0.00    -0.359 N 
ATOM     18  H1  UNL     1     -19.356 -37.997  20.264  1.00  0.00     0.162 HD
BRANCH  17  19
HETATM   19  C12 UNL     1     -21.488 -37.790  20.284  1.00  0.00     0.127 C 
BRANCH  19  20
HETATM   20  C13 UNL     1     -21.879 -37.202  18.951  1.00  0.00     0.003 C 
HETATM   21  C14 UNL     1     -22.905 -36.109  19.220  1.00  0.00     0.006 C 
HETATM   22  C15 UNL     1     -24.288 -36.506  18.798  1.00  0.00     0.000 C 
HETATM   23  C16 UNL     1     -24.684 -37.845  19.385  1.00  0.00     0.000 C 
HETATM   24  C17 UNL     1     -23.735 -38.875  18.854  1.00  0.00     0.000 C 
HETATM   25  C18 UNL     1     -22.558 -38.280  18.111  1.00  0.00     0.006 C 
ENDBRANCH  19  20
ENDBRANCH  17  19
ENDBRANCH  11  15
BRANCH  13  26
HETATM   26  C20 UNL     1     -18.985 -32.832  21.065  1.00  0.00     0.182 C 
BRANCH  26  27
HETATM   27  C21 UNL     1     -18.311 -32.358  19.819  1.00  0.00     0.073 C 
BRANCH  27  28
HETATM   28  C22 UNL     1     -18.978 -32.654  18.557  1.00  0.00    -0.056 A 
HETATM   29  C23 UNL     1     -18.715 -31.982  17.369  1.00  0.00     0.007 A 
HETATM   30  C24 UNL     1     -19.393 -32.302  16.213  1.00  0.00     0.001 A 
HETATM   31  C25 UNL     1     -20.343 -33.286  16.188  1.00  0.00     0.000 A 
HETATM   32  C26 UNL     1     -20.630 -33.972  17.344  1.00  0.00     0.001 A 
HETATM   33  C27 UNL     1     -19.934 -33.630  18.491  1.00  0.00     0.007 A 
ENDBRANCH  27  28
ENDBRANCH  26  27
BRANCH  26  34
HETATM   34  N3  UNL     1     -19.730 -31.720  21.682  1.00  0.00    -0.330 N 
HETATM   35  C28 UNL     1     -21.129 -31.736  21.748  1.00  0.00     0.317 C 
HETATM   36  O3  UNL     1     -21.750 -32.712  21.271  1.00  0.00    -0.247 OA
HETATM   37  N4  UNL     1     -21.877 -30.684  22.335  1.00  0.00    -0.334 N 
ATOM     38  H4  UNL     1     -21.391 -29.876  22.725  1.00  0.00     0.165 HD
ATOM     39  H3  UNL     1     -19.218 -30.926  22.069  1.00  0.00     0.165 HD
BRANCH  37  40
HETATM   40  C29 UNL     1     -23.305 -30.743  22.389  1.00  0.00     0.030 C 
HETATM   41  C30 UNL     1     -23.824 -32.170  22.259  1.00  0.00     0.038 C 
HETATM   42  C31 UNL     1     -23.889 -29.966  21.208  1.00  0.00     0.038 C 
BRANCH  40  43
HETATM   43  C32 UNL     1     -23.819 -30.156  23.668  1.00  0.00     0.005 C 
HETATM   44  C33 UNL     1     -24.279 -31.226  24.638  1.00  0.00     0.012 C 
HETATM   45  C34 UNL     1     -22.750 -29.300  24.296  1.00  0.00     0.012 C 
ENDBRANCH  40  43
ENDBRANCH  37  40
ENDBRANCH  26  34
ENDBRANCH  13  26
TORSDOF 9
ENDMDL
MODEL 5
REMARK VINA RESULT: -9.430518732      2.732      7.371
REMARK  9 active torsions:
REMARK  status: ('A' for Active; 'I' for Inactive)
REMARK    1  A    between atoms: C10_11  and  C11_12 
REMARK       I    between atoms: C11_12  and  N1_14 
REMARK    2  A    between atoms: N1_14  and  C12_16 
REMARK    3  A    between atoms: C12_16  and  C13_17 
REMARK       I    between atoms: N2_23  and  C19_24 
REMARK    4  A    between atoms: C19_24  and  C20_26 
REMARK    5  A    between atoms: C20_26  and  C21_27 
REMARK    6  A    between atoms: C20_26  and  N3_34 
REMARK    7  A    between atoms: C21_27  and  C22_28 
REMARK       I    between atoms: N3_34  and  C28_36 
REMARK       I    between atoms: C28_36  and  N4_38 
REMARK    8  A    between atoms: N4_38  and  C29_40 
REMARK    9  A    between atoms: C29_40  and  C32_43 
ROOT
HETATM    1  C1  UNL     1     -13.923 -36.471  23.553  1.00  0.00     0.011 C 
HETATM    2  C2  UNL     1     -15.377 -36.314  23.817  1.00  0.00    -0.001 C 
HETATM    3  C3  UNL     1     -15.704 -34.983  24.519  1.00  0.00     0.014 C 
HETATM    4  C4  UNL     1     -15.213 -34.056  23.498  1.00  0.00    -0.025 C 
HETATM    5  C5  UNL     1     -15.489 -34.625  22.303  1.00  0.00    -0.023 C 
HETATM    6  C6  UNL     1     -16.158 -35.924  22.543  1.00  0.00     0.042 C 
HETATM    7  C7  UNL     1     -17.506 -35.689  23.136  1.00  0.00     0.063 C 
HETATM    8  C8  UNL     1     -17.227 -35.031  24.437  1.00  0.00     0.042 C 
HETATM    9  C9  UNL     1     -18.300 -36.954  23.196  1.00  0.00     0.143 C 
HETATM   10 CL1  UNL     1     -17.474 -38.485  22.968  1.00  0.00    -0.120 Cl
HETATM   11  C10 UNL     1     -18.759 -36.461  21.796  1.00  0.00     0.201 C 
HETATM   12  N2  UNL     1     -18.545 -35.137  22.263  1.00  0.00    -0.324 N 
HETATM   13  C19 UNL     1     -18.986 -33.806  22.092  1.00  0.00     0.244 C 
HETATM   14  O2  UNL     1     -18.459 -32.877  22.783  1.00  0.00    -0.271 OA
ENDROOT
BRANCH  11  15
HETATM   15  C11 UNL     1     -20.049 -37.049  21.518  1.00  0.00     0.242 C 
HETATM   16  O1  UNL     1     -21.049 -36.881  22.216  1.00  0.00    -0.271 OA
HETATM   17  N1  UNL     1     -20.154 -37.869  20.361  1.00  0.00    -0.359 N 
ATOM     18  H1  UNL     1     -19.338 -38.025  19.769  1.00  0.00     0.162 HD
BRANCH  17  19
HETATM   19  C12 UNL     1     -21.416 -38.480  20.027  1.00  0.00     0.127 C 
BRANCH  19  20
HETATM   20  C13 UNL     1     -21.900 -38.081  18.654  1.00  0.00     0.003 C 
HETATM   21  C14 UNL     1     -21.455 -36.644  18.416  1.00  0.00     0.006 C 
HETATM   22  C15 UNL     1     -22.599 -35.675  18.467  1.00  0.00     0.000 C 
HETATM   23  C16 UNL     1     -23.409 -35.840  19.738  1.00  0.00     0.000 C 
HETATM   24  C17 UNL     1     -23.985 -37.222  19.735  1.00  0.00     0.000 C 
HETATM   25  C18 UNL     1     -23.426 -38.104  18.639  1.00  0.00     0.006 C 
ENDBRANCH  19  20
ENDBRANCH  17  19
ENDBRANCH  11  15
BRANCH  13  26
HETATM   26  C20 UNL     1     -20.035 -33.361  21.156  1.00  0.00     0.182 C 
BRANCH  26  27
HETATM   27  C21 UNL     1     -21.443 -33.630  21.577  1.00  0.00     0.073 C 
BRANCH  27  28
HETATM   28  C22 UNL     1     -22.180 -32.515  22.158  1.00  0.00    -0.056 A 
HETATM   29  C23 UNL     1     -21.681 -31.219  22.239  1.00  0.00     0.007 A 
HETATM   30  C24 UNL     1     -22.426 -30.213  22.815  1.00  0.00     0.001 A 
HETATM   31  C25 UNL     1     -23.674 -30.446  23.325  1.00  0.00     0.000 A 
HETATM   32  C26 UNL     1     -24.200 -31.714  23.261  1.00  0.00     0.001 A 
HETATM   33  C27 UNL     1     -23.430 -32.707  22.678  1.00  0.00     0.007 A 
ENDBRANCH  27  28
ENDBRANCH  26  27
BRANCH  26  34
HETATM   34  N3  UNL     1     -19.794 -33.940  19.822  1.00  0.00    -0.330 N 
HETATM   35  C28 UNL     1     -19.857 -33.148  18.668  1.00  0.00     0.317 C 
HETATM   36  O3  UNL     1     -20.124 -31.930  18.779  1.00  0.00    -0.247 OA
HETATM   37  N4  UNL     1     -19.630 -33.673  17.370  1.00  0.00    -0.334 N 
ATOM     38  H4  UNL     1     -19.417 -34.664  17.257  1.00  0.00     0.165 HD
ATOM     39  H3  UNL     1     -19.578 -34.933  19.738  1.00  0.00     0.165 HD
BRANCH  37  40
HETATM   40  C29 UNL     1     -19.696 -32.828  16.218  1.00  0.00     0.030 C 
HETATM   41  C30 UNL     1     -18.449 -31.964  16.071  1.00  0.00     0.038 C 
HETATM   42  C31 UNL     1     -20.872 -31.862  16.366  1.00  0.00     0.038 C 
BRANCH  40  43
HETATM   43  C32 UNL     1     -19.876 -33.635  14.969  1.00  0.00     0.005 C 
HETATM   44  C33 UNL     1     -19.062 -33.084  13.815  1.00  0.00     0.012 C 
HETATM   45  C34 UNL     1     -19.503 -35.071  15.238  1.00  0.00     0.012 C 
ENDBRANCH  40  43
ENDBRANCH  37  40
ENDBRANCH  26  34
ENDBRANCH  13  26
TORSDOF 9
ENDMDL
