MODEL 1
REMARK VINA RESULT: -9.434037053      0.000      0.000
REMARK  9 active torsions:
REMARK  status: ('A' for Active; 'I' for Inactive)
REMARK    1  A    between atoms: C7_8  and  C8_9 
REMARK    2  A    between atoms: N2_16  and  C12_17 
REMARK    3  A    between atoms: C12_17  and  C13_18 
REMARK    4  A    between atoms: C13_18  and  C14_19 
REMARK    5  A    between atoms: C14_19  and  N3_20 
REMARK    6  A    between atoms: N3_20  and  C17_23 
REMARK    7  A    between atoms: C17_23  and  C18_24 
REMARK    8  A    between atoms: C18_24  and  C19_25 
REMARK    9  A    between atoms: C19_25  and  C20_26 
REMARK       I    between atoms: N4_28  and  C22_29 
ROOT
HETATM    1  C8  UNL     1     -17.488 -35.685  21.984  1.00  0.00     0.124 C 
HETATM    2  C9  UNL     1     -17.700 -37.131  22.335  1.00  0.00     0.062 C 
HETATM    3  C10 UNL     1     -19.016 -37.768  22.156  1.00  0.00     0.044 C 
HETATM    4  N1  UNL     1     -19.917 -36.999  21.368  1.00  0.00    -0.333 N 
ATOM      5  H1  UNL     1     -20.495 -37.419  20.641  1.00  0.00     0.165 HD
HETATM    6  C11 UNL     1     -19.960 -35.593  21.662  1.00  0.00     0.319 C 
HETATM    7  O1  UNL     1     -21.090 -35.005  21.573  1.00  0.00    -0.247 OA
HETATM    8  N2  UNL     1     -18.755 -34.958  22.035  1.00  0.00    -0.325 N 
HETATM    9  C25 UNL     1     -19.672 -38.113  23.486  1.00  0.00     0.015 C 
HETATM   10  C26 UNL     1     -18.753 -38.936  24.367  1.00  0.00     0.012 C 
HETATM   11  C27 UNL     1     -18.355 -40.165  23.614  1.00  0.00    -0.013 C 
HETATM   12  C28 UNL     1     -19.605 -41.018  23.438  1.00  0.00     0.009 C 
HETATM   13  C29 UNL     1     -20.596 -40.248  22.626  1.00  0.00    -0.013 C 
HETATM   14  C30 UNL     1     -20.905 -38.913  23.258  1.00  0.00     0.012 C 
HETATM   15  C31 UNL     1     -20.017 -39.918  21.256  1.00  0.00     0.012 C 
HETATM   16  C32 UNL     1     -18.781 -39.112  21.442  1.00  0.00     0.015 C 
HETATM   17  C33 UNL     1     -17.788 -39.902  22.259  1.00  0.00     0.012 C 
ENDROOT
BRANCH   8  18
HETATM   18  C12 UNL     1     -18.836 -33.602  22.460  1.00  0.00     0.130 C 
BRANCH  18  19
HETATM   19  C13 UNL     1     -18.791 -32.584  21.376  1.00  0.00     0.048 C 
BRANCH  19  20
HETATM   20  C14 UNL     1     -18.415 -33.162  20.044  1.00  0.00     0.238 C 
BRANCH  20  21
HETATM   21  N3  UNL     1     -19.404 -32.694  19.040  1.00  0.00    -0.075 N 
HETATM   22  C15 UNL     1     -18.707 -32.046  17.956  1.00  0.00     0.272 C 
HETATM   23  C16 UNL     1     -20.043 -33.873  18.524  1.00  0.00     0.272 C 
BRANCH  21  24
HETATM   24  C17 UNL     1     -20.347 -31.834  19.668  1.00  0.00     0.236 C 
BRANCH  24  25
HETATM   25  C18 UNL     1     -21.765 -32.264  19.412  1.00  0.00     0.030 C 
BRANCH  25  26
HETATM   26  C19 UNL     1     -22.681 -31.288  20.163  1.00  0.00     0.028 C 
BRANCH  26  27
HETATM   27  C20 UNL     1     -22.565 -31.618  21.635  1.00  0.00     0.094 C 
HETATM   28  C21 UNL     1     -22.869 -30.347  22.387  1.00  0.00     0.150 C 
HETATM   29  N4  UNL     1     -23.456 -30.549  23.669  1.00  0.00    -0.352 N 
HETATM   30  C22 UNL     1     -23.489 -29.475  24.574  1.00  0.00     0.184 C 
HETATM   31  C23 UNL     1     -24.011 -31.826  24.058  1.00  0.00     0.144 C 
HETATM   32  N5  UNL     1     -24.527 -29.255  25.280  1.00  0.00    -0.374 N 
HETATM   33  N6  UNL     1     -22.374 -28.612  24.725  1.00  0.00    -0.064 NA
ATOM     34  H52 UNL     1     -25.330 -29.876  25.172  1.00  0.00     0.158 HD
ATOM     35  H51 UNL     1     -24.552 -28.475  25.937  1.00  0.00     0.158 HD
HETATM   36  C24 UNL     1     -24.542 -32.460  22.761  1.00  0.00     0.134 C 
HETATM   37  N7  UNL     1     -23.427 -32.706  21.921  1.00  0.00    -0.414 N 
ATOM     38  H7  UNL     1     -23.251 -33.634  21.534  1.00  0.00     0.153 HD
ENDBRANCH  26  27
ENDBRANCH  25  26
ENDBRANCH  24  25
ENDBRANCH  21  24
ENDBRANCH  20  21
ENDBRANCH  19  20
ENDBRANCH  18  19
ENDBRANCH   8  18
BRANCH   1  39
HETATM   39  C7  UNL     1     -16.608 -35.151  23.090  1.00  0.00    -0.029 A 
HETATM   40  C2  UNL     1     -15.638 -34.231  22.833  1.00  0.00    -0.052 A 
HETATM   41  C1  UNL     1     -15.161 -33.905  21.467  1.00  0.00     0.049 C 
HETATM   42  C3  UNL     1     -14.943 -33.634  23.892  1.00  0.00     0.031 A 
HETATM   43  C4  UNL     1     -15.199 -33.941  25.203  1.00  0.00     0.034 A 
HETATM   44 CL1  UNL     1     -14.273 -33.181  26.484  1.00  0.00    -0.084 Cl
HETATM   45  C5  UNL     1     -16.182 -34.873  25.467  1.00  0.00     0.024 A 
HETATM   46  C6  UNL     1     -16.869 -35.462  24.404  1.00  0.00     0.011 A 
ENDBRANCH   1  39
TORSDOF 9
ENDMDL
MODEL 2
REMARK VINA RESULT: -8.897797622      2.529      5.148
REMARK  9 active torsions:
REMARK  status: ('A' for Active; 'I' for Inactive)
REMARK    1  A    between atoms: C7_8  and  C8_9 
REMARK    2  A    between atoms: N2_16  and  C12_17 
REMARK    3  A    between atoms: C12_17  and  C13_18 
REMARK    4  A    between atoms: C13_18  and  C14_19 
REMARK    5  A    between atoms: C14_19  and  N3_20 
REMARK    6  A    between atoms: N3_20  and  C17_23 
REMARK    7  A    between atoms: C17_23  and  C18_24 
REMARK    8  A    between atoms: C18_24  and  C19_25 
REMARK    9  A    between atoms: C19_25  and  C20_26 
REMARK       I    between atoms: N4_28  and  C22_29 
ROOT
HETATM    1  C8  UNL     1     -18.136 -36.611  23.545  1.00  0.00     0.124 C 
HETATM    2  C9  UNL     1     -16.872 -36.594  24.359  1.00  0.00     0.062 C 
HETATM    3  C10 UNL     1     -16.086 -35.358  24.509  1.00  0.00     0.044 C 
HETATM    4  N1  UNL     1     -16.779 -34.188  24.088  1.00  0.00    -0.333 N 
ATOM      5  H1  UNL     1     -16.765 -33.325  24.630  1.00  0.00     0.165 HD
HETATM    6  C11 UNL     1     -17.499 -34.301  22.850  1.00  0.00     0.319 C 
HETATM    7  O1  UNL     1     -17.531 -33.277  22.088  1.00  0.00    -0.247 OA
HETATM    8  N2  UNL     1     -18.116 -35.536  22.554  1.00  0.00    -0.325 N 
HETATM    9  C25 UNL     1     -14.746 -35.440  23.790  1.00  0.00     0.015 C 
HETATM   10  C26 UNL     1     -13.963 -36.670  24.205  1.00  0.00     0.012 C 
HETATM   11  C27 UNL     1     -13.791 -36.641  25.690  1.00  0.00    -0.013 C 
HETATM   12  C28 UNL     1     -12.883 -35.462  26.021  1.00  0.00     0.009 C 
HETATM   13  C29 UNL     1     -13.559 -34.203  25.583  1.00  0.00    -0.013 C 
HETATM   14  C30 UNL     1     -13.914 -34.251  24.117  1.00  0.00     0.012 C 
HETATM   15  C31 UNL     1     -14.887 -34.035  26.311  1.00  0.00     0.012 C 
HETATM   16  C32 UNL     1     -15.752 -35.205  26.004  1.00  0.00     0.015 C 
HETATM   17  C33 UNL     1     -15.060 -36.468  26.455  1.00  0.00     0.012 C 
ENDROOT
BRANCH   8  18
HETATM   18  C12 UNL     1     -18.704 -35.681  21.265  1.00  0.00     0.130 C 
BRANCH  18  19
HETATM   19  C13 UNL     1     -20.137 -35.292  21.164  1.00  0.00     0.048 C 
BRANCH  19  20
HETATM   20  C14 UNL     1     -20.858 -35.995  20.051  1.00  0.00     0.238 C 
BRANCH  20  21
HETATM   21  N3  UNL     1     -22.257 -35.499  20.020  1.00  0.00    -0.075 N 
HETATM   22  C15 UNL     1     -22.990 -36.219  19.006  1.00  0.00     0.272 C 
HETATM   23  C16 UNL     1     -22.827 -35.817  21.300  1.00  0.00     0.272 C 
BRANCH  21  24
HETATM   24  C17 UNL     1     -22.257 -34.095  19.793  1.00  0.00     0.236 C 
BRANCH  24  25
HETATM   25  C18 UNL     1     -23.192 -33.371  20.722  1.00  0.00     0.030 C 
BRANCH  25  26
HETATM   26  C19 UNL     1     -22.472 -32.103  21.200  1.00  0.00     0.028 C 
BRANCH  26  27
HETATM   27  C20 UNL     1     -22.621 -32.052  22.705  1.00  0.00     0.094 C 
HETATM   28  C21 UNL     1     -22.804 -30.601  23.071  1.00  0.00     0.150 C 
HETATM   29  N4  UNL     1     -23.590 -30.384  24.239  1.00  0.00    -0.352 N 
HETATM   30  C22 UNL     1     -23.564 -29.118  24.846  1.00  0.00     0.184 C 
HETATM   31  C23 UNL     1     -24.406 -31.432  24.810  1.00  0.00     0.144 C 
HETATM   32  N5  UNL     1     -24.637 -28.587  25.284  1.00  0.00    -0.374 N 
HETATM   33  N6  UNL     1     -22.348 -28.401  24.987  1.00  0.00    -0.064 NA
ATOM     34  H52 UNL     1     -25.511 -29.103  25.183  1.00  0.00     0.158 HD
ATOM     35  H51 UNL     1     -24.618 -27.667  25.724  1.00  0.00     0.158 HD
HETATM   36  C24 UNL     1     -24.852 -32.305  23.625  1.00  0.00     0.134 C 
HETATM   37  N7  UNL     1     -23.689 -32.905  23.079  1.00  0.00    -0.414 N 
ATOM     38  H7  UNL     1     -23.624 -33.916  22.959  1.00  0.00     0.153 HD
ENDBRANCH  26  27
ENDBRANCH  25  26
ENDBRANCH  24  25
ENDBRANCH  21  24
ENDBRANCH  20  21
ENDBRANCH  19  20
ENDBRANCH  18  19
ENDBRANCH   8  18
BRANCH   1  39
HETATM   39  C7  UNL     1     -18.087 -37.924  22.798  1.00  0.00    -0.029 A 
HETATM   40  C2  UNL     1     -19.223 -38.629  22.543  1.00  0.00    -0.052 A 
HETATM   41  C1  UNL     1     -20.522 -38.355  23.206  1.00  0.00     0.049 C 
HETATM   42  C3  UNL     1     -19.175 -39.757  21.716  1.00  0.00     0.031 A 
HETATM   43  C4  UNL     1     -18.011 -40.195  21.140  1.00  0.00     0.034 A 
HETATM   44 CL1  UNL     1     -18.010 -41.633  20.137  1.00  0.00    -0.084 Cl
HETATM   45  C5  UNL     1     -16.857 -39.483  21.395  1.00  0.00     0.024 A 
HETATM   46  C6  UNL     1     -16.917 -38.358  22.221  1.00  0.00     0.011 A 
ENDBRANCH   1  39
TORSDOF 9
ENDMDL
MODEL 3
REMARK VINA RESULT: -8.873740206      1.253      1.554
REMARK  9 active torsions:
REMARK  status: ('A' for Active; 'I' for Inactive)
REMARK    1  A    between atoms: C7_8  and  C8_9 
REMARK    2  A    between atoms: N2_16  and  C12_17 
REMARK    3  A    between atoms: C12_17  and  C13_18 
REMARK    4  A    between atoms: C13_18  and  C14_19 
REMARK    5  A    between atoms: C14_19  and  N3_20 
REMARK    6  A    between atoms: N3_20  and  C17_23 
REMARK    7  A    between atoms: C17_23  and  C18_24 
REMARK    8  A    between atoms: C18_24  and  C19_25 
REMARK    9  A    between atoms: C19_25  and  C20_26 
REMARK       I    between atoms: N4_28  and  C22_29 
ROOT
HETATM    1  C8  UNL     1     -16.421 -36.170  22.512  1.00  0.00     0.124 C 
HETATM    2  C9  UNL     1     -16.233 -37.649  22.707  1.00  0.00     0.062 C 
HETATM    3  C10 UNL     1     -17.299 -38.600  22.352  1.00  0.00     0.044 C 
HETATM    4  N1  UNL     1     -18.333 -38.026  21.560  1.00  0.00    -0.333 N 
ATOM      5  H1  UNL     1     -18.723 -38.503  20.748  1.00  0.00     0.165 HD
HETATM    6  C11 UNL     1     -18.793 -36.731  21.979  1.00  0.00     0.319 C 
HETATM    7  O1  UNL     1     -20.036 -36.472  21.844  1.00  0.00    -0.247 OA
HETATM    8  N2  UNL     1     -17.844 -35.834  22.517  1.00  0.00    -0.325 N 
HETATM    9  C25 UNL     1     -17.909 -39.264  23.579  1.00  0.00     0.015 C 
HETATM   10  C26 UNL     1     -16.847 -39.896  24.458  1.00  0.00     0.012 C 
HETATM   11  C27 UNL     1     -16.071 -40.871  23.633  1.00  0.00    -0.013 C 
HETATM   12  C28 UNL     1     -17.014 -42.011  23.266  1.00  0.00     0.009 C 
HETATM   13  C29 UNL     1     -18.132 -41.458  22.444  1.00  0.00    -0.013 C 
HETATM   14  C30 UNL     1     -18.846 -40.343  23.167  1.00  0.00     0.012 C 
HETATM   15  C31 UNL     1     -17.590 -40.826  21.169  1.00  0.00     0.012 C 
HETATM   16  C32 UNL     1     -16.649 -39.735  21.539  1.00  0.00     0.015 C 
HETATM   17  C33 UNL     1     -15.522 -40.308  22.365  1.00  0.00     0.012 C 
ENDROOT
BRANCH   8  18
HETATM   18  C12 UNL     1     -18.334 -34.611  23.058  1.00  0.00     0.130 C 
BRANCH  18  19
HETATM   19  C13 UNL     1     -18.347 -33.454  22.123  1.00  0.00     0.048 C 
BRANCH  19  20
HETATM   20  C14 UNL     1     -19.723 -33.113  21.631  1.00  0.00     0.238 C 
BRANCH  20  21
HETATM   21  N3  UNL     1     -19.642 -32.848  20.172  1.00  0.00    -0.075 N 
HETATM   22  C15 UNL     1     -18.294 -32.452  19.839  1.00  0.00     0.272 C 
HETATM   23  C16 UNL     1     -19.920 -34.097  19.519  1.00  0.00     0.272 C 
BRANCH  21  24
HETATM   24  C17 UNL     1     -20.600 -31.858  19.815  1.00  0.00     0.236 C 
BRANCH  24  25
HETATM   25  C18 UNL     1     -22.001 -32.275  20.165  1.00  0.00     0.030 C 
BRANCH  25  26
HETATM   26  C19 UNL     1     -22.691 -31.065  20.810  1.00  0.00     0.028 C 
BRANCH  26  27
HETATM   27  C20 UNL     1     -22.696 -31.304  22.304  1.00  0.00     0.094 C 
HETATM   28  C21 UNL     1     -23.117 -30.006  22.947  1.00  0.00     0.150 C 
HETATM   29  N4  UNL     1     -23.809 -30.161  24.182  1.00  0.00    -0.352 N 
HETATM   30  C22 UNL     1     -23.966 -29.039  25.013  1.00  0.00     0.184 C 
HETATM   31  C23 UNL     1     -24.348 -31.436  24.597  1.00  0.00     0.144 C 
HETATM   32  N5  UNL     1     -25.072 -28.825  25.610  1.00  0.00    -0.374 N 
HETATM   33  N6  UNL     1     -22.903 -28.121  25.209  1.00  0.00    -0.064 NA
ATOM     34  H52 UNL     1     -25.836 -29.486  25.469  1.00  0.00     0.158 HD
ATOM     35  H51 UNL     1     -25.187 -28.011  26.213  1.00  0.00     0.158 HD
HETATM   36  C24 UNL     1     -24.733 -32.167  23.300  1.00  0.00     0.134 C 
HETATM   37  N7  UNL     1     -23.537 -32.411  22.578  1.00  0.00    -0.414 N 
ATOM     38  H7  UNL     1     -23.291 -33.351  22.266  1.00  0.00     0.153 HD
ENDBRANCH  26  27
ENDBRANCH  25  26
ENDBRANCH  24  25
ENDBRANCH  21  24
ENDBRANCH  20  21
ENDBRANCH  19  20
ENDBRANCH  18  19
ENDBRANCH   8  18
BRANCH   1  39
HETATM   39  C7  UNL     1     -15.799 -35.543  23.738  1.00  0.00    -0.029 A 
HETATM   40  C2  UNL     1     -15.158 -34.345  23.665  1.00  0.00    -0.052 A 
HETATM   41  C1  UNL     1     -14.754 -33.709  22.387  1.00  0.00     0.049 C 
HETATM   42  C3  UNL     1     -14.728 -33.709  24.837  1.00  0.00     0.031 A 
HETATM   43  C4  UNL     1     -14.926 -34.252  26.080  1.00  0.00     0.034 A 
HETATM   44 CL1  UNL     1     -14.337 -33.422  27.508  1.00  0.00    -0.084 Cl
HETATM   45  C5  UNL     1     -15.575 -35.467  26.158  1.00  0.00     0.024 A 
HETATM   46  C6  UNL     1     -16.000 -36.092  24.983  1.00  0.00     0.011 A 
ENDBRANCH   1  39
TORSDOF 9
ENDMDL
MODEL 4
REMARK VINA RESULT: -8.663526352      2.616      5.414
REMARK  9 active torsions:
REMARK  status: ('A' for Active; 'I' for Inactive)
REMARK    1  A    between atoms: C7_8  and  C8_9 
REMARK    2  A    between atoms: N2_16  and  C12_17 
REMARK    3  A    between atoms: C12_17  and  C13_18 
REMARK    4  A    between atoms: C13_18  and  C14_19 
REMARK    5  A    between atoms: C14_19  and  N3_20 
REMARK    6  A    between atoms: N3_20  and  C17_23 
REMARK    7  A    between atoms: C17_23  and  C18_24 
REMARK    8  A    between atoms: C18_24  and  C19_25 
REMARK    9  A    between atoms: C19_25  and  C20_26 
REMARK       I    between atoms: N4_28  and  C22_29 
ROOT
HETATM    1  C8  UNL     1     -18.975 -37.795  23.470  1.00  0.00     0.124 C 
HETATM    2  C9  UNL     1     -17.657 -37.241  23.934  1.00  0.00     0.062 C 
HETATM    3  C10 UNL     1     -17.194 -35.916  23.490  1.00  0.00     0.044 C 
HETATM    4  N1  UNL     1     -18.212 -35.137  22.869  1.00  0.00    -0.333 N 
ATOM      5  H1  UNL     1     -18.341 -34.148  23.079  1.00  0.00     0.165 HD
HETATM    6  C11 UNL     1     -19.044 -35.834  21.929  1.00  0.00     0.319 C 
HETATM    7  O1  UNL     1     -19.439 -35.191  20.898  1.00  0.00    -0.247 OA
HETATM    8  N2  UNL     1     -19.365 -37.182  22.202  1.00  0.00    -0.325 N 
HETATM    9  C25 UNL     1     -15.991 -36.009  22.563  1.00  0.00     0.015 C 
HETATM   10  C26 UNL     1     -14.873 -36.829  23.177  1.00  0.00     0.012 C 
HETATM   11  C27 UNL     1     -14.510 -36.217  24.493  1.00  0.00    -0.013 C 
HETATM   12  C28 UNL     1     -13.891 -34.854  24.208  1.00  0.00     0.009 C 
HETATM   13  C29 UNL     1     -14.917 -33.997  23.538  1.00  0.00    -0.013 C 
HETATM   14  C30 UNL     1     -15.448 -34.652  22.287  1.00  0.00     0.012 C 
HETATM   15  C31 UNL     1     -16.130 -33.819  24.443  1.00  0.00     0.012 C 
HETATM   16  C32 UNL     1     -16.706 -35.158  24.738  1.00  0.00     0.015 C 
HETATM   17  C33 UNL     1     -15.662 -36.011  25.417  1.00  0.00     0.012 C 
ENDROOT
BRANCH   8  18
HETATM   18  C12 UNL     1     -20.071 -37.902  21.196  1.00  0.00     0.130 C 
BRANCH  18  19
HETATM   19  C13 UNL     1     -21.553 -37.895  21.319  1.00  0.00     0.048 C 
BRANCH  19  20
HETATM   20  C14 UNL     1     -22.252 -38.078  20.004  1.00  0.00     0.238 C 
BRANCH  20  21
HETATM   21  N3  UNL     1     -22.963 -36.816  19.676  1.00  0.00    -0.075 N 
HETATM   22  C15 UNL     1     -22.197 -36.083  18.697  1.00  0.00     0.272 C 
HETATM   23  C16 UNL     1     -24.211 -37.199  19.078  1.00  0.00     0.272 C 
BRANCH  21  24
HETATM   24  C17 UNL     1     -23.174 -36.068  20.868  1.00  0.00     0.236 C 
BRANCH  24  25
HETATM   25  C18 UNL     1     -23.138 -34.586  20.620  1.00  0.00     0.030 C 
BRANCH  25  26
HETATM   26  C19 UNL     1     -22.857 -33.903  21.966  1.00  0.00     0.028 C 
BRANCH  26  27
HETATM   27  C20 UNL     1     -22.964 -32.411  21.735  1.00  0.00     0.094 C 
HETATM   28  C21 UNL     1     -23.251 -31.788  23.077  1.00  0.00     0.150 C 
HETATM   29  N4  UNL     1     -22.749 -30.463  23.228  1.00  0.00    -0.352 N 
HETATM   30  C22 UNL     1     -23.220 -29.679  24.295  1.00  0.00     0.184 C 
HETATM   31  C23 UNL     1     -21.772 -29.912  22.316  1.00  0.00     0.144 C 
HETATM   32  N5  UNL     1     -22.419 -28.951  24.966  1.00  0.00    -0.374 N 
HETATM   33  N6  UNL     1     -24.594 -29.678  24.648  1.00  0.00    -0.064 NA
ATOM     34  H52 UNL     1     -21.431 -28.951  24.713  1.00  0.00     0.158 HD
ATOM     35  H51 UNL     1     -22.761 -28.382  25.741  1.00  0.00     0.158 HD
HETATM   36  C24 UNL     1     -20.922 -31.105  21.846  1.00  0.00     0.134 C 
HETATM   37  N7  UNL     1     -21.772 -31.968  21.109  1.00  0.00    -0.414 N 
ATOM     38  H7  UNL     1     -21.534 -32.260  20.160  1.00  0.00     0.153 HD
ENDBRANCH  26  27
ENDBRANCH  25  26
ENDBRANCH  24  25
ENDBRANCH  21  24
ENDBRANCH  20  21
ENDBRANCH  19  20
ENDBRANCH  18  19
ENDBRANCH   8  18
BRANCH   1  39
HETATM   39  C7  UNL     1     -18.702 -39.257  23.208  1.00  0.00    -0.029 A 
HETATM   40  C2  UNL     1     -19.607 -40.213  23.552  1.00  0.00    -0.052 A 
HETATM   41  C1  UNL     1     -20.758 -39.964  24.454  1.00  0.00     0.049 C 
HETATM   42  C3  UNL     1     -19.405 -41.542  23.159  1.00  0.00     0.031 A 
HETATM   43  C4  UNL     1     -18.312 -41.932  22.429  1.00  0.00     0.034 A 
HETATM   44 CL1  UNL     1     -18.099 -43.617  21.992  1.00  0.00    -0.084 Cl
HETATM   45  C5  UNL     1     -17.392 -40.965  22.077  1.00  0.00     0.024 A 
HETATM   46  C6  UNL     1     -17.604 -39.643  22.474  1.00  0.00     0.011 A 
ENDBRANCH   1  39
TORSDOF 9
ENDMDL
MODEL 5
REMARK VINA RESULT: -8.629223268      2.232      2.917
REMARK  9 active torsions:
REMARK  status: ('A' for Active; 'I' for Inactive)
REMARK    1  A    between atoms: C7_8  and  C8_9 
REMARK    2  A    between atoms: N2_16  and  C12_17 
REMARK    3  A    between atoms: C12_17  and  C13_18 
REMARK    4  A    between atoms: C13_18  and  C14_19 
REMARK    5  A    between atoms: C14_19  and  N3_20 
REMARK    6  A    between atoms: N3_20  and  C17_23 
REMARK    7  A    between atoms: C17_23  and  C18_24 
REMARK    8  A    between atoms: C18_24  and  C19_25 
REMARK    9  A    between atoms: C19_25  and  C20_26 
REMARK       I    between atoms: N4_28  and  C22_29 
ROOT
HETATM    1  C8  UNL     1     -15.557 -36.509  22.477  1.00  0.00     0.124 C 
HETATM    2  C9  UNL     1     -14.817 -37.813  22.572  1.00  0.00     0.062 C 
HETATM    3  C10 UNL     1     -15.465 -39.080  22.193  1.00  0.00     0.044 C 
HETATM    4  N1  UNL     1     -16.681 -38.904  21.475  1.00  0.00    -0.333 N 
ATOM      5  H1  UNL     1     -16.907 -39.456  20.648  1.00  0.00     0.165 HD
HETATM    6  C11 UNL     1     -17.570 -37.900  21.990  1.00  0.00     0.319 C 
HETATM    7  O1  UNL     1     -18.825 -38.125  21.913  1.00  0.00    -0.247 OA
HETATM    8  N2  UNL     1     -16.999 -36.736  22.551  1.00  0.00    -0.325 N 
HETATM    9  C25 UNL     1     -15.712 -39.980  23.396  1.00  0.00     0.015 C 
HETATM   10  C26 UNL     1     -14.444 -40.204  24.198  1.00  0.00     0.012 C 
HETATM   11  C27 UNL     1     -13.405 -40.774  23.287  1.00  0.00    -0.013 C 
HETATM   12  C28 UNL     1     -13.868 -42.168  22.881  1.00  0.00     0.009 C 
HETATM   13  C29 UNL     1     -15.156 -42.042  22.133  1.00  0.00    -0.013 C 
HETATM   14  C30 UNL     1     -16.196 -41.314  22.949  1.00  0.00     0.012 C 
HETATM   15  C31 UNL     1     -14.962 -41.194  20.883  1.00  0.00     0.012 C 
HETATM   16  C32 UNL     1     -14.482 -39.846  21.290  1.00  0.00     0.015 C 
HETATM   17  C33 UNL     1     -13.179 -39.987  22.039  1.00  0.00     0.012 C 
ENDROOT
BRANCH   8  18
HETATM   18  C12 UNL     1     -17.882 -35.816  23.183  1.00  0.00     0.130 C 
BRANCH  18  19
HETATM   19  C13 UNL     1     -18.126 -34.547  22.446  1.00  0.00     0.048 C 
BRANCH  19  20
HETATM   20  C14 UNL     1     -19.177 -34.678  21.384  1.00  0.00     0.238 C 
BRANCH  20  21
HETATM   21  N3  UNL     1     -19.333 -33.359  20.720  1.00  0.00    -0.075 N 
HETATM   22  C15 UNL     1     -18.028 -32.775  20.519  1.00  0.00     0.272 C 
HETATM   23  C16 UNL     1     -19.913 -33.620  19.432  1.00  0.00     0.272 C 
BRANCH  21  24
HETATM   24  C17 UNL     1     -20.181 -32.529  21.506  1.00  0.00     0.236 C 
BRANCH  24  25
HETATM   25  C18 UNL     1     -21.000 -31.595  20.661  1.00  0.00     0.030 C 
BRANCH  25  26
HETATM   26  C19 UNL     1     -22.476 -31.846  20.999  1.00  0.00     0.028 C 
BRANCH  26  27
HETATM   27  C20 UNL     1     -22.581 -31.891  22.508  1.00  0.00     0.094 C 
HETATM   28  C21 UNL     1     -22.818 -30.475  22.966  1.00  0.00     0.150 C 
HETATM   29  N4  UNL     1     -23.577 -30.366  24.167  1.00  0.00    -0.352 N 
HETATM   30  C22 UNL     1     -23.590 -29.138  24.849  1.00  0.00     0.184 C 
HETATM   31  C23 UNL     1     -24.327 -31.483  24.696  1.00  0.00     0.144 C 
HETATM   32  N5  UNL     1     -24.672 -28.686  25.348  1.00  0.00    -0.374 N 
HETATM   33  N6  UNL     1     -22.405 -28.374  25.000  1.00  0.00    -0.064 NA
ATOM     34  H52 UNL     1     -25.525 -29.235  25.240  1.00  0.00     0.158 HD
ATOM     35  H51 UNL     1     -24.682 -27.794  25.843  1.00  0.00     0.158 HD
HETATM   36  C24 UNL     1     -24.769 -32.303  23.473  1.00  0.00     0.134 C 
HETATM   37  N7  UNL     1     -23.597 -32.815  22.859  1.00  0.00    -0.414 N 
ATOM     38  H7  UNL     1     -23.490 -33.813  22.675  1.00  0.00     0.153 HD
ENDBRANCH  26  27
ENDBRANCH  25  26
ENDBRANCH  24  25
ENDBRANCH  21  24
ENDBRANCH  20  21
ENDBRANCH  19  20
ENDBRANCH  18  19
ENDBRANCH   8  18
BRANCH   1  39
HETATM   39  C7  UNL     1     -15.150 -35.750  23.719  1.00  0.00    -0.029 A 
HETATM   40  C2  UNL     1     -14.891 -34.415  23.672  1.00  0.00    -0.052 A 
HETATM   41  C1  UNL     1     -14.690 -33.664  22.408  1.00  0.00     0.049 C 
HETATM   42  C3  UNL     1     -14.670 -33.703  24.858  1.00  0.00     0.031 A 
HETATM   43  C4  UNL     1     -14.701 -34.304  26.089  1.00  0.00     0.034 A 
HETATM   44 CL1  UNL     1     -14.386 -33.365  27.536  1.00  0.00    -0.084 Cl
HETATM   45  C5  UNL     1     -14.963 -35.658  26.141  1.00  0.00     0.024 A 
HETATM   46  C6  UNL     1     -15.182 -36.357  24.952  1.00  0.00     0.011 A 
ENDBRANCH   1  39
TORSDOF 9
ENDMDL
