MODEL 1
REMARK VINA RESULT: -9.301480164      0.000      0.000
REMARK  18 active torsions:
REMARK  status: ('A' for Active; 'I' for Inactive)
REMARK    1  A    between atoms: C2_2  and  C4_4 
REMARK    2  A    between atoms: C4_4  and  C5_5 
REMARK    3  A    between atoms: C5_5  and  N1_6 
REMARK    4  A    between atoms: C5_5  and  C11_14 
REMARK       I    between atoms: N1_6  and  C6_7 
REMARK    5  A    between atoms: C6_7  and  O2_9 
REMARK    6  A    between atoms: O2_9  and  C7_10 
REMARK    7  A    between atoms: C11_14  and  O3_15 
REMARK    8  A    between atoms: C11_14  and  N2_17 
REMARK    9  A    between atoms: C17_23  and  C18_24 
REMARK       I    between atoms: C18_24  and  N3_26 
REMARK   10  A    between atoms: N3_26  and  C19_28 
REMARK   11  A    between atoms: C19_28  and  C20_29 
REMARK   12  A    between atoms: C20_29  and  C21_30 
REMARK   13  A    between atoms: C21_30  and  C22_31 
REMARK   14  A    between atoms: C22_31  and  C23_32 
REMARK   15  A    between atoms: C23_32  and  N4_33 
REMARK   16  A    between atoms: C23_32  and  C31_46 
REMARK       I    between atoms: N4_33  and  C24_35 
REMARK   17  A    between atoms: C24_35  and  C25_37 
REMARK   18  A    between atoms: C25_37  and  C26_38 
ROOT
HETATM    1  C18 UNL     1      11.886  22.146   6.171  1.00  0.00     0.264 C 
HETATM    2  O4  UNL     1      11.642  21.036   6.772  1.00  0.00    -0.266 OA
HETATM    3  N3  UNL     1      13.004  22.876   6.640  1.00  0.00    -0.356 N 
ATOM      4  H3  UNL     1      13.222  23.726   6.120  1.00  0.00     0.162 HD
ENDROOT
BRANCH   1   5
HETATM    5  C17 UNL     1      11.100  22.674   5.100  1.00  0.00     0.082 C 
HETATM    6  N2  UNL     1      10.640  24.001   4.905  1.00  0.00    -0.324 N 
HETATM    7  C12 UNL     1       9.607  24.260   3.900  1.00  0.00     0.131 C 
HETATM    8  C13 UNL     1      10.235  24.789   2.619  1.00  0.00     0.020 C 
HETATM    9  C14 UNL     1      11.199  23.809   2.005  1.00  0.00     0.002 C 
HETATM   10  C15 UNL     1      12.235  23.296   2.995  1.00  0.00     0.006 C 
HETATM   11  C16 UNL     1      11.594  22.160   3.731  1.00  0.00     0.063 C 
BRANCH   6  12
HETATM   12  C11 UNL     1      11.131  25.044   5.648  1.00  0.00     0.180 C 
BRANCH  12  13
HETATM   13  C5  UNL     1      10.588  25.957   6.671  1.00  0.00     0.142 C 
BRANCH  13  14
HETATM   14  C4  UNL     1      10.736  25.432   8.077  1.00  0.00     0.081 C 
BRANCH  14  15
HETATM   15  C2  UNL     1      10.142  26.360   9.140  1.00  0.00    -0.016 C 
HETATM   16  C1  UNL     1      10.955  27.583   9.416  1.00  0.00     0.010 C 
HETATM   17  C3  UNL     1      10.010  25.629  10.467  1.00  0.00     0.010 C 
ENDBRANCH  14  15
ENDBRANCH  13  14
BRANCH  13  18
HETATM   18  N1  UNL     1       9.493  26.663   6.338  1.00  0.00    -0.346 NA
HETATM   19  C6  UNL     1       8.354  27.392   5.979  1.00  0.00     0.441 C 
HETATM   20  O1  UNL     1       7.692  27.325   4.948  1.00  0.00    -0.221 OA
BRANCH  19  21
HETATM   21  O2  UNL     1       7.893  28.350   6.925  1.00  0.00    -0.282 OA
BRANCH  21  22
HETATM   22  C7  UNL     1       6.962  28.149   7.913  1.00  0.00     0.062 C 
HETATM   23  C8  UNL     1       5.669  28.896   7.444  1.00  0.00     0.046 C 
HETATM   24  C9  UNL     1       6.540  26.688   8.047  1.00  0.00     0.046 C 
HETATM   25  C10 UNL     1       7.335  28.749   9.212  1.00  0.00     0.046 C 
ENDBRANCH  21  22
ENDBRANCH  19  21
ENDBRANCH  13  18
ENDBRANCH  12  13
BRANCH  12  26
HETATM   26  O3  UNL     1      12.424  25.365   5.436  1.00  0.00    -0.344 OA
ATOM     27  H3  UNL     1      12.968  24.751   5.915  1.00  0.00     0.219 HD
ENDBRANCH  12  26
ENDBRANCH   6  12
ENDBRANCH   1   5
BRANCH   3  28
HETATM   28  C19 UNL     1      13.874  22.588   7.746  1.00  0.00     0.123 C 
BRANCH  28  29
HETATM   29  C20 UNL     1      15.121  23.533   7.606  1.00  0.00     0.020 C 
BRANCH  29  30
HETATM   30  C21 UNL     1      16.163  23.024   8.547  1.00  0.00     0.004 C 
BRANCH  30  31
HETATM   31  C22 UNL     1      16.430  21.592   8.545  1.00  0.00     0.036 C 
BRANCH  31  32
HETATM   32  C23 UNL     1      16.933  20.802   7.461  1.00  0.00     0.185 C 
BRANCH  32  33
HETATM   33  N4  UNL     1      16.175  19.794   6.789  1.00  0.00    -0.347 N 
HETATM   34  C24 UNL     1      15.541  20.159   5.557  1.00  0.00     0.218 C 
HETATM   35  O5  UNL     1      15.717  21.361   5.147  1.00  0.00    -0.274 OA
ATOM     36  H4  UNL     1      16.089  18.852   7.171  1.00  0.00     0.163 HD
BRANCH  34  37
HETATM   37  C25 UNL     1      14.723  19.293   4.738  1.00  0.00     0.107 C 
BRANCH  37  38
HETATM   38  C26 UNL     1      15.512  18.913   3.494  1.00  0.00    -0.003 C 
HETATM   39  C27 UNL     1      16.156  17.530   3.663  1.00  0.00     0.032 C 
HETATM   40  C28 UNL     1      17.313  17.452   2.712  1.00  0.00     0.232 C 
HETATM   41  N5  UNL     1      17.115  18.353   1.574  1.00  0.00    -0.075 N 
HETATM   42  C29 UNL     1      15.756  18.441   1.136  1.00  0.00     0.232 C 
ATOM     43  H52 UNL     1      17.486  19.280   1.782  1.00  0.00     0.277 HD
ATOM     44  H51 UNL     1      17.726  18.094   0.800  1.00  0.00     0.277 HD
HETATM   45  C30 UNL     1      14.793  18.962   2.198  1.00  0.00     0.032 C 
ENDBRANCH  37  38
ENDBRANCH  34  37
ENDBRANCH  32  33
BRANCH  32  46
HETATM   46  C31 UNL     1      18.133  20.019   8.119  1.00  0.00     0.196 C 
HETATM   47  O6  UNL     1      18.687  20.395   9.116  1.00  0.00    -0.646 OA
HETATM   48  O7  UNL     1      18.466  18.860   7.418  1.00  0.00    -0.646 OA
ENDBRANCH  32  46
ENDBRANCH  31  32
ENDBRANCH  30  31
ENDBRANCH  29  30
ENDBRANCH  28  29
ENDBRANCH   3  28
TORSDOF 18
ENDMDL
MODEL 2
REMARK VINA RESULT: -9.069393164      1.307      2.050
REMARK  18 active torsions:
REMARK  status: ('A' for Active; 'I' for Inactive)
REMARK    1  A    between atoms: C2_2  and  C4_4 
REMARK    2  A    between atoms: C4_4  and  C5_5 
REMARK    3  A    between atoms: C5_5  and  N1_6 
REMARK    4  A    between atoms: C5_5  and  C11_14 
REMARK       I    between atoms: N1_6  and  C6_7 
REMARK    5  A    between atoms: C6_7  and  O2_9 
REMARK    6  A    between atoms: O2_9  and  C7_10 
REMARK    7  A    between atoms: C11_14  and  O3_15 
REMARK    8  A    between atoms: C11_14  and  N2_17 
REMARK    9  A    between atoms: C17_23  and  C18_24 
REMARK       I    between atoms: C18_24  and  N3_26 
REMARK   10  A    between atoms: N3_26  and  C19_28 
REMARK   11  A    between atoms: C19_28  and  C20_29 
REMARK   12  A    between atoms: C20_29  and  C21_30 
REMARK   13  A    between atoms: C21_30  and  C22_31 
REMARK   14  A    between atoms: C22_31  and  C23_32 
REMARK   15  A    between atoms: C23_32  and  N4_33 
REMARK   16  A    between atoms: C23_32  and  C31_46 
REMARK       I    between atoms: N4_33  and  C24_35 
REMARK   17  A    between atoms: C24_35  and  C25_37 
REMARK   18  A    between atoms: C25_37  and  C26_38 
ROOT
HETATM    1  C18 UNL     1      11.906  22.120   5.715  1.00  0.00     0.264 C 
HETATM    2  O4  UNL     1      11.647  21.299   6.670  1.00  0.00    -0.266 OA
HETATM    3  N3  UNL     1      13.263  22.488   5.559  1.00  0.00    -0.356 N 
ATOM      4  H3  UNL     1      13.465  23.095   4.764  1.00  0.00     0.162 HD
ENDROOT
BRANCH   1   5
HETATM    5  C17 UNL     1      10.921  22.679   4.842  1.00  0.00     0.082 C 
HETATM    6  N2  UNL     1      10.376  23.988   4.837  1.00  0.00    -0.324 N 
HETATM    7  C12 UNL     1       9.173  24.260   4.050  1.00  0.00     0.131 C 
HETATM    8  C13 UNL     1       9.541  24.915   2.727  1.00  0.00     0.020 C 
HETATM    9  C14 UNL     1      10.424  24.039   1.878  1.00  0.00     0.002 C 
HETATM   10  C15 UNL     1      11.640  23.515   2.630  1.00  0.00     0.006 C 
HETATM   11  C16 UNL     1      11.188  22.294   3.371  1.00  0.00     0.063 C 
BRANCH   6  12
HETATM   12  C11 UNL     1      10.945  25.001   5.567  1.00  0.00     0.180 C 
BRANCH  12  13
HETATM   13  C5  UNL     1      10.478  25.949   6.595  1.00  0.00     0.142 C 
BRANCH  13  14
HETATM   14  C4  UNL     1      10.682  25.449   8.003  1.00  0.00     0.081 C 
BRANCH  14  15
HETATM   15  C2  UNL     1      10.119  26.390   9.072  1.00  0.00    -0.016 C 
HETATM   16  C1  UNL     1      10.982  27.572   9.371  1.00  0.00     0.010 C 
HETATM   17  C3  UNL     1       9.943  25.650  10.389  1.00  0.00     0.010 C 
ENDBRANCH  14  15
ENDBRANCH  13  14
BRANCH  13  18
HETATM   18  N1  UNL     1       9.388  26.679   6.301  1.00  0.00    -0.346 NA
HETATM   19  C6  UNL     1       8.253  27.432   5.983  1.00  0.00     0.441 C 
HETATM   20  O1  UNL     1       7.558  27.384   4.973  1.00  0.00    -0.221 OA
BRANCH  19  21
HETATM   21  O2  UNL     1       7.841  28.392   6.949  1.00  0.00    -0.282 OA
BRANCH  21  22
HETATM   22  C7  UNL     1       6.822  28.259   7.859  1.00  0.00     0.062 C 
HETATM   23  C8  UNL     1       7.384  28.801   9.216  1.00  0.00     0.046 C 
HETATM   24  C9  UNL     1       5.625  29.154   7.550  1.00  0.00     0.046 C 
HETATM   25  C10 UNL     1       6.428  26.856   8.108  1.00  0.00     0.046 C 
ENDBRANCH  21  22
ENDBRANCH  19  21
ENDBRANCH  13  18
ENDBRANCH  12  13
BRANCH  12  26
HETATM   26  O3  UNL     1      12.252  25.239   5.331  1.00  0.00    -0.344 OA
ATOM     27  H3  UNL     1      12.487  24.831   4.505  1.00  0.00     0.219 HD
ENDBRANCH  12  26
ENDBRANCH   6  12
ENDBRANCH   1   5
BRANCH   3  28
HETATM   28  C19 UNL     1      14.397  22.126   6.364  1.00  0.00     0.123 C 
BRANCH  28  29
HETATM   29  C20 UNL     1      14.560  23.246   7.454  1.00  0.00     0.020 C 
BRANCH  29  30
HETATM   30  C21 UNL     1      15.906  23.059   8.074  1.00  0.00     0.004 C 
BRANCH  30  31
HETATM   31  C22 UNL     1      16.030  22.059   9.124  1.00  0.00     0.036 C 
BRANCH  31  32
HETATM   32  C23 UNL     1      16.684  20.786   9.043  1.00  0.00     0.185 C 
BRANCH  32  33
HETATM   33  N4  UNL     1      16.846  20.049   7.830  1.00  0.00    -0.347 N 
HETATM   34  C24 UNL     1      18.088  20.194   7.131  1.00  0.00     0.218 C 
HETATM   35  O5  UNL     1      18.965  20.965   7.660  1.00  0.00    -0.274 OA
ATOM     36  H4  UNL     1      16.106  19.443   7.475  1.00  0.00     0.163 HD
BRANCH  34  37
HETATM   37  C25 UNL     1      18.440  19.548   5.886  1.00  0.00     0.107 C 
BRANCH  37  38
HETATM   38  C26 UNL     1      17.195  18.888   5.314  1.00  0.00    -0.003 C 
HETATM   39  C27 UNL     1      16.441  19.859   4.395  1.00  0.00     0.032 C 
HETATM   40  C28 UNL     1      15.018  19.393   4.314  1.00  0.00     0.232 C 
HETATM   41  N5  UNL     1      14.925  17.955   4.573  1.00  0.00    -0.075 N 
HETATM   42  C29 UNL     1      16.019  17.200   4.044  1.00  0.00     0.232 C 
ATOM     43  H52 UNL     1      14.815  17.777   5.572  1.00  0.00     0.277 HD
ATOM     44  H51 UNL     1      14.037  17.585   4.235  1.00  0.00     0.277 HD
HETATM   45  C30 UNL     1      17.379  17.595   4.611  1.00  0.00     0.032 C 
ENDBRANCH  37  38
ENDBRANCH  34  37
ENDBRANCH  32  33
BRANCH  32  46
HETATM   46  C31 UNL     1      15.781  19.863   9.947  1.00  0.00     0.196 C 
HETATM   47  O6  UNL     1      16.057  18.720  10.191  1.00  0.00    -0.646 OA
HETATM   48  O7  UNL     1      14.645  20.522  10.420  1.00  0.00    -0.646 OA
ENDBRANCH  32  46
ENDBRANCH  31  32
ENDBRANCH  30  31
ENDBRANCH  29  30
ENDBRANCH  28  29
ENDBRANCH   3  28
TORSDOF 18
ENDMDL
MODEL 3
REMARK VINA RESULT: -8.844357541      1.893      4.836
REMARK  18 active torsions:
REMARK  status: ('A' for Active; 'I' for Inactive)
REMARK    1  A    between atoms: C2_2  and  C4_4 
REMARK    2  A    between atoms: C4_4  and  C5_5 
REMARK    3  A    between atoms: C5_5  and  N1_6 
REMARK    4  A    between atoms: C5_5  and  C11_14 
REMARK       I    between atoms: N1_6  and  C6_7 
REMARK    5  A    between atoms: C6_7  and  O2_9 
REMARK    6  A    between atoms: O2_9  and  C7_10 
REMARK    7  A    between atoms: C11_14  and  O3_15 
REMARK    8  A    between atoms: C11_14  and  N2_17 
REMARK    9  A    between atoms: C17_23  and  C18_24 
REMARK       I    between atoms: C18_24  and  N3_26 
REMARK   10  A    between atoms: N3_26  and  C19_28 
REMARK   11  A    between atoms: C19_28  and  C20_29 
REMARK   12  A    between atoms: C20_29  and  C21_30 
REMARK   13  A    between atoms: C21_30  and  C22_31 
REMARK   14  A    between atoms: C22_31  and  C23_32 
REMARK   15  A    between atoms: C23_32  and  N4_33 
REMARK   16  A    between atoms: C23_32  and  C31_46 
REMARK       I    between atoms: N4_33  and  C24_35 
REMARK   17  A    between atoms: C24_35  and  C25_37 
REMARK   18  A    between atoms: C25_37  and  C26_38 
ROOT
HETATM    1  C18 UNL     1       9.955  25.622   6.384  1.00  0.00     0.264 C 
HETATM    2  O4  UNL     1       9.052  24.743   6.127  1.00  0.00    -0.266 OA
HETATM    3  N3  UNL     1      11.201  25.442   5.738  1.00  0.00    -0.356 N 
ATOM      4  H3  UNL     1      11.891  26.174   5.905  1.00  0.00     0.162 HD
ENDROOT
BRANCH   1   5
HETATM    5  C17 UNL     1       9.778  26.724   7.276  1.00  0.00     0.082 C 
HETATM    6  N2  UNL     1       8.574  27.335   7.708  1.00  0.00    -0.324 N 
HETATM    7  C12 UNL     1       8.630  28.630   8.387  1.00  0.00     0.131 C 
HETATM    8  C13 UNL     1       8.526  28.444   9.893  1.00  0.00     0.020 C 
HETATM    9  C14 UNL     1       9.653  27.615  10.450  1.00  0.00     0.002 C 
HETATM   10  C15 UNL     1       9.842  26.298   9.710  1.00  0.00     0.006 C 
HETATM   11  C16 UNL     1      10.692  26.601   8.514  1.00  0.00     0.063 C 
BRANCH   6  12
HETATM   12  C11 UNL     1       7.355  26.744   7.490  1.00  0.00     0.180 C 
BRANCH  12  13
HETATM   13  C5  UNL     1       6.156  27.065   6.694  1.00  0.00     0.142 C 
BRANCH  13  14
HETATM   14  C4  UNL     1       4.889  27.096   7.511  1.00  0.00     0.081 C 
BRANCH  14  15
HETATM   15  C2  UNL     1       4.222  28.474   7.551  1.00  0.00    -0.016 C 
HETATM   16  C1  UNL     1       5.027  29.531   8.234  1.00  0.00     0.010 C 
HETATM   17  C3  UNL     1       2.898  28.400   8.295  1.00  0.00     0.010 C 
ENDBRANCH  14  15
ENDBRANCH  13  14
BRANCH  13  18
HETATM   18  N1  UNL     1       6.121  26.603   5.432  1.00  0.00    -0.346 NA
HETATM   19  C6  UNL     1       6.071  26.121   4.119  1.00  0.00     0.441 C 
HETATM   20  O1  UNL     1       5.090  25.802   3.455  1.00  0.00    -0.221 OA
BRANCH  19  21
HETATM   21  O2  UNL     1       7.320  25.969   3.455  1.00  0.00    -0.282 OA
BRANCH  21  22
HETATM   22  C7  UNL     1       7.674  24.965   2.588  1.00  0.00     0.062 C 
HETATM   23  C8  UNL     1       9.205  25.147   2.322  1.00  0.00     0.046 C 
HETATM   24  C9  UNL     1       7.549  23.574   3.203  1.00  0.00     0.046 C 
HETATM   25  C10 UNL     1       7.013  25.060   1.268  1.00  0.00     0.046 C 
ENDBRANCH  21  22
ENDBRANCH  19  21
ENDBRANCH  13  18
ENDBRANCH  12  13
BRANCH  12  26
HETATM   26  O3  UNL     1       7.138  25.579   8.135  1.00  0.00    -0.344 OA
ATOM     27  H3  UNL     1       7.740  25.525   8.868  1.00  0.00     0.219 HD
ENDBRANCH  12  26
ENDBRANCH   6  12
ENDBRANCH   1   5
BRANCH   3  28
HETATM   28  C19 UNL     1      11.630  24.372   4.881  1.00  0.00     0.123 C 
BRANCH  28  29
HETATM   29  C20 UNL     1      13.090  23.992   5.317  1.00  0.00     0.020 C 
BRANCH  29  30
HETATM   30  C21 UNL     1      13.051  23.724   6.786  1.00  0.00     0.004 C 
BRANCH  30  31
HETATM   31  C22 UNL     1      14.269  23.231   7.413  1.00  0.00     0.036 C 
BRANCH  31  32
HETATM   32  C23 UNL     1      15.204  22.287   6.877  1.00  0.00     0.185 C 
BRANCH  32  33
HETATM   33  N4  UNL     1      14.894  20.916   6.618  1.00  0.00    -0.347 N 
HETATM   34  C24 UNL     1      15.022  20.456   5.268  1.00  0.00     0.218 C 
HETATM   35  O5  UNL     1      15.419  21.310   4.398  1.00  0.00    -0.274 OA
ATOM     36  H4  UNL     1      14.594  20.290   7.366  1.00  0.00     0.163 HD
BRANCH  34  37
HETATM   37  C25 UNL     1      14.743  19.116   4.800  1.00  0.00     0.107 C 
BRANCH  37  38
HETATM   38  C26 UNL     1      15.593  18.845   3.569  1.00  0.00    -0.003 C 
HETATM   39  C27 UNL     1      16.502  17.629   3.796  1.00  0.00     0.032 C 
HETATM   40  C28 UNL     1      17.652  17.739   2.839  1.00  0.00     0.232 C 
HETATM   41  N5  UNL     1      17.278  18.528   1.663  1.00  0.00    -0.075 N 
HETATM   42  C29 UNL     1      15.929  18.321   1.233  1.00  0.00     0.232 C 
ATOM     43  H52 UNL     1      17.455  19.519   1.825  1.00  0.00     0.277 HD
ATOM     44  H51 UNL     1      17.929  18.360   0.896  1.00  0.00     0.277 HD
HETATM   45  C30 UNL     1      14.881  18.687   2.278  1.00  0.00     0.032 C 
ENDBRANCH  37  38
ENDBRANCH  34  37
ENDBRANCH  32  33
BRANCH  32  46
HETATM   46  C31 UNL     1      16.329  22.235   7.981  1.00  0.00     0.196 C 
HETATM   47  O6  UNL     1      16.970  21.246   8.210  1.00  0.00    -0.646 OA
HETATM   48  O7  UNL     1      16.485  23.452   8.646  1.00  0.00    -0.646 OA
ENDBRANCH  32  46
ENDBRANCH  31  32
ENDBRANCH  30  31
ENDBRANCH  29  30
ENDBRANCH  28  29
ENDBRANCH   3  28
TORSDOF 18
ENDMDL
MODEL 4
REMARK VINA RESULT: -8.742248540      2.494      5.203
REMARK  18 active torsions:
REMARK  status: ('A' for Active; 'I' for Inactive)
REMARK    1  A    between atoms: C2_2  and  C4_4 
REMARK    2  A    between atoms: C4_4  and  C5_5 
REMARK    3  A    between atoms: C5_5  and  N1_6 
REMARK    4  A    between atoms: C5_5  and  C11_14 
REMARK       I    between atoms: N1_6  and  C6_7 
REMARK    5  A    between atoms: C6_7  and  O2_9 
REMARK    6  A    between atoms: O2_9  and  C7_10 
REMARK    7  A    between atoms: C11_14  and  O3_15 
REMARK    8  A    between atoms: C11_14  and  N2_17 
REMARK    9  A    between atoms: C17_23  and  C18_24 
REMARK       I    between atoms: C18_24  and  N3_26 
REMARK   10  A    between atoms: N3_26  and  C19_28 
REMARK   11  A    between atoms: C19_28  and  C20_29 
REMARK   12  A    between atoms: C20_29  and  C21_30 
REMARK   13  A    between atoms: C21_30  and  C22_31 
REMARK   14  A    between atoms: C22_31  and  C23_32 
REMARK   15  A    between atoms: C23_32  and  N4_33 
REMARK   16  A    between atoms: C23_32  and  C31_46 
REMARK       I    between atoms: N4_33  and  C24_35 
REMARK   17  A    between atoms: C24_35  and  C25_37 
REMARK   18  A    between atoms: C25_37  and  C26_38 
ROOT
HETATM    1  C18 UNL     1       9.639  25.283   6.272  1.00  0.00     0.264 C 
HETATM    2  O4  UNL     1       9.814  24.097   6.738  1.00  0.00    -0.266 OA
HETATM    3  N3  UNL     1       9.508  25.388   4.867  1.00  0.00    -0.356 N 
ATOM      4  H3  UNL     1       9.313  26.325   4.514  1.00  0.00     0.162 HD
ENDROOT
BRANCH   1   5
HETATM    5  C17 UNL     1       9.591  26.466   7.073  1.00  0.00     0.082 C 
HETATM    6  N2  UNL     1       8.459  27.201   7.507  1.00  0.00    -0.324 N 
HETATM    7  C12 UNL     1       8.646  28.540   8.068  1.00  0.00     0.131 C 
HETATM    8  C13 UNL     1       8.609  28.488   9.588  1.00  0.00     0.020 C 
HETATM    9  C14 UNL     1       9.702  27.623  10.160  1.00  0.00     0.002 C 
HETATM   10  C15 UNL     1       9.754  26.239   9.529  1.00  0.00     0.006 C 
HETATM   11  C16 UNL     1      10.558  26.375   8.273  1.00  0.00     0.063 C 
BRANCH   6  12
HETATM   12  C11 UNL     1       7.190  26.690   7.398  1.00  0.00     0.180 C 
BRANCH  12  13
HETATM   13  C5  UNL     1       5.975  27.039   6.639  1.00  0.00     0.142 C 
BRANCH  13  14
HETATM   14  C4  UNL     1       4.735  27.101   7.495  1.00  0.00     0.081 C 
BRANCH  14  15
HETATM   15  C2  UNL     1       4.098  28.492   7.545  1.00  0.00    -0.016 C 
HETATM   16  C1  UNL     1       4.901  29.514   8.282  1.00  0.00     0.010 C 
HETATM   17  C3  UNL     1       2.747  28.431   8.241  1.00  0.00     0.010 C 
ENDBRANCH  14  15
ENDBRANCH  13  14
BRANCH  13  18
HETATM   18  N1  UNL     1       5.890  26.576   5.380  1.00  0.00    -0.346 NA
HETATM   19  C6  UNL     1       5.815  26.096   4.068  1.00  0.00     0.441 C 
HETATM   20  O1  UNL     1       6.730  25.838   3.291  1.00  0.00    -0.221 OA
BRANCH  19  21
HETATM   21  O2  UNL     1       4.508  25.879   3.548  1.00  0.00    -0.282 OA
BRANCH  21  22
HETATM   22  C7  UNL     1       3.731  24.760   3.718  1.00  0.00     0.062 C 
HETATM   23  C8  UNL     1       2.575  24.878   2.669  1.00  0.00     0.046 C 
HETATM   24  C9  UNL     1       4.456  23.468   3.354  1.00  0.00     0.046 C 
HETATM   25  C10 UNL     1       3.078  24.687   5.043  1.00  0.00     0.046 C 
ENDBRANCH  21  22
ENDBRANCH  19  21
ENDBRANCH  13  18
ENDBRANCH  12  13
BRANCH  12  26
HETATM   26  O3  UNL     1       6.925  25.599   8.147  1.00  0.00    -0.344 OA
ATOM     27  H3  UNL     1       6.408  25.868   8.897  1.00  0.00     0.219 HD
ENDBRANCH  12  26
ENDBRANCH   6  12
ENDBRANCH   1   5
BRANCH   3  28
HETATM   28  C19 UNL     1       9.611  24.360   3.869  1.00  0.00     0.123 C 
BRANCH  28  29
HETATM   29  C20 UNL     1      11.076  24.415   3.305  1.00  0.00     0.020 C 
BRANCH  29  30
HETATM   30  C21 UNL     1      11.810  23.249   3.882  1.00  0.00     0.004 C 
BRANCH  30  31
HETATM   31  C22 UNL     1      12.786  23.520   4.928  1.00  0.00     0.036 C 
BRANCH  31  32
HETATM   32  C23 UNL     1      13.781  22.626   5.443  1.00  0.00     0.185 C 
BRANCH  32  33
HETATM   33  N4  UNL     1      13.663  21.202   5.418  1.00  0.00    -0.347 N 
HETATM   34  C24 UNL     1      14.747  20.462   4.843  1.00  0.00     0.218 C 
HETATM   35  O5  UNL     1      15.745  21.137   4.407  1.00  0.00    -0.274 OA
ATOM     36  H4  UNL     1      12.841  20.731   5.796  1.00  0.00     0.163 HD
BRANCH  34  37
HETATM   37  C25 UNL     1      14.813  19.023   4.711  1.00  0.00     0.107 C 
BRANCH  37  38
HETATM   38  C26 UNL     1      15.621  18.686   3.469  1.00  0.00    -0.003 C 
HETATM   39  C27 UNL     1      16.415  17.388   3.675  1.00  0.00     0.032 C 
HETATM   40  C28 UNL     1      17.561  17.401   2.707  1.00  0.00     0.232 C 
HETATM   41  N5  UNL     1      17.250  18.232   1.542  1.00  0.00    -0.075 N 
HETATM   42  C29 UNL     1      15.883  18.155   1.125  1.00  0.00     0.232 C 
ATOM     43  H52 UNL     1      17.520  19.201   1.710  1.00  0.00     0.277 HD
ATOM     44  H51 UNL     1      17.875  18.012   0.766  1.00  0.00     0.277 HD
HETATM   45  C30 UNL     1      14.884  18.607   2.184  1.00  0.00     0.032 C 
ENDBRANCH  37  38
ENDBRANCH  34  37
ENDBRANCH  32  33
BRANCH  32  46
HETATM   46  C31 UNL     1      13.827  22.991   6.976  1.00  0.00     0.196 C 
HETATM   47  O6  UNL     1      14.432  22.338   7.782  1.00  0.00    -0.646 OA
HETATM   48  O7  UNL     1      13.095  24.140   7.276  1.00  0.00    -0.646 OA
ENDBRANCH  32  46
ENDBRANCH  31  32
ENDBRANCH  30  31
ENDBRANCH  29  30
ENDBRANCH  28  29
ENDBRANCH   3  28
TORSDOF 18
ENDMDL
MODEL 5
REMARK VINA RESULT: -8.605422508      2.488      5.684
REMARK  18 active torsions:
REMARK  status: ('A' for Active; 'I' for Inactive)
REMARK    1  A    between atoms: C2_2  and  C4_4 
REMARK    2  A    between atoms: C4_4  and  C5_5 
REMARK    3  A    between atoms: C5_5  and  N1_6 
REMARK    4  A    between atoms: C5_5  and  C11_14 
REMARK       I    between atoms: N1_6  and  C6_7 
REMARK    5  A    between atoms: C6_7  and  O2_9 
REMARK    6  A    between atoms: O2_9  and  C7_10 
REMARK    7  A    between atoms: C11_14  and  O3_15 
REMARK    8  A    between atoms: C11_14  and  N2_17 
REMARK    9  A    between atoms: C17_23  and  C18_24 
REMARK       I    between atoms: C18_24  and  N3_26 
REMARK   10  A    between atoms: N3_26  and  C19_28 
REMARK   11  A    between atoms: C19_28  and  C20_29 
REMARK   12  A    between atoms: C20_29  and  C21_30 
REMARK   13  A    between atoms: C21_30  and  C22_31 
REMARK   14  A    between atoms: C22_31  and  C23_32 
REMARK   15  A    between atoms: C23_32  and  N4_33 
REMARK   16  A    between atoms: C23_32  and  C31_46 
REMARK       I    between atoms: N4_33  and  C24_35 
REMARK   17  A    between atoms: C24_35  and  C25_37 
REMARK   18  A    between atoms: C25_37  and  C26_38 
ROOT
HETATM    1  C18 UNL     1      14.476  21.541   4.133  1.00  0.00     0.264 C 
HETATM    2  O4  UNL     1      13.672  22.084   3.288  1.00  0.00    -0.266 OA
HETATM    3  N3  UNL     1      15.099  20.340   3.719  1.00  0.00    -0.356 N 
ATOM      4  H3  UNL     1      15.776  19.949   4.373  1.00  0.00     0.162 HD
ENDROOT
BRANCH   1   5
HETATM    5  C17 UNL     1      14.750  22.062   5.436  1.00  0.00     0.082 C 
HETATM    6  N2  UNL     1      13.837  22.486   6.434  1.00  0.00    -0.324 N 
HETATM    7  C12 UNL     1      14.330  23.257   7.576  1.00  0.00     0.131 C 
HETATM    8  C13 UNL     1      14.510  22.354   8.788  1.00  0.00     0.020 C 
HETATM    9  C14 UNL     1      15.510  21.255   8.542  1.00  0.00     0.002 C 
HETATM   10  C15 UNL     1      15.231  20.473   7.267  1.00  0.00     0.006 C 
HETATM   11  C16 UNL     1      15.853  21.250   6.148  1.00  0.00     0.063 C 
BRANCH   6  12
HETATM   12  C11 UNL     1      12.497  22.202   6.345  1.00  0.00     0.180 C 
BRANCH  12  13
HETATM   13  C5  UNL     1      11.273  22.974   6.059  1.00  0.00     0.142 C 
BRANCH  13  14
HETATM   14  C4  UNL     1      10.829  22.874   4.621  1.00  0.00     0.081 C 
BRANCH  14  15
HETATM   15  C2  UNL     1      10.474  24.226   3.997  1.00  0.00    -0.016 C 
HETATM   16  C1  UNL     1       9.010  24.514   3.936  1.00  0.00     0.010 C 
HETATM   17  C3  UNL     1      10.981  24.298   2.565  1.00  0.00     0.010 C 
ENDBRANCH  14  15
ENDBRANCH  13  14
BRANCH  13  18
HETATM   18  N1  UNL     1      11.113  24.131   6.724  1.00  0.00    -0.346 NA
HETATM   19  C6  UNL     1      10.954  25.330   7.427  1.00  0.00     0.441 C 
HETATM   20  O1  UNL     1      11.431  25.655   8.510  1.00  0.00    -0.221 OA
BRANCH  19  21
HETATM   21  O2  UNL     1      10.124  26.313   6.819  1.00  0.00    -0.282 OA
BRANCH  21  22
HETATM   22  C7  UNL     1       8.997  26.885   7.356  1.00  0.00     0.062 C 
HETATM   23  C8  UNL     1       8.190  27.463   6.146  1.00  0.00     0.046 C 
HETATM   24  C9  UNL     1       8.060  25.868   7.999  1.00  0.00     0.046 C 
HETATM   25  C10 UNL     1       9.281  28.032   8.246  1.00  0.00     0.046 C 
ENDBRANCH  21  22
ENDBRANCH  19  21
ENDBRANCH  13  18
ENDBRANCH  12  13
BRANCH  12  26
HETATM   26  O3  UNL     1      12.149  20.917   6.563  1.00  0.00    -0.344 OA
ATOM     27  H3  UNL     1      12.942  20.403   6.661  1.00  0.00     0.219 HD
ENDBRANCH  12  26
ENDBRANCH   6  12
ENDBRANCH   1   5
BRANCH   3  28
HETATM   28  C19 UNL     1      14.909  19.595   2.505  1.00  0.00     0.123 C 
BRANCH  28  29
HETATM   29  C20 UNL     1      14.832  18.078   2.906  1.00  0.00     0.020 C 
BRANCH  29  30
HETATM   30  C21 UNL     1      15.473  17.949   4.250  1.00  0.00     0.004 C 
BRANCH  30  31
HETATM   31  C22 UNL     1      16.427  16.866   4.438  1.00  0.00     0.036 C 
BRANCH  31  32
HETATM   32  C23 UNL     1      17.811  16.977   4.792  1.00  0.00     0.185 C 
BRANCH  32  33
HETATM   33  N4  UNL     1      18.277  17.255   6.115  1.00  0.00    -0.347 N 
HETATM   34  C24 UNL     1      18.632  16.136   6.936  1.00  0.00     0.218 C 
HETATM   35  O5  UNL     1      18.518  14.971   6.412  1.00  0.00    -0.274 OA
ATOM     36  H4  UNL     1      18.353  18.212   6.461  1.00  0.00     0.163 HD
BRANCH  34  37
HETATM   37  C25 UNL     1      19.108  16.204   8.300  1.00  0.00     0.107 C 
BRANCH  37  38
HETATM   38  C26 UNL     1      18.011  16.801   9.167  1.00  0.00    -0.003 C 
HETATM   39  C27 UNL     1      17.811  15.965  10.439  1.00  0.00     0.032 C 
HETATM   40  C28 UNL     1      16.429  16.241  10.950  1.00  0.00     0.232 C 
HETATM   41  N5  UNL     1      15.966  17.560  10.513  1.00  0.00    -0.075 N 
HETATM   42  C29 UNL     1      16.995  18.554  10.485  1.00  0.00     0.232 C 
ATOM     43  H52 UNL     1      15.503  17.496   9.606  1.00  0.00     0.277 HD
ATOM     44  H51 UNL     1      15.181  17.873  11.084  1.00  0.00     0.277 HD
HETATM   45  C30 UNL     1      18.146  18.230   9.539  1.00  0.00     0.032 C 
ENDBRANCH  37  38
ENDBRANCH  34  37
ENDBRANCH  32  33
BRANCH  32  46
HETATM   46  C31 UNL     1      18.299  18.209   3.937  1.00  0.00     0.196 C 
HETATM   47  O6  UNL     1      18.496  18.142   2.754  1.00  0.00    -0.646 OA
HETATM   48  O7  UNL     1      18.471  19.361   4.706  1.00  0.00    -0.646 OA
ENDBRANCH  32  46
ENDBRANCH  31  32
ENDBRANCH  30  31
ENDBRANCH  29  30
ENDBRANCH  28  29
ENDBRANCH   3  28
TORSDOF 18
ENDMDL
