MODEL 1
REMARK VINA RESULT: -10.019107011      0.000      0.000
REMARK  15 active torsions:
REMARK  status: ('A' for Active; 'I' for Inactive)
REMARK    1  A    between atoms: C2_2  and  N1_3 
REMARK    2  A    between atoms: C2_2  and  C3_7 
REMARK       I    between atoms: C3_7  and  N2_9 
REMARK    3  A    between atoms: C6_12  and  C7_13 
REMARK    4  A    between atoms: C7_13  and  C8_14 
REMARK    5  A    between atoms: C8_14  and  C9_15 
REMARK       I    between atoms: C9_15  and  N3_17 
REMARK    6  A    between atoms: N3_17  and  C10_19 
REMARK    7  A    between atoms: C10_19  and  C11_20 
REMARK    8  A    between atoms: C11_20  and  C12_21 
REMARK    9  A    between atoms: C12_21  and  C13_22 
REMARK   10  A    between atoms: C13_22  and  C14_23 
REMARK   11  A    between atoms: C14_23  and  C15_24 
REMARK   12  A    between atoms: C15_24  and  N4_25 
REMARK       I    between atoms: N4_25  and  C16_27 
REMARK       I    between atoms: C16_27  and  N5_29 
REMARK   13  A    between atoms: N5_29  and  S1_31 
REMARK   14  A    between atoms: S1_31  and  C17_34 
REMARK   15  A    between atoms: C19_40  and  C20_41 
ROOT
HETATM    1  C14 UNL     1      13.440  23.482   6.779  1.00  0.00     0.020 C 
ENDROOT
BRANCH   1   2
HETATM    2  C13 UNL     1      12.060  22.894   6.843  1.00  0.00     0.002 C 
BRANCH   2   3
HETATM    3  C12 UNL     1      11.786  22.060   5.629  1.00  0.00     0.002 C 
BRANCH   3   4
HETATM    4  C11 UNL     1      12.918  22.179   4.616  1.00  0.00     0.020 C 
BRANCH   4   5
HETATM    5  C10 UNL     1      12.316  22.487   3.281  1.00  0.00     0.123 C 
BRANCH   5   6
HETATM    6  N3  UNL     1      11.059  23.165   3.347  1.00  0.00    -0.358 N 
HETATM    7  C9  UNL     1      10.690  24.216   2.415  1.00  0.00     0.240 C 
HETATM    8  O2  UNL     1      11.467  24.559   1.517  1.00  0.00    -0.269 OA
ATOM      9  H3  UNL     1      10.397  22.901   4.076  1.00  0.00     0.162 HD
BRANCH   7  10
HETATM   10  C8  UNL     1       9.368  24.809   2.627  1.00  0.00     0.070 C 
BRANCH  10  11
HETATM   11  C7  UNL     1       8.543  24.466   3.770  1.00  0.00    -0.017 C 
BRANCH  11  12
HETATM   12  C6  UNL     1       8.620  25.175   5.062  1.00  0.00     0.011 C 
HETATM   13  C5  UNL     1       9.951  25.451   5.651  1.00  0.00     0.028 C 
HETATM   14  C4  UNL     1       9.698  25.899   7.129  1.00  0.00     0.126 C 
HETATM   15  N2  UNL     1       9.020  27.192   7.028  1.00  0.00    -0.350 N 
HETATM   16  C3  UNL     1       8.899  28.010   8.161  1.00  0.00     0.250 C 
HETATM   17  C29 UNL     1       8.502  27.558   5.704  1.00  0.00     0.126 C 
HETATM   18  O1  UNL     1       8.306  29.132   8.067  1.00  0.00    -0.271 OA
HETATM   19  C28 UNL     1       7.750  26.413   5.096  1.00  0.00     0.028 C 
BRANCH  16  20
HETATM   20  C2  UNL     1       9.434  27.628   9.480  1.00  0.00     0.271 C 
HETATM   21  C1  UNL     1       8.789  28.428  10.608  1.00  0.00     0.050 C 
BRANCH  20  22
HETATM   22  N1  UNL     1      10.873  27.807   9.481  1.00  0.00    -0.067 N 
ATOM     23  H13 UNL     1      11.274  27.648   8.556  1.00  0.00     0.275 HD
ATOM     24  H12 UNL     1      11.131  28.788   9.594  1.00  0.00     0.275 HD
ATOM     25  H11 UNL     1      11.310  27.218  10.188  1.00  0.00     0.275 HD
ENDBRANCH  20  22
ENDBRANCH  16  20
ENDBRANCH  11  12
ENDBRANCH  10  11
ENDBRANCH   7  10
ENDBRANCH   5   6
ENDBRANCH   4   5
ENDBRANCH   3   4
ENDBRANCH   2   3
ENDBRANCH   1   2
BRANCH   1  26
HETATM   26  C15 UNL     1      14.378  22.805   7.757  1.00  0.00     0.124 C 
BRANCH  26  27
HETATM   27  N4  UNL     1      14.889  21.544   7.313  1.00  0.00    -0.342 N 
HETATM   28  C16 UNL     1      16.196  21.062   7.430  1.00  0.00     0.329 C 
HETATM   29  O3  UNL     1      17.063  21.810   7.991  1.00  0.00    -0.246 OA
HETATM   30  N5  UNL     1      16.627  19.812   6.973  1.00  0.00    -0.231 N 
ATOM     31  H5  UNL     1      15.935  19.205   6.533  1.00  0.00     0.183 HD
ATOM     32  H4  UNL     1      14.220  20.923   6.858  1.00  0.00     0.164 HD
BRANCH  30  33
HETATM   33  S1  UNL     1      18.257  19.218   7.101  1.00  0.00     0.284 S 
HETATM   34  O4  UNL     1      18.486  18.907   8.558  1.00  0.00    -0.199 OA
HETATM   35  O5  UNL     1      19.161  20.319   6.740  1.00  0.00    -0.199 OA
BRANCH  33  36
HETATM   36  C17 UNL     1      18.444  17.746   6.198  1.00  0.00     0.173 A 
HETATM   37  N6  UNL     1      19.120  16.670   6.705  1.00  0.00    -0.340 N 
HETATM   38  C18 UNL     1      19.076  15.680   5.826  1.00  0.00     0.181 A 
ATOM     39  H6  UNL     1      19.582  16.636   7.613  1.00  0.00     0.167 HD
HETATM   40  N7  UNL     1      18.377  16.087   4.739  1.00  0.00    -0.353 N 
HETATM   41  C19 UNL     1      18.002  17.339   4.980  1.00  0.00     0.054 A 
ATOM     42  H7  UNL     1      18.178  15.541   3.901  1.00  0.00     0.166 HD
BRANCH  41  43
HETATM   43  C20 UNL     1      17.253  18.188   4.019  1.00  0.00     0.038 C 
HETATM   44  C21 UNL     1      15.788  17.859   4.130  1.00  0.00     0.011 C 
HETATM   45  C22 UNL     1      14.927  19.106   3.934  1.00  0.00     0.001 C 
HETATM   46  C23 UNL     1      14.905  19.586   2.515  1.00  0.00     0.000 C 
HETATM   47  C24 UNL     1      14.729  18.421   1.577  1.00  0.00     0.000 C 
HETATM   48  C25 UNL     1      16.041  18.156   0.924  1.00  0.00     0.000 C 
HETATM   49  C26 UNL     1      16.960  17.234   1.675  1.00  0.00     0.001 C 
HETATM   50  C27 UNL     1      17.802  18.017   2.638  1.00  0.00     0.011 C 
ENDBRANCH  41  43
ENDBRANCH  33  36
ENDBRANCH  30  33
ENDBRANCH  26  27
ENDBRANCH   1  26
TORSDOF 15
ENDMDL
MODEL 2
REMARK VINA RESULT: -9.507087597      2.110      3.080
REMARK  15 active torsions:
REMARK  status: ('A' for Active; 'I' for Inactive)
REMARK    1  A    between atoms: C2_2  and  N1_3 
REMARK    2  A    between atoms: C2_2  and  C3_7 
REMARK       I    between atoms: C3_7  and  N2_9 
REMARK    3  A    between atoms: C6_12  and  C7_13 
REMARK    4  A    between atoms: C7_13  and  C8_14 
REMARK    5  A    between atoms: C8_14  and  C9_15 
REMARK       I    between atoms: C9_15  and  N3_17 
REMARK    6  A    between atoms: N3_17  and  C10_19 
REMARK    7  A    between atoms: C10_19  and  C11_20 
REMARK    8  A    between atoms: C11_20  and  C12_21 
REMARK    9  A    between atoms: C12_21  and  C13_22 
REMARK   10  A    between atoms: C13_22  and  C14_23 
REMARK   11  A    between atoms: C14_23  and  C15_24 
REMARK   12  A    between atoms: C15_24  and  N4_25 
REMARK       I    between atoms: N4_25  and  C16_27 
REMARK       I    between atoms: C16_27  and  N5_29 
REMARK   13  A    between atoms: N5_29  and  S1_31 
REMARK   14  A    between atoms: S1_31  and  C17_34 
REMARK   15  A    between atoms: C19_40  and  C20_41 
ROOT
HETATM    1  C14 UNL     1      12.691  21.778   5.511  1.00  0.00     0.020 C 
ENDROOT
BRANCH   1   2
HETATM    2  C13 UNL     1      13.173  22.468   4.267  1.00  0.00     0.002 C 
BRANCH   2   3
HETATM    3  C12 UNL     1      12.014  22.970   3.462  1.00  0.00     0.002 C 
BRANCH   3   4
HETATM    4  C11 UNL     1      10.703  22.793   4.217  1.00  0.00     0.020 C 
BRANCH   4   5
HETATM    5  C10 UNL     1      10.160  24.152   4.531  1.00  0.00     0.123 C 
BRANCH   5   6
HETATM    6  N3  UNL     1      10.132  24.464   5.926  1.00  0.00    -0.358 N 
HETATM    7  C9  UNL     1      11.220  25.156   6.591  1.00  0.00     0.240 C 
HETATM    8  O2  UNL     1      12.222  25.506   5.957  1.00  0.00    -0.269 OA
ATOM      9  H3  UNL     1       9.316  24.189   6.473  1.00  0.00     0.162 HD
BRANCH   7  10
HETATM   10  C8  UNL     1      11.032  25.393   8.024  1.00  0.00     0.070 C 
BRANCH  10  11
HETATM   11  C7  UNL     1      10.457  26.623   8.535  1.00  0.00    -0.017 C 
BRANCH  11  12
HETATM   12  C6  UNL     1       9.118  27.109   8.149  1.00  0.00     0.011 C 
HETATM   13  C5  UNL     1       7.952  26.213   8.324  1.00  0.00     0.028 C 
HETATM   14  C4  UNL     1       6.767  26.869   7.540  1.00  0.00     0.126 C 
HETATM   15  N2  UNL     1       6.453  28.096   8.273  1.00  0.00    -0.350 N 
HETATM   16  C3  UNL     1       5.258  28.783   8.011  1.00  0.00     0.250 C 
HETATM   17  C29 UNL     1       7.438  28.534   9.269  1.00  0.00     0.126 C 
HETATM   18  O1  UNL     1       4.993  29.850   8.650  1.00  0.00    -0.271 OA
HETATM   19  C28 UNL     1       8.823  28.488   8.697  1.00  0.00     0.028 C 
BRANCH  16  20
HETATM   20  C2  UNL     1       4.277  28.321   7.013  1.00  0.00     0.271 C 
HETATM   21  C1  UNL     1       3.575  29.488   6.325  1.00  0.00     0.050 C 
BRANCH  20  22
HETATM   22  N1  UNL     1       3.314  27.451   7.659  1.00  0.00    -0.067 N 
ATOM     23  H13 UNL     1       2.987  27.840   8.543  1.00  0.00     0.275 HD
ATOM     24  H12 UNL     1       2.424  27.436   7.160  1.00  0.00     0.275 HD
ATOM     25  H11 UNL     1       3.696  26.513   7.776  1.00  0.00     0.275 HD
ENDBRANCH  20  22
ENDBRANCH  16  20
ENDBRANCH  11  12
ENDBRANCH  10  11
ENDBRANCH   7  10
ENDBRANCH   5   6
ENDBRANCH   4   5
ENDBRANCH   3   4
ENDBRANCH   2   3
ENDBRANCH   1   2
BRANCH   1  26
HETATM   26  C15 UNL     1      13.533  22.151   6.714  1.00  0.00     0.124 C 
BRANCH  26  27
HETATM   27  N4  UNL     1      14.284  21.067   7.271  1.00  0.00    -0.342 N 
HETATM   28  C16 UNL     1      15.643  20.790   7.095  1.00  0.00     0.329 C 
HETATM   29  O3  UNL     1      16.324  21.573   6.354  1.00  0.00    -0.246 OA
HETATM   30  N5  UNL     1      16.316  19.709   7.675  1.00  0.00    -0.231 N 
ATOM     31  H5  UNL     1      15.779  19.085   8.277  1.00  0.00     0.183 HD
ATOM     32  H4  UNL     1      13.767  20.421   7.867  1.00  0.00     0.164 HD
BRANCH  30  33
HETATM   33  S1  UNL     1      18.003  19.352   7.443  1.00  0.00     0.284 S 
HETATM   34  O4  UNL     1      18.599  19.190   8.818  1.00  0.00    -0.199 OA
HETATM   35  O5  UNL     1      18.627  20.533   6.829  1.00  0.00    -0.199 OA
BRANCH  33  36
HETATM   36  C17 UNL     1      18.198  17.852   6.589  1.00  0.00     0.173 A 
HETATM   37  N6  UNL     1      18.801  16.768   7.165  1.00  0.00    -0.340 N 
HETATM   38  C18 UNL     1      18.782  15.758   6.309  1.00  0.00     0.181 A 
ATOM     39  H6  UNL     1      19.201  16.742   8.103  1.00  0.00     0.167 HD
HETATM   40  N7  UNL     1      18.171  16.160   5.168  1.00  0.00    -0.353 N 
HETATM   41  C19 UNL     1      17.825  17.429   5.353  1.00  0.00     0.054 A 
ATOM     42  H7  UNL     1      18.010  15.599   4.331  1.00  0.00     0.166 HD
BRANCH  41  43
HETATM   43  C20 UNL     1      17.171  18.277   4.325  1.00  0.00     0.038 C 
HETATM   44  C21 UNL     1      15.700  17.956   4.303  1.00  0.00     0.011 C 
HETATM   45  C22 UNL     1      14.867  19.207   4.024  1.00  0.00     0.001 C 
HETATM   46  C23 UNL     1      14.977  19.680   2.607  1.00  0.00     0.000 C 
HETATM   47  C24 UNL     1      14.881  18.512   1.661  1.00  0.00     0.000 C 
HETATM   48  C25 UNL     1      16.246  18.237   1.133  1.00  0.00     0.000 C 
HETATM   49  C26 UNL     1      17.087  17.314   1.968  1.00  0.00     0.001 C 
HETATM   50  C27 UNL     1      17.843  18.097   3.000  1.00  0.00     0.011 C 
ENDBRANCH  41  43
ENDBRANCH  33  36
ENDBRANCH  30  33
ENDBRANCH  26  27
ENDBRANCH   1  26
TORSDOF 15
ENDMDL
MODEL 3
REMARK VINA RESULT: -9.402209391      3.180     11.877
REMARK  15 active torsions:
REMARK  status: ('A' for Active; 'I' for Inactive)
REMARK    1  A    between atoms: C2_2  and  N1_3 
REMARK    2  A    between atoms: C2_2  and  C3_7 
REMARK       I    between atoms: C3_7  and  N2_9 
REMARK    3  A    between atoms: C6_12  and  C7_13 
REMARK    4  A    between atoms: C7_13  and  C8_14 
REMARK    5  A    between atoms: C8_14  and  C9_15 
REMARK       I    between atoms: C9_15  and  N3_17 
REMARK    6  A    between atoms: N3_17  and  C10_19 
REMARK    7  A    between atoms: C10_19  and  C11_20 
REMARK    8  A    between atoms: C11_20  and  C12_21 
REMARK    9  A    between atoms: C12_21  and  C13_22 
REMARK   10  A    between atoms: C13_22  and  C14_23 
REMARK   11  A    between atoms: C14_23  and  C15_24 
REMARK   12  A    between atoms: C15_24  and  N4_25 
REMARK       I    between atoms: N4_25  and  C16_27 
REMARK       I    between atoms: C16_27  and  N5_29 
REMARK   13  A    between atoms: N5_29  and  S1_31 
REMARK   14  A    between atoms: S1_31  and  C17_34 
REMARK   15  A    between atoms: C19_40  and  C20_41 
ROOT
HETATM    1  C14 UNL     1      12.316  22.488   3.815  1.00  0.00     0.020 C 
ENDROOT
BRANCH   1   2
HETATM    2  C13 UNL     1      12.704  23.893   4.176  1.00  0.00     0.002 C 
BRANCH   2   3
HETATM    3  C12 UNL     1      13.602  23.899   5.374  1.00  0.00     0.002 C 
BRANCH   3   4
HETATM    4  C11 UNL     1      12.797  24.010   6.663  1.00  0.00     0.020 C 
BRANCH   4   5
HETATM    5  C10 UNL     1      13.753  23.959   7.813  1.00  0.00     0.123 C 
BRANCH   5   6
HETATM    6  N3  UNL     1      14.659  22.854   7.775  1.00  0.00    -0.358 N 
HETATM    7  C9  UNL     1      16.023  22.948   8.262  1.00  0.00     0.240 C 
HETATM    8  O2  UNL     1      16.448  24.007   8.737  1.00  0.00    -0.269 OA
ATOM      9  H3  UNL     1      14.335  21.967   7.390  1.00  0.00     0.162 HD
BRANCH   7  10
HETATM   10  C8  UNL     1      16.819  21.724   8.143  1.00  0.00     0.070 C 
BRANCH  10  11
HETATM   11  C7  UNL     1      16.215  20.435   7.860  1.00  0.00    -0.017 C 
BRANCH  11  12
HETATM   12  C6  UNL     1      16.250  19.803   6.527  1.00  0.00     0.011 C 
HETATM   13  C5  UNL     1      15.766  20.571   5.356  1.00  0.00     0.028 C 
HETATM   14  C4  UNL     1      15.624  19.546   4.182  1.00  0.00     0.126 C 
HETATM   15  N2  UNL     1      16.992  19.134   3.863  1.00  0.00    -0.350 N 
HETATM   16  C3  UNL     1      17.255  18.438   2.674  1.00  0.00     0.250 C 
HETATM   17  C29 UNL     1      18.028  19.494   4.838  1.00  0.00     0.126 C 
HETATM   18  O1  UNL     1      18.446  18.081   2.404  1.00  0.00    -0.271 OA
HETATM   19  C28 UNL     1      17.585  19.154   6.230  1.00  0.00     0.028 C 
BRANCH  16  20
HETATM   20  C2  UNL     1      16.201  18.095   1.703  1.00  0.00     0.271 C 
HETATM   21  C1  UNL     1      16.599  16.909   0.829  1.00  0.00     0.050 C 
BRANCH  20  22
HETATM   22  N1  UNL     1      15.905  19.257   0.888  1.00  0.00    -0.067 N 
ATOM     23  H13 UNL     1      16.545  19.337   0.098  1.00  0.00     0.275 HD
ATOM     24  H12 UNL     1      15.034  19.143   0.370  1.00  0.00     0.275 HD
ATOM     25  H11 UNL     1      15.898  20.104   1.456  1.00  0.00     0.275 HD
ENDBRANCH  20  22
ENDBRANCH  16  20
ENDBRANCH  11  12
ENDBRANCH  10  11
ENDBRANCH   7  10
ENDBRANCH   5   6
ENDBRANCH   4   5
ENDBRANCH   3   4
ENDBRANCH   2   3
ENDBRANCH   1   2
BRANCH   1  26
HETATM   26  C15 UNL     1      10.856  22.398   3.420  1.00  0.00     0.124 C 
BRANCH  26  27
HETATM   27  N4  UNL     1       9.976  23.200   4.215  1.00  0.00    -0.342 N 
HETATM   28  C16 UNL     1       9.174  24.264   3.794  1.00  0.00     0.329 C 
HETATM   29  O3  UNL     1       9.208  24.590   2.561  1.00  0.00    -0.246 OA
HETATM   30  N5  UNL     1       8.333  25.006   4.630  1.00  0.00    -0.231 N 
ATOM     31  H5  UNL     1       8.294  24.744   5.615  1.00  0.00     0.183 HD
ATOM     32  H4  UNL     1       9.929  22.966   5.207  1.00  0.00     0.164 HD
BRANCH  30  33
HETATM   33  S1  UNL     1       7.347  26.343   4.111  1.00  0.00     0.284 S 
HETATM   34  O4  UNL     1       6.413  25.802   3.059  1.00  0.00    -0.199 OA
HETATM   35  O5  UNL     1       8.230  27.318   3.455  1.00  0.00    -0.199 OA
BRANCH  33  36
HETATM   36  C17 UNL     1       6.389  26.943   5.430  1.00  0.00     0.173 A 
HETATM   37  N6  UNL     1       5.036  27.111   5.318  1.00  0.00    -0.340 N 
HETATM   38  C18 UNL     1       4.559  27.543   6.475  1.00  0.00     0.181 A 
ATOM     39  H6  UNL     1       4.484  26.932   4.479  1.00  0.00     0.167 HD
HETATM   40  N7  UNL     1       5.582  27.664   7.356  1.00  0.00    -0.353 N 
HETATM   41  C19 UNL     1       6.682  27.298   6.707  1.00  0.00     0.054 A 
ATOM     42  H7  UNL     1       5.519  27.975   8.325  1.00  0.00     0.166 HD
BRANCH  41  43
HETATM   43  C20 UNL     1       8.047  27.329   7.290  1.00  0.00     0.038 C 
HETATM   44  C21 UNL     1       8.331  25.991   7.918  1.00  0.00     0.011 C 
HETATM   45  C22 UNL     1       9.799  25.603   7.747  1.00  0.00     0.001 C 
HETATM   46  C23 UNL     1      10.724  26.413   8.603  1.00  0.00     0.000 C 
HETATM   47  C24 UNL     1      10.160  26.545   9.994  1.00  0.00     0.000 C 
HETATM   48  C25 UNL     1       9.637  27.931  10.146  1.00  0.00     0.000 C 
HETATM   49  C26 UNL     1       8.217  28.137   9.700  1.00  0.00     0.001 C 
HETATM   50  C27 UNL     1       8.179  28.478   8.240  1.00  0.00     0.011 C 
ENDBRANCH  41  43
ENDBRANCH  33  36
ENDBRANCH  30  33
ENDBRANCH  26  27
ENDBRANCH   1  26
TORSDOF 15
ENDMDL
MODEL 4
REMARK VINA RESULT: -9.368473531      0.927      1.172
REMARK  15 active torsions:
REMARK  status: ('A' for Active; 'I' for Inactive)
REMARK    1  A    between atoms: C2_2  and  N1_3 
REMARK    2  A    between atoms: C2_2  and  C3_7 
REMARK       I    between atoms: C3_7  and  N2_9 
REMARK    3  A    between atoms: C6_12  and  C7_13 
REMARK    4  A    between atoms: C7_13  and  C8_14 
REMARK    5  A    between atoms: C8_14  and  C9_15 
REMARK       I    between atoms: C9_15  and  N3_17 
REMARK    6  A    between atoms: N3_17  and  C10_19 
REMARK    7  A    between atoms: C10_19  and  C11_20 
REMARK    8  A    between atoms: C11_20  and  C12_21 
REMARK    9  A    between atoms: C12_21  and  C13_22 
REMARK   10  A    between atoms: C13_22  and  C14_23 
REMARK   11  A    between atoms: C14_23  and  C15_24 
REMARK   12  A    between atoms: C15_24  and  N4_25 
REMARK       I    between atoms: N4_25  and  C16_27 
REMARK       I    between atoms: C16_27  and  N5_29 
REMARK   13  A    between atoms: N5_29  and  S1_31 
REMARK   14  A    between atoms: S1_31  and  C17_34 
REMARK   15  A    between atoms: C19_40  and  C20_41 
ROOT
HETATM    1  C14 UNL     1      13.369  23.500   6.563  1.00  0.00     0.020 C 
ENDROOT
BRANCH   1   2
HETATM    2  C13 UNL     1      13.945  23.328   5.188  1.00  0.00     0.002 C 
BRANCH   2   3
HETATM    3  C12 UNL     1      13.015  22.534   4.323  1.00  0.00     0.002 C 
BRANCH   3   4
HETATM    4  C11 UNL     1      11.561  22.879   4.620  1.00  0.00     0.020 C 
BRANCH   4   5
HETATM    5  C10 UNL     1      10.743  22.515   3.421  1.00  0.00     0.123 C 
BRANCH   5   6
HETATM    6  N3  UNL     1       9.402  23.011   3.454  1.00  0.00    -0.358 N 
HETATM    7  C9  UNL     1       9.005  24.230   2.773  1.00  0.00     0.240 C 
HETATM    8  O2  UNL     1       9.832  24.886   2.130  1.00  0.00    -0.269 OA
ATOM      9  H3  UNL     1       8.698  22.488   3.975  1.00  0.00     0.162 HD
BRANCH   7  10
HETATM   10  C8  UNL     1       7.595  24.598   2.913  1.00  0.00     0.070 C 
BRANCH  10  11
HETATM   11  C7  UNL     1       7.177  25.808   3.597  1.00  0.00    -0.017 C 
BRANCH  11  12
HETATM   12  C6  UNL     1       7.631  26.165   4.955  1.00  0.00     0.011 C 
HETATM   13  C5  UNL     1       8.835  27.015   5.109  1.00  0.00     0.028 C 
HETATM   14  C4  UNL     1       9.239  26.941   6.619  1.00  0.00     0.126 C 
HETATM   15  N2  UNL     1       8.164  27.623   7.340  1.00  0.00    -0.350 N 
HETATM   16  C3  UNL     1       8.341  27.989   8.682  1.00  0.00     0.250 C 
HETATM   17  C29 UNL     1       6.935  27.890   6.582  1.00  0.00     0.126 C 
HETATM   18  O1  UNL     1       7.401  28.578   9.303  1.00  0.00    -0.271 OA
HETATM   19  C28 UNL     1       6.502  26.668   5.829  1.00  0.00     0.028 C 
BRANCH  16  20
HETATM   20  C2  UNL     1       9.587  27.719   9.423  1.00  0.00     0.271 C 
HETATM   21  C1  UNL     1       9.695  26.255   9.837  1.00  0.00     0.050 C 
BRANCH  20  22
HETATM   22  N1  UNL     1       9.649  28.588  10.582  1.00  0.00    -0.067 N 
ATOM     23  H13 UNL     1      10.557  28.537  11.043  1.00  0.00     0.275 HD
ATOM     24  H12 UNL     1       9.667  29.573  10.316  1.00  0.00     0.275 HD
ATOM     25  H11 UNL     1       8.886  28.385  11.227  1.00  0.00     0.275 HD
ENDBRANCH  20  22
ENDBRANCH  16  20
ENDBRANCH  11  12
ENDBRANCH  10  11
ENDBRANCH   7  10
ENDBRANCH   5   6
ENDBRANCH   4   5
ENDBRANCH   3   4
ENDBRANCH   2   3
ENDBRANCH   1   2
BRANCH   1  26
HETATM   26  C15 UNL     1      14.230  22.831   7.615  1.00  0.00     0.124 C 
BRANCH  26  27
HETATM   27  N4  UNL     1      14.759  21.559   7.228  1.00  0.00    -0.342 N 
HETATM   28  C16 UNL     1      16.076  21.106   7.355  1.00  0.00     0.329 C 
HETATM   29  O3  UNL     1      16.935  21.895   7.869  1.00  0.00    -0.246 OA
HETATM   30  N5  UNL     1      16.524  19.843   6.954  1.00  0.00    -0.231 N 
ATOM     31  H5  UNL     1      15.839  19.203   6.551  1.00  0.00     0.183 HD
ATOM     32  H4  UNL     1      14.097  20.906   6.810  1.00  0.00     0.164 HD
BRANCH  30  33
HETATM   33  S1  UNL     1      18.166  19.283   7.095  1.00  0.00     0.284 S 
HETATM   34  O4  UNL     1      18.390  18.978   8.553  1.00  0.00    -0.199 OA
HETATM   35  O5  UNL     1      19.049  20.403   6.739  1.00  0.00    -0.199 OA
BRANCH  33  36
HETATM   36  C17 UNL     1      18.390  17.815   6.193  1.00  0.00     0.173 A 
HETATM   37  N6  UNL     1      19.065  16.746   6.715  1.00  0.00    -0.340 N 
HETATM   38  C18 UNL     1      19.054  15.757   5.834  1.00  0.00     0.181 A 
ATOM     39  H6  UNL     1      19.507  16.716   7.634  1.00  0.00     0.167 HD
HETATM   40  N7  UNL     1      18.377  16.159   4.731  1.00  0.00    -0.353 N 
HETATM   41  C19 UNL     1      17.982  17.406   4.964  1.00  0.00     0.054 A 
ATOM     42  H7  UNL     1      18.204  15.612   3.888  1.00  0.00     0.166 HD
BRANCH  41  43
HETATM   43  C20 UNL     1      17.247  18.248   3.988  1.00  0.00     0.038 C 
HETATM   44  C21 UNL     1      15.777  17.945   4.105  1.00  0.00     0.011 C 
HETATM   45  C22 UNL     1      14.936  19.202   3.885  1.00  0.00     0.001 C 
HETATM   46  C23 UNL     1      14.922  19.655   2.457  1.00  0.00     0.000 C 
HETATM   47  C24 UNL     1      14.726  18.476   1.541  1.00  0.00     0.000 C 
HETATM   48  C25 UNL     1      16.033  18.176   0.894  1.00  0.00     0.000 C 
HETATM   49  C26 UNL     1      16.937  17.254   1.662  1.00  0.00     0.001 C 
HETATM   50  C27 UNL     1      17.793  18.042   2.610  1.00  0.00     0.011 C 
ENDBRANCH  41  43
ENDBRANCH  33  36
ENDBRANCH  30  33
ENDBRANCH  26  27
ENDBRANCH   1  26
TORSDOF 15
ENDMDL
MODEL 5
REMARK VINA RESULT: -9.297908938      2.754      4.692
REMARK  15 active torsions:
REMARK  status: ('A' for Active; 'I' for Inactive)
REMARK    1  A    between atoms: C2_2  and  N1_3 
REMARK    2  A    between atoms: C2_2  and  C3_7 
REMARK       I    between atoms: C3_7  and  N2_9 
REMARK    3  A    between atoms: C6_12  and  C7_13 
REMARK    4  A    between atoms: C7_13  and  C8_14 
REMARK    5  A    between atoms: C8_14  and  C9_15 
REMARK       I    between atoms: C9_15  and  N3_17 
REMARK    6  A    between atoms: N3_17  and  C10_19 
REMARK    7  A    between atoms: C10_19  and  C11_20 
REMARK    8  A    between atoms: C11_20  and  C12_21 
REMARK    9  A    between atoms: C12_21  and  C13_22 
REMARK   10  A    between atoms: C13_22  and  C14_23 
REMARK   11  A    between atoms: C14_23  and  C15_24 
REMARK   12  A    between atoms: C15_24  and  N4_25 
REMARK       I    between atoms: N4_25  and  C16_27 
REMARK       I    between atoms: C16_27  and  N5_29 
REMARK   13  A    between atoms: N5_29  and  S1_31 
REMARK   14  A    between atoms: S1_31  and  C17_34 
REMARK   15  A    between atoms: C19_40  and  C20_41 
ROOT
HETATM    1  C14 UNL     1      12.638  23.084   6.931  1.00  0.00     0.020 C 
ENDROOT
BRANCH   1   2
HETATM    2  C13 UNL     1      12.178  24.453   6.522  1.00  0.00     0.002 C 
BRANCH   2   3
HETATM    3  C12 UNL     1      12.136  25.370   7.705  1.00  0.00     0.002 C 
BRANCH   3   4
HETATM    4  C11 UNL     1      10.702  25.624   8.153  1.00  0.00     0.020 C 
BRANCH   4   5
HETATM    5  C10 UNL     1      10.737  26.584   9.300  1.00  0.00     0.123 C 
BRANCH   5   6
HETATM    6  N3  UNL     1       9.458  27.109   9.664  1.00  0.00    -0.358 N 
HETATM    7  C9  UNL     1       8.865  28.251   8.992  1.00  0.00     0.240 C 
HETATM    8  O2  UNL     1       9.460  28.812   8.065  1.00  0.00    -0.269 OA
ATOM      9  H3  UNL     1       8.943  26.665  10.424  1.00  0.00     0.162 HD
BRANCH   7  10
HETATM   10  C8  UNL     1       7.551  28.663   9.492  1.00  0.00     0.070 C 
BRANCH  10  11
HETATM   11  C7  UNL     1       6.547  29.254   8.628  1.00  0.00    -0.017 C 
BRANCH  11  12
HETATM   12  C6  UNL     1       5.739  28.469   7.675  1.00  0.00     0.011 C 
HETATM   13  C5  UNL     1       6.087  27.048   7.439  1.00  0.00     0.028 C 
HETATM   14  C4  UNL     1       5.283  26.599   6.174  1.00  0.00     0.126 C 
HETATM   15  N2  UNL     1       3.879  26.612   6.584  1.00  0.00    -0.350 N 
HETATM   16  C3  UNL     1       2.908  25.992   5.783  1.00  0.00     0.250 C 
HETATM   17  C29 UNL     1       3.573  27.290   7.850  1.00  0.00     0.126 C 
HETATM   18  O1  UNL     1       1.689  26.010   6.145  1.00  0.00    -0.271 OA
HETATM   19  C28 UNL     1       4.252  28.626   7.911  1.00  0.00     0.028 C 
BRANCH  16  20
HETATM   20  C2  UNL     1       3.237  25.308   4.520  1.00  0.00     0.271 C 
HETATM   21  C1  UNL     1       2.188  25.569   3.444  1.00  0.00     0.050 C 
BRANCH  20  22
HETATM   22  N1  UNL     1       3.375  23.887   4.770  1.00  0.00    -0.067 N 
ATOM     23  H13 UNL     1       3.801  23.404   3.979  1.00  0.00     0.275 HD
ATOM     24  H12 UNL     1       4.090  23.694   5.471  1.00  0.00     0.275 HD
ATOM     25  H11 UNL     1       2.477  23.475   5.023  1.00  0.00     0.275 HD
ENDBRANCH  20  22
ENDBRANCH  16  20
ENDBRANCH  11  12
ENDBRANCH  10  11
ENDBRANCH   7  10
ENDBRANCH   5   6
ENDBRANCH   4   5
ENDBRANCH   3   4
ENDBRANCH   2   3
ENDBRANCH   1   2
BRANCH   1  26
HETATM   26  C15 UNL     1      14.142  23.032   7.105  1.00  0.00     0.124 C 
BRANCH  26  27
HETATM   27  N4  UNL     1      14.753  21.828   6.630  1.00  0.00    -0.342 N 
HETATM   28  C16 UNL     1      15.989  21.292   7.004  1.00  0.00     0.329 C 
HETATM   29  O3  UNL     1      16.682  21.926   7.867  1.00  0.00    -0.246 OA
HETATM   30  N5  UNL     1      16.527  20.104   6.498  1.00  0.00    -0.231 N 
ATOM     31  H5  UNL     1      15.972  19.587   5.815  1.00  0.00     0.183 HD
ATOM     32  H4  UNL     1      14.225  21.299   5.937  1.00  0.00     0.164 HD
BRANCH  30  33
HETATM   33  S1  UNL     1      18.072  19.444   6.949  1.00  0.00     0.284 S 
HETATM   34  O4  UNL     1      18.005  19.170   8.429  1.00  0.00    -0.199 OA
HETATM   35  O5  UNL     1      19.081  20.492   6.741  1.00  0.00    -0.199 OA
BRANCH  33  36
HETATM   36  C17 UNL     1      18.355  17.937   6.132  1.00  0.00     0.173 A 
HETATM   37  N6  UNL     1      19.049  16.917   6.722  1.00  0.00    -0.340 N 
HETATM   38  C18 UNL     1      19.083  15.883   5.895  1.00  0.00     0.181 A 
ATOM     39  H6  UNL     1      19.472  16.948   7.649  1.00  0.00     0.167 HD
HETATM   40  N7  UNL     1      18.416  16.206   4.759  1.00  0.00    -0.353 N 
HETATM   41  C19 UNL     1      17.983  17.452   4.919  1.00  0.00     0.054 A 
ATOM     42  H7  UNL     1      18.276  15.610   3.944  1.00  0.00     0.166 HD
BRANCH  41  43
HETATM   43  C20 UNL     1      17.244  18.220   3.885  1.00  0.00     0.038 C 
HETATM   44  C21 UNL     1      15.785  17.861   3.974  1.00  0.00     0.011 C 
HETATM   45  C22 UNL     1      14.901  19.072   3.674  1.00  0.00     0.001 C 
HETATM   46  C23 UNL     1      14.912  19.462   2.228  1.00  0.00     0.000 C 
HETATM   47  C24 UNL     1      14.792  18.237   1.360  1.00  0.00     0.000 C 
HETATM   48  C25 UNL     1      16.129  17.964   0.764  1.00  0.00     0.000 C 
HETATM   49  C26 UNL     1      17.046  17.115   1.598  1.00  0.00     0.001 C 
HETATM   50  C27 UNL     1      17.840  17.977   2.534  1.00  0.00     0.011 C 
ENDBRANCH  41  43
ENDBRANCH  33  36
ENDBRANCH  30  33
ENDBRANCH  26  27
ENDBRANCH   1  26
TORSDOF 15
ENDMDL
