MODEL 1
REMARK VINA RESULT: -9.164142090      0.000      0.000
REMARK  19 active torsions:
REMARK  status: ('A' for Active; 'I' for Inactive)
REMARK    1  A    between atoms: C2_2  and  C3_3 
REMARK    2  A    between atoms: C3_3  and  C4_4 
REMARK    3  A    between atoms: C4_4  and  O1_5 
REMARK    4  A    between atoms: O1_5  and  C5_6 
REMARK    5  A    between atoms: C5_6  and  O2_7 
REMARK    6  A    between atoms: C5_6  and  N1_9 
REMARK    7  A    between atoms: C8_12  and  O3_13 
REMARK    8  A    between atoms: C8_12  and  C9_15 
REMARK    9  A    between atoms: C9_15  and  N2_16 
REMARK       I    between atoms: N2_16  and  C10_18 
REMARK       I    between atoms: C10_18  and  N3_20 
REMARK   10  A    between atoms: N3_20  and  C11_21 
REMARK   11  A    between atoms: C11_21  and  C12_22 
REMARK   12  A    between atoms: C11_21  and  C30_48 
REMARK   13  A    between atoms: C12_22  and  N4_23 
REMARK   14  A    between atoms: N4_23  and  C13_25 
REMARK   15  A    between atoms: C13_25  and  O5_26 
REMARK   16  A    between atoms: C13_25  and  C14_28 
REMARK   17  A    between atoms: C14_28  and  N5_29 
REMARK       I    between atoms: N5_29  and  C15_30 
REMARK   18  A    between atoms: C15_30  and  C16_32 
REMARK   19  A    between atoms: C22_40  and  C23_41 
ROOT
HETATM    1  C11 UNL     1       9.417  27.484   7.891  1.00  0.00     0.189 C 
ENDROOT
BRANCH   1   2
HETATM    2  N3  UNL     1       9.813  26.524   6.996  1.00  0.00    -0.389 NA
HETATM    3  C10 UNL     1      10.142  25.537   6.082  1.00  0.00     0.392 C 
HETATM    4  N2  UNL     1      11.496  25.505   5.542  1.00  0.00    -0.308 N 
HETATM    5  O4  UNL     1       9.384  24.658   5.634  1.00  0.00    -0.230 OA
ATOM      6  H2  UNL     1      12.073  26.297   5.824  1.00  0.00     0.170 HD
BRANCH   4   7
HETATM    7  C9  UNL     1      12.138  24.609   4.728  1.00  0.00     0.104 C 
BRANCH   7   8
HETATM    8  C8  UNL     1      13.250  23.722   5.036  1.00  0.00     0.093 C 
HETATM    9  C7  UNL     1      13.423  23.051   6.342  1.00  0.00     0.063 C 
HETATM   10  C6  UNL     1      13.451  21.529   6.291  1.00  0.00     0.130 C 
HETATM   11  N1  UNL     1      14.284  20.994   5.244  1.00  0.00    -0.341 N 
HETATM   12  C34 UNL     1      14.402  21.802   4.010  1.00  0.00     0.130 C 
HETATM   13  C33 UNL     1      13.136  22.605   3.978  1.00  0.00     0.063 C 
BRANCH  11  14
HETATM   14  C5  UNL     1      14.919  19.759   5.335  1.00  0.00     0.260 C 
BRANCH  14  15
HETATM   15  O1  UNL     1      14.781  18.594   4.730  1.00  0.00    -0.317 OA
BRANCH  15  16
HETATM   16  C4  UNL     1      15.395  17.967   3.665  1.00  0.00     0.179 C 
BRANCH  16  17
HETATM   17  C3  UNL     1      14.983  18.540   2.345  1.00  0.00     0.026 C 
BRANCH  17  18
HETATM   18  C2  UNL     1      16.076  18.496   1.302  1.00  0.00    -0.002 C 
HETATM   19  C1  UNL     1      16.919  17.259   1.355  1.00  0.00     0.005 C 
ENDBRANCH  17  18
ENDBRANCH  16  17
ENDBRANCH  15  16
ENDBRANCH  14  15
BRANCH  14  20
HETATM   20  O2  UNL     1      15.914  19.725   6.260  1.00  0.00    -0.327 OA
ATOM     21  H2  UNL     1      15.681  20.213   7.041  1.00  0.00     0.221 HD
ENDBRANCH  14  20
ENDBRANCH  11  14
BRANCH   8  22
HETATM   22  O3  UNL     1      14.499  24.372   4.772  1.00  0.00    -0.384 OA
ATOM     23  H3  UNL     1      14.457  24.640   3.862  1.00  0.00     0.211 HD
ENDBRANCH   8  22
ENDBRANCH   7   8
ENDBRANCH   4   7
ENDBRANCH   1   2
BRANCH   1  24
HETATM   24  C12 UNL     1       7.936  27.141   8.363  1.00  0.00     0.161 C 
BRANCH  24  25
HETATM   25  N4  UNL     1       7.024  27.863   7.545  1.00  0.00    -0.368 N 
ATOM     26  H4  UNL     1       6.918  28.864   7.714  1.00  0.00     0.161 HD
BRANCH  25  27
HETATM   27  C13 UNL     1       6.264  27.291   6.526  1.00  0.00     0.154 C 
BRANCH  27  28
HETATM   28  O5  UNL     1       6.923  26.510   5.721  1.00  0.00    -0.347 OA
ATOM     29  H5  UNL     1       6.907  26.769   4.807  1.00  0.00     0.219 HD
ENDBRANCH  27  28
BRANCH  27  30
HETATM   30  C14 UNL     1       4.826  27.486   6.260  1.00  0.00     0.161 C 
HETATM   31  C26 UNL     1       4.153  26.873   7.562  1.00  0.00     0.054 C 
HETATM   32  C27 UNL     1       2.774  27.493   7.470  1.00  0.00     0.004 C 
HETATM   33  C28 UNL     1       3.050  28.924   7.055  1.00  0.00     0.004 C 
HETATM   34  C29 UNL     1       4.448  28.925   6.435  1.00  0.00     0.054 C 
BRANCH  30  35
HETATM   35  N5  UNL     1       4.301  26.861   5.165  1.00  0.00    -0.391 NA
HETATM   36  C15 UNL     1       3.773  26.257   4.056  1.00  0.00     0.324 C 
HETATM   37  O6  UNL     1       3.465  26.914   2.992  1.00  0.00    -0.251 OA
BRANCH  36  38
HETATM   38  C16 UNL     1       3.466  24.816   3.884  1.00  0.00     0.075 A 
HETATM   39  C17 UNL     1       2.240  24.338   4.236  1.00  0.00    -0.041 A 
HETATM   40  C18 UNL     1       1.208  25.185   4.899  1.00  0.00     0.049 C 
HETATM   41  C19 UNL     1       1.993  23.019   3.989  1.00  0.00     0.032 A 
HETATM   42  C20 UNL     1       2.954  22.179   3.404  1.00  0.00     0.006 A 
HETATM   43  C21 UNL     1       2.633  20.724   3.241  1.00  0.00     0.068 C 
HETATM   44  N6  UNL     1       4.132  22.719   3.088  1.00  0.00    -0.362 N 
HETATM   45  C22 UNL     1       4.442  24.065   3.313  1.00  0.00     0.030 A 
ATOM     46  H6  UNL     1       4.841  22.122   2.662  1.00  0.00     0.165 HD
BRANCH  45  47
HETATM   47  C23 UNL     1       5.739  24.603   2.903  1.00  0.00     0.028 C 
HETATM   48  C24 UNL     1       6.792  23.509   3.248  1.00  0.00     0.016 C 
HETATM   49  C25 UNL     1       5.847  24.836   1.426  1.00  0.00     0.016 C 
ENDBRANCH  45  47
ENDBRANCH  36  38
ENDBRANCH  30  35
ENDBRANCH  27  30
ENDBRANCH  25  27
ENDBRANCH  24  25
ENDBRANCH   1  24
BRANCH   1  50
HETATM   50  C30 UNL     1      10.157  27.338   9.223  1.00  0.00     0.015 C 
HETATM   51  C31 UNL     1       9.424  28.053  10.352  1.00  0.00     0.012 C 
HETATM   52  C32 UNL     1      10.386  25.943   9.675  1.00  0.00     0.012 C 
ENDBRANCH   1  50
TORSDOF 19
ENDMDL
MODEL 2
REMARK VINA RESULT: -8.973755854      1.179      2.347
REMARK  19 active torsions:
REMARK  status: ('A' for Active; 'I' for Inactive)
REMARK    1  A    between atoms: C2_2  and  C3_3 
REMARK    2  A    between atoms: C3_3  and  C4_4 
REMARK    3  A    between atoms: C4_4  and  O1_5 
REMARK    4  A    between atoms: O1_5  and  C5_6 
REMARK    5  A    between atoms: C5_6  and  O2_7 
REMARK    6  A    between atoms: C5_6  and  N1_9 
REMARK    7  A    between atoms: C8_12  and  O3_13 
REMARK    8  A    between atoms: C8_12  and  C9_15 
REMARK    9  A    between atoms: C9_15  and  N2_16 
REMARK       I    between atoms: N2_16  and  C10_18 
REMARK       I    between atoms: C10_18  and  N3_20 
REMARK   10  A    between atoms: N3_20  and  C11_21 
REMARK   11  A    between atoms: C11_21  and  C12_22 
REMARK   12  A    between atoms: C11_21  and  C30_48 
REMARK   13  A    between atoms: C12_22  and  N4_23 
REMARK   14  A    between atoms: N4_23  and  C13_25 
REMARK   15  A    between atoms: C13_25  and  O5_26 
REMARK   16  A    between atoms: C13_25  and  C14_28 
REMARK   17  A    between atoms: C14_28  and  N5_29 
REMARK       I    between atoms: N5_29  and  C15_30 
REMARK   18  A    between atoms: C15_30  and  C16_32 
REMARK   19  A    between atoms: C22_40  and  C23_41 
ROOT
HETATM    1  C11 UNL     1       9.335  27.058   7.838  1.00  0.00     0.189 C 
ENDROOT
BRANCH   1   2
HETATM    2  N3  UNL     1       9.921  26.079   7.077  1.00  0.00    -0.389 NA
HETATM    3  C10 UNL     1      10.456  25.046   6.325  1.00  0.00     0.392 C 
HETATM    4  N2  UNL     1      11.537  25.345   5.395  1.00  0.00    -0.308 N 
HETATM    5  O4  UNL     1      10.091  23.857   6.334  1.00  0.00    -0.230 OA
ATOM      6  H2  UNL     1      11.747  26.339   5.309  1.00  0.00     0.170 HD
BRANCH   4   7
HETATM    7  C9  UNL     1      12.325  24.540   4.615  1.00  0.00     0.104 C 
BRANCH   7   8
HETATM    8  C8  UNL     1      13.493  23.755   4.991  1.00  0.00     0.093 C 
HETATM    9  C7  UNL     1      13.680  23.157   6.331  1.00  0.00     0.063 C 
HETATM   10  C6  UNL     1      13.825  21.642   6.350  1.00  0.00     0.130 C 
HETATM   11  N1  UNL     1      14.727  21.128   5.350  1.00  0.00    -0.341 N 
HETATM   12  C34 UNL     1      14.817  21.888   4.084  1.00  0.00     0.130 C 
HETATM   13  C33 UNL     1      13.495  22.589   3.983  1.00  0.00     0.063 C 
BRANCH  11  14
HETATM   14  C5  UNL     1      15.451  19.951   5.513  1.00  0.00     0.260 C 
BRANCH  14  15
HETATM   15  O1  UNL     1      15.787  18.947   4.725  1.00  0.00    -0.317 OA
BRANCH  15  16
HETATM   16  C4  UNL     1      15.135  18.195   3.770  1.00  0.00     0.179 C 
BRANCH  16  17
HETATM   17  C3  UNL     1      15.136  18.848   2.424  1.00  0.00     0.026 C 
BRANCH  17  18
HETATM   18  C2  UNL     1      15.882  18.061   1.372  1.00  0.00    -0.002 C 
HETATM   19  C1  UNL     1      17.210  17.540   1.829  1.00  0.00     0.005 C 
ENDBRANCH  17  18
ENDBRANCH  16  17
ENDBRANCH  15  16
ENDBRANCH  14  15
BRANCH  14  20
HETATM   20  O2  UNL     1      15.932  19.778   6.773  1.00  0.00    -0.327 OA
ATOM     21  H2  UNL     1      16.808  20.133   6.863  1.00  0.00     0.221 HD
ENDBRANCH  14  20
ENDBRANCH  11  14
BRANCH   8  22
HETATM   22  O3  UNL     1      14.695  24.488   4.730  1.00  0.00    -0.384 OA
ATOM     23  H3  UNL     1      14.414  25.299   4.323  1.00  0.00     0.211 HD
ENDBRANCH   8  22
ENDBRANCH   7   8
ENDBRANCH   4   7
ENDBRANCH   1   2
BRANCH   1  24
HETATM   24  C12 UNL     1       8.047  26.436   8.539  1.00  0.00     0.161 C 
BRANCH  24  25
HETATM   25  N4  UNL     1       6.979  26.436   7.600  1.00  0.00    -0.368 N 
ATOM     26  H4  UNL     1       6.892  25.636   6.974  1.00  0.00     0.161 HD
BRANCH  25  27
HETATM   27  C13 UNL     1       6.043  27.462   7.480  1.00  0.00     0.154 C 
BRANCH  27  28
HETATM   28  O5  UNL     1       6.247  28.486   8.257  1.00  0.00    -0.347 OA
ATOM     29  H5  UNL     1       6.397  29.308   7.806  1.00  0.00     0.219 HD
ENDBRANCH  27  28
BRANCH  27  30
HETATM   30  C14 UNL     1       4.862  27.502   6.597  1.00  0.00     0.161 C 
HETATM   31  C26 UNL     1       3.753  26.784   7.478  1.00  0.00     0.054 C 
HETATM   32  C27 UNL     1       2.499  27.249   6.766  1.00  0.00     0.004 C 
HETATM   33  C28 UNL     1       2.770  28.713   6.481  1.00  0.00     0.004 C 
HETATM   34  C29 UNL     1       4.288  28.885   6.548  1.00  0.00     0.054 C 
BRANCH  30  35
HETATM   35  N5  UNL     1       4.952  26.853   5.398  1.00  0.00    -0.391 NA
HETATM   36  C15 UNL     1       5.023  26.214   4.190  1.00  0.00     0.324 C 
HETATM   37  O6  UNL     1       4.180  26.435   3.242  1.00  0.00    -0.251 OA
BRANCH  36  38
HETATM   38  C16 UNL     1       6.020  25.199   3.773  1.00  0.00     0.075 A 
HETATM   39  C17 UNL     1       7.347  25.509   3.781  1.00  0.00    -0.041 A 
HETATM   40  C18 UNL     1       7.849  26.878   4.088  1.00  0.00     0.049 C 
HETATM   41  C19 UNL     1       8.220  24.512   3.455  1.00  0.00     0.032 A 
HETATM   42  C20 UNL     1       7.783  23.221   3.119  1.00  0.00     0.006 A 
HETATM   43  C21 UNL     1       8.800  22.206   2.695  1.00  0.00     0.068 C 
HETATM   44  N6  UNL     1       6.469  22.994   3.133  1.00  0.00    -0.362 N 
HETATM   45  C22 UNL     1       5.526  23.973   3.463  1.00  0.00     0.030 A 
ATOM     46  H6  UNL     1       6.135  22.060   2.891  1.00  0.00     0.165 HD
BRANCH  45  47
HETATM   47  C23 UNL     1       4.101  23.645   3.500  1.00  0.00     0.028 C 
HETATM   48  C24 UNL     1       3.681  23.365   2.026  1.00  0.00     0.016 C 
HETATM   49  C25 UNL     1       3.798  22.393   4.265  1.00  0.00     0.016 C 
ENDBRANCH  45  47
ENDBRANCH  36  38
ENDBRANCH  30  35
ENDBRANCH  27  30
ENDBRANCH  25  27
ENDBRANCH  24  25
ENDBRANCH   1  24
BRANCH   1  50
HETATM   50  C30 UNL     1      10.179  27.375   9.075  1.00  0.00     0.015 C 
HETATM   51  C31 UNL     1       9.347  28.044  10.164  1.00  0.00     0.012 C 
HETATM   52  C32 UNL     1      10.852  26.212   9.704  1.00  0.00     0.012 C 
ENDBRANCH   1  50
TORSDOF 19
ENDMDL
MODEL 3
REMARK VINA RESULT: -8.902312446      4.944     14.525
REMARK  19 active torsions:
REMARK  status: ('A' for Active; 'I' for Inactive)
REMARK    1  A    between atoms: C2_2  and  C3_3 
REMARK    2  A    between atoms: C3_3  and  C4_4 
REMARK    3  A    between atoms: C4_4  and  O1_5 
REMARK    4  A    between atoms: O1_5  and  C5_6 
REMARK    5  A    between atoms: C5_6  and  O2_7 
REMARK    6  A    between atoms: C5_6  and  N1_9 
REMARK    7  A    between atoms: C8_12  and  O3_13 
REMARK    8  A    between atoms: C8_12  and  C9_15 
REMARK    9  A    between atoms: C9_15  and  N2_16 
REMARK       I    between atoms: N2_16  and  C10_18 
REMARK       I    between atoms: C10_18  and  N3_20 
REMARK   10  A    between atoms: N3_20  and  C11_21 
REMARK   11  A    between atoms: C11_21  and  C12_22 
REMARK   12  A    between atoms: C11_21  and  C30_48 
REMARK   13  A    between atoms: C12_22  and  N4_23 
REMARK   14  A    between atoms: N4_23  and  C13_25 
REMARK   15  A    between atoms: C13_25  and  O5_26 
REMARK   16  A    between atoms: C13_25  and  C14_28 
REMARK   17  A    between atoms: C14_28  and  N5_29 
REMARK       I    between atoms: N5_29  and  C15_30 
REMARK   18  A    between atoms: C15_30  and  C16_32 
REMARK   19  A    between atoms: C22_40  and  C23_41 
ROOT
HETATM    1  C11 UNL     1      17.103  18.634   3.315  1.00  0.00     0.189 C 
ENDROOT
BRANCH   1   2
HETATM    2  N3  UNL     1      16.623  19.503   4.261  1.00  0.00    -0.389 NA
HETATM    3  C10 UNL     1      16.173  20.340   5.268  1.00  0.00     0.392 C 
HETATM    4  N2  UNL     1      15.635  21.645   4.906  1.00  0.00    -0.308 N 
HETATM    5  O4  UNL     1      16.196  20.109   6.490  1.00  0.00    -0.230 OA
ATOM      6  H2  UNL     1      15.729  21.872   3.916  1.00  0.00     0.170 HD
BRANCH   4   7
HETATM    7  C9  UNL     1      15.025  22.624   5.646  1.00  0.00     0.104 C 
BRANCH   7   8
HETATM    8  C8  UNL     1      13.876  23.450   5.307  1.00  0.00     0.093 C 
HETATM    9  C7  UNL     1      12.711  22.957   4.541  1.00  0.00     0.063 C 
HETATM   10  C6  UNL     1      11.375  23.046   5.263  1.00  0.00     0.130 C 
HETATM   11  N1  UNL     1      11.148  24.307   5.922  1.00  0.00    -0.341 N 
HETATM   12  C34 UNL     1      12.343  25.012   6.437  1.00  0.00     0.130 C 
HETATM   13  C33 UNL     1      13.338  23.916   6.675  1.00  0.00     0.063 C 
BRANCH  11  14
HETATM   14  C5  UNL     1       9.879  24.841   6.126  1.00  0.00     0.260 C 
BRANCH  14  15
HETATM   15  O1  UNL     1       9.292  25.498   7.109  1.00  0.00    -0.317 OA
BRANCH  15  16
HETATM   16  C4  UNL     1       9.512  26.700   7.748  1.00  0.00     0.179 C 
BRANCH  16  17
HETATM   17  C3  UNL     1      10.135  26.529   9.098  1.00  0.00     0.026 C 
BRANCH  17  18
HETATM   18  C2  UNL     1       9.801  27.644  10.062  1.00  0.00    -0.002 C 
HETATM   19  C1  UNL     1       8.547  28.389   9.720  1.00  0.00     0.005 C 
ENDBRANCH  17  18
ENDBRANCH  16  17
ENDBRANCH  15  16
ENDBRANCH  14  15
BRANCH  14  20
HETATM   20  O2  UNL     1       9.032  24.646   5.082  1.00  0.00    -0.327 OA
ATOM     21  H2  UNL     1       9.464  24.202   4.361  1.00  0.00     0.221 HD
ENDBRANCH  14  20
ENDBRANCH  11  14
BRANCH   8  22
HETATM   22  O3  UNL     1      14.296  24.644   4.636  1.00  0.00    -0.384 OA
ATOM     23  H3  UNL     1      14.787  25.138   5.282  1.00  0.00     0.211 HD
ENDBRANCH   8  22
ENDBRANCH   7   8
ENDBRANCH   4   7
ENDBRANCH   1   2
BRANCH   1  24
HETATM   24  C12 UNL     1      17.379  17.234   4.022  1.00  0.00     0.161 C 
BRANCH  24  25
HETATM   25  N4  UNL     1      18.634  17.306   4.687  1.00  0.00    -0.368 N 
ATOM     26  H4  UNL     1      19.469  17.450   4.119  1.00  0.00     0.161 HD
BRANCH  25  27
HETATM   27  C13 UNL     1      18.797  17.190   6.066  1.00  0.00     0.154 C 
BRANCH  27  28
HETATM   28  O5  UNL     1      18.363  18.202   6.758  1.00  0.00    -0.347 OA
ATOM     29  H5  UNL     1      18.861  18.395   7.544  1.00  0.00     0.219 HD
ENDBRANCH  27  28
BRANCH  27  30
HETATM   30  C14 UNL     1      19.410  16.071   6.808  1.00  0.00     0.161 C 
HETATM   31  C26 UNL     1      18.421  14.869   6.490  1.00  0.00     0.054 C 
HETATM   32  C27 UNL     1      19.301  13.692   6.857  1.00  0.00     0.004 C 
HETATM   33  C28 UNL     1      20.655  14.063   6.286  1.00  0.00     0.004 C 
HETATM   34  C29 UNL     1      20.637  15.581   6.102  1.00  0.00     0.054 C 
BRANCH  30  35
HETATM   35  N5  UNL     1      19.515  16.200   8.164  1.00  0.00    -0.391 NA
HETATM   36  C15 UNL     1      19.642  16.337   9.519  1.00  0.00     0.324 C 
HETATM   37  O6  UNL     1      20.721  16.774  10.071  1.00  0.00    -0.251 OA
BRANCH  36  38
HETATM   38  C16 UNL     1      18.625  16.018  10.550  1.00  0.00     0.075 A 
HETATM   39  C17 UNL     1      18.622  14.791  11.142  1.00  0.00    -0.041 A 
HETATM   40  C18 UNL     1      19.539  13.694  10.721  1.00  0.00     0.049 C 
HETATM   41  C19 UNL     1      17.706  14.581  12.132  1.00  0.00     0.032 A 
HETATM   42  C20 UNL     1      16.798  15.575  12.528  1.00  0.00     0.006 A 
HETATM   43  C21 UNL     1      15.771  15.239  13.567  1.00  0.00     0.068 C 
HETATM   44  N6  UNL     1      16.861  16.751  11.901  1.00  0.00    -0.362 N 
HETATM   45  C22 UNL     1      17.780  17.027  10.883  1.00  0.00     0.030 A 
ATOM     46  H6  UNL     1      16.208  17.484  12.178  1.00  0.00     0.165 HD
BRANCH  45  47
HETATM   47  C23 UNL     1      17.824  18.353  10.266  1.00  0.00     0.028 C 
HETATM   48  C24 UNL     1      16.342  18.789  10.068  1.00  0.00     0.016 C 
HETATM   49  C25 UNL     1      18.452  19.395  11.140  1.00  0.00     0.016 C 
ENDBRANCH  45  47
ENDBRANCH  36  38
ENDBRANCH  30  35
ENDBRANCH  27  30
ENDBRANCH  25  27
ENDBRANCH  24  25
ENDBRANCH   1  24
BRANCH   1  50
HETATM   50  C30 UNL     1      16.001  18.220   2.336  1.00  0.00     0.015 C 
HETATM   51  C31 UNL     1      15.096  19.395   1.982  1.00  0.00     0.012 C 
HETATM   52  C32 UNL     1      16.471  17.638   1.055  1.00  0.00     0.012 C 
ENDBRANCH   1  50
TORSDOF 19
ENDMDL
MODEL 4
REMARK VINA RESULT: -8.889435751      2.010      4.079
REMARK  19 active torsions:
REMARK  status: ('A' for Active; 'I' for Inactive)
REMARK    1  A    between atoms: C2_2  and  C3_3 
REMARK    2  A    between atoms: C3_3  and  C4_4 
REMARK    3  A    between atoms: C4_4  and  O1_5 
REMARK    4  A    between atoms: O1_5  and  C5_6 
REMARK    5  A    between atoms: C5_6  and  O2_7 
REMARK    6  A    between atoms: C5_6  and  N1_9 
REMARK    7  A    between atoms: C8_12  and  O3_13 
REMARK    8  A    between atoms: C8_12  and  C9_15 
REMARK    9  A    between atoms: C9_15  and  N2_16 
REMARK       I    between atoms: N2_16  and  C10_18 
REMARK       I    between atoms: C10_18  and  N3_20 
REMARK   10  A    between atoms: N3_20  and  C11_21 
REMARK   11  A    between atoms: C11_21  and  C12_22 
REMARK   12  A    between atoms: C11_21  and  C30_48 
REMARK   13  A    between atoms: C12_22  and  N4_23 
REMARK   14  A    between atoms: N4_23  and  C13_25 
REMARK   15  A    between atoms: C13_25  and  O5_26 
REMARK   16  A    between atoms: C13_25  and  C14_28 
REMARK   17  A    between atoms: C14_28  and  N5_29 
REMARK       I    between atoms: N5_29  and  C15_30 
REMARK   18  A    between atoms: C15_30  and  C16_32 
REMARK   19  A    between atoms: C22_40  and  C23_41 
ROOT
HETATM    1  C11 UNL     1       9.036  24.227   3.791  1.00  0.00     0.189 C 
ENDROOT
BRANCH   1   2
HETATM    2  N3  UNL     1      10.091  24.356   4.657  1.00  0.00    -0.389 NA
HETATM    3  C10 UNL     1      11.126  24.549   5.558  1.00  0.00     0.392 C 
HETATM    4  N2  UNL     1      12.041  23.445   5.819  1.00  0.00    -0.308 N 
HETATM    5  O4  UNL     1      11.359  25.583   6.209  1.00  0.00    -0.230 OA
ATOM      6  H2  UNL     1      11.772  22.569   5.373  1.00  0.00     0.170 HD
BRANCH   4   7
HETATM    7  C9  UNL     1      13.195  23.364   6.554  1.00  0.00     0.104 C 
BRANCH   7   8
HETATM    8  C8  UNL     1      14.495  22.836   6.166  1.00  0.00     0.093 C 
HETATM    9  C7  UNL     1      15.467  22.270   7.125  1.00  0.00     0.063 C 
HETATM   10  C6  UNL     1      15.853  20.818   6.877  1.00  0.00     0.130 C 
HETATM   11  N1  UNL     1      16.151  20.519   5.499  1.00  0.00    -0.341 N 
HETATM   12  C34 UNL     1      15.421  21.301   4.477  1.00  0.00     0.130 C 
HETATM   13  C33 UNL     1      14.154  21.711   5.167  1.00  0.00     0.063 C 
BRANCH  11  14
HETATM   14  C5  UNL     1      17.037  19.518   5.113  1.00  0.00     0.260 C 
BRANCH  14  15
HETATM   15  O1  UNL     1      16.923  18.237   4.817  1.00  0.00    -0.317 OA
BRANCH  15  16
HETATM   16  C4  UNL     1      16.482  17.523   3.723  1.00  0.00     0.179 C 
BRANCH  16  17
HETATM   17  C3  UNL     1      15.090  17.894   3.316  1.00  0.00     0.026 C 
BRANCH  17  18
HETATM   18  C2  UNL     1      15.018  18.579   1.971  1.00  0.00    -0.002 C 
HETATM   19  C1  UNL     1      16.171  18.269   1.067  1.00  0.00     0.005 C 
ENDBRANCH  17  18
ENDBRANCH  16  17
ENDBRANCH  15  16
ENDBRANCH  14  15
BRANCH  14  20
HETATM   20  O2  UNL     1      18.326  19.939   5.016  1.00  0.00    -0.327 OA
ATOM     21  H2  UNL     1      18.539  20.204   4.129  1.00  0.00     0.221 HD
ENDBRANCH  14  20
ENDBRANCH  11  14
BRANCH   8  22
HETATM   22  O3  UNL     1      15.226  23.808   5.411  1.00  0.00    -0.384 OA
ATOM     23  H3  UNL     1      15.390  23.403   4.567  1.00  0.00     0.211 HD
ENDBRANCH   8  22
ENDBRANCH   7   8
ENDBRANCH   4   7
ENDBRANCH   1   2
BRANCH   1  24
HETATM   24  C12 UNL     1       8.655  25.677   3.255  1.00  0.00     0.161 C 
BRANCH  24  25
HETATM   25  N4  UNL     1       7.793  26.296   4.202  1.00  0.00    -0.368 N 
ATOM     26  H4  UNL     1       6.787  26.211   4.059  1.00  0.00     0.161 HD
BRANCH  25  27
HETATM   27  C13 UNL     1       8.236  27.012   5.312  1.00  0.00     0.154 C 
BRANCH  27  28
HETATM   28  O5  UNL     1       9.421  27.535   5.192  1.00  0.00    -0.347 OA
ATOM     29  H5  UNL     1       9.511  28.171   4.491  1.00  0.00     0.219 HD
ENDBRANCH  27  28
BRANCH  27  30
HETATM   30  C14 UNL     1       7.525  27.222   6.587  1.00  0.00     0.161 C 
HETATM   31  C26 UNL     1       8.087  26.041   7.489  1.00  0.00     0.054 C 
HETATM   32  C27 UNL     1       7.715  26.551   8.866  1.00  0.00     0.004 C 
HETATM   33  C28 UNL     1       8.057  28.026   8.806  1.00  0.00     0.004 C 
HETATM   34  C29 UNL     1       8.099  28.395   7.324  1.00  0.00     0.054 C 
BRANCH  30  35
HETATM   35  N5  UNL     1       6.162  27.142   6.567  1.00  0.00    -0.391 NA
HETATM   36  C15 UNL     1       4.796  27.051   6.568  1.00  0.00     0.324 C 
HETATM   37  O6  UNL     1       4.140  26.519   7.540  1.00  0.00    -0.251 OA
BRANCH  36  38
HETATM   38  C16 UNL     1       3.869  27.514   5.507  1.00  0.00     0.075 A 
HETATM   39  C17 UNL     1       3.386  28.787   5.537  1.00  0.00    -0.041 A 
HETATM   40  C18 UNL     1       3.660  29.723   6.663  1.00  0.00     0.049 C 
HETATM   41  C19 UNL     1       2.594  29.175   4.495  1.00  0.00     0.032 A 
HETATM   42  C20 UNL     1       2.279  28.309   3.437  1.00  0.00     0.006 A 
HETATM   43  C21 UNL     1       1.337  28.786   2.373  1.00  0.00     0.068 C 
HETATM   44  N6  UNL     1       2.789  27.077   3.478  1.00  0.00    -0.362 N 
HETATM   45  C22 UNL     1       3.610  26.623   4.516  1.00  0.00     0.030 A 
ATOM     46  H6  UNL     1       2.569  26.435   2.716  1.00  0.00     0.165 HD
BRANCH  45  47
HETATM   47  C23 UNL     1       4.171  25.272   4.477  1.00  0.00     0.028 C 
HETATM   48  C24 UNL     1       2.998  24.305   4.817  1.00  0.00     0.016 C 
HETATM   49  C25 UNL     1       4.663  24.871   3.120  1.00  0.00     0.016 C 
ENDBRANCH  45  47
ENDBRANCH  36  38
ENDBRANCH  30  35
ENDBRANCH  27  30
ENDBRANCH  25  27
ENDBRANCH  24  25
ENDBRANCH   1  24
BRANCH   1  50
HETATM   50  C30 UNL     1       9.474  23.570   2.481  1.00  0.00     0.015 C 
HETATM   51  C31 UNL     1      10.704  24.255   1.894  1.00  0.00     0.012 C 
HETATM   52  C32 UNL     1       9.790  22.123   2.567  1.00  0.00     0.012 C 
ENDBRANCH   1  50
TORSDOF 19
ENDMDL
MODEL 5
REMARK VINA RESULT: -8.713367337      4.664     13.846
REMARK  19 active torsions:
REMARK  status: ('A' for Active; 'I' for Inactive)
REMARK    1  A    between atoms: C2_2  and  C3_3 
REMARK    2  A    between atoms: C3_3  and  C4_4 
REMARK    3  A    between atoms: C4_4  and  O1_5 
REMARK    4  A    between atoms: O1_5  and  C5_6 
REMARK    5  A    between atoms: C5_6  and  O2_7 
REMARK    6  A    between atoms: C5_6  and  N1_9 
REMARK    7  A    between atoms: C8_12  and  O3_13 
REMARK    8  A    between atoms: C8_12  and  C9_15 
REMARK    9  A    between atoms: C9_15  and  N2_16 
REMARK       I    between atoms: N2_16  and  C10_18 
REMARK       I    between atoms: C10_18  and  N3_20 
REMARK   10  A    between atoms: N3_20  and  C11_21 
REMARK   11  A    between atoms: C11_21  and  C12_22 
REMARK   12  A    between atoms: C11_21  and  C30_48 
REMARK   13  A    between atoms: C12_22  and  N4_23 
REMARK   14  A    between atoms: N4_23  and  C13_25 
REMARK   15  A    between atoms: C13_25  and  O5_26 
REMARK   16  A    between atoms: C13_25  and  C14_28 
REMARK   17  A    between atoms: C14_28  and  N5_29 
REMARK       I    between atoms: N5_29  and  C15_30 
REMARK   18  A    between atoms: C15_30  and  C16_32 
REMARK   19  A    between atoms: C22_40  and  C23_41 
ROOT
HETATM    1  C11 UNL     1      16.868  19.048   3.587  1.00  0.00     0.189 C 
ENDROOT
BRANCH   1   2
HETATM    2  N3  UNL     1      15.980  20.082   3.731  1.00  0.00    -0.389 NA
HETATM    3  C10 UNL     1      15.032  21.087   3.838  1.00  0.00     0.392 C 
HETATM    4  N2  UNL     1      15.253  22.156   4.803  1.00  0.00    -0.308 N 
HETATM    5  O4  UNL     1      13.968  21.173   3.201  1.00  0.00    -0.230 OA
ATOM      6  H2  UNL     1      16.066  22.014   5.402  1.00  0.00     0.170 HD
BRANCH   4   7
HETATM    7  C9  UNL     1      14.571  23.318   5.057  1.00  0.00     0.104 C 
BRANCH   7   8
HETATM    8  C8  UNL     1      13.233  23.497   5.601  1.00  0.00     0.093 C 
HETATM    9  C7  UNL     1      12.962  24.092   6.927  1.00  0.00     0.063 C 
HETATM   10  C6  UNL     1      12.104  25.349   6.911  1.00  0.00     0.130 C 
HETATM   11  N1  UNL     1      10.941  25.254   6.066  1.00  0.00    -0.341 N 
HETATM   12  C34 UNL     1      11.060  24.395   4.867  1.00  0.00     0.130 C 
HETATM   13  C33 UNL     1      12.529  24.394   4.563  1.00  0.00     0.063 C 
BRANCH  11  14
HETATM   14  C5  UNL     1       9.766  25.959   6.307  1.00  0.00     0.260 C 
BRANCH  14  15
HETATM   15  O1  UNL     1       9.454  27.041   6.996  1.00  0.00    -0.317 OA
BRANCH  15  16
HETATM   16  C4  UNL     1       8.511  27.351   7.953  1.00  0.00     0.179 C 
BRANCH  16  17
HETATM   17  C3  UNL     1       9.110  28.001   9.161  1.00  0.00     0.026 C 
BRANCH  17  18
HETATM   18  C2  UNL     1      10.442  27.412   9.564  1.00  0.00    -0.002 C 
HETATM   19  C1  UNL     1      10.354  26.018  10.104  1.00  0.00     0.005 C 
ENDBRANCH  17  18
ENDBRANCH  16  17
ENDBRANCH  15  16
ENDBRANCH  14  15
BRANCH  14  20
HETATM   20  O2  UNL     1       8.674  25.421   5.702  1.00  0.00    -0.327 OA
ATOM     21  H2  UNL     1       8.483  24.553   6.036  1.00  0.00     0.221 HD
ENDBRANCH  14  20
ENDBRANCH  11  14
BRANCH   8  22
HETATM   22  O3  UNL     1      12.514  22.258   5.585  1.00  0.00    -0.384 OA
ATOM     23  H3  UNL     1      12.916  21.742   4.896  1.00  0.00     0.211 HD
ENDBRANCH   8  22
ENDBRANCH   7   8
ENDBRANCH   4   7
ENDBRANCH   1   2
BRANCH   1  24
HETATM   24  C12 UNL     1      16.771  18.127   4.882  1.00  0.00     0.161 C 
BRANCH  24  25
HETATM   25  N4  UNL     1      17.972  18.275   5.631  1.00  0.00    -0.368 N 
ATOM     26  H4  UNL     1      18.626  17.493   5.644  1.00  0.00     0.161 HD
BRANCH  25  27
HETATM   27  C13 UNL     1      18.310  19.420   6.349  1.00  0.00     0.154 C 
BRANCH  27  28
HETATM   28  O5  UNL     1      19.269  20.130   5.832  1.00  0.00    -0.347 OA
ATOM     29  H5  UNL     1      20.143  19.903   6.129  1.00  0.00     0.219 HD
ENDBRANCH  27  28
BRANCH  27  30
HETATM   30  C14 UNL     1      17.719  19.894   7.616  1.00  0.00     0.161 C 
HETATM   31  C26 UNL     1      18.596  21.177   7.941  1.00  0.00     0.054 C 
HETATM   32  C27 UNL     1      17.697  21.873   8.942  1.00  0.00     0.004 C 
HETATM   33  C28 UNL     1      16.312  21.721   8.345  1.00  0.00     0.004 C 
HETATM   34  C29 UNL     1      16.395  20.550   7.366  1.00  0.00     0.054 C 
BRANCH  30  35
HETATM   35  N5  UNL     1      17.771  19.049   8.687  1.00  0.00    -0.391 NA
HETATM   36  C15 UNL     1      17.799  18.203   9.763  1.00  0.00     0.324 C 
HETATM   37  O6  UNL     1      16.730  17.833  10.379  1.00  0.00    -0.251 OA
BRANCH  36  38
HETATM   38  C16 UNL     1      18.997  17.597  10.392  1.00  0.00     0.075 A 
HETATM   39  C17 UNL     1      19.545  18.171  11.500  1.00  0.00    -0.041 A 
HETATM   40  C18 UNL     1      19.058  19.464  12.058  1.00  0.00     0.049 C 
HETATM   41  C19 UNL     1      20.603  17.528  12.074  1.00  0.00     0.032 A 
HETATM   42  C20 UNL     1      21.118  16.330  11.553  1.00  0.00     0.006 A 
HETATM   43  C21 UNL     1      22.332  15.730  12.195  1.00  0.00     0.068 C 
HETATM   44  N6  UNL     1      20.529  15.830  10.466  1.00  0.00    -0.362 N 
HETATM   45  C22 UNL     1      19.439  16.440   9.835  1.00  0.00     0.030 A 
ATOM     46  H6  UNL     1      20.891  14.959  10.075  1.00  0.00     0.165 HD
BRANCH  45  47
HETATM   47  C23 UNL     1      18.813  15.815   8.671  1.00  0.00     0.028 C 
HETATM   48  C24 UNL     1      19.892  15.811   7.547  1.00  0.00     0.016 C 
HETATM   49  C25 UNL     1      18.439  14.381   8.894  1.00  0.00     0.016 C 
ENDBRANCH  45  47
ENDBRANCH  36  38
ENDBRANCH  30  35
ENDBRANCH  27  30
ENDBRANCH  25  27
ENDBRANCH  24  25
ENDBRANCH   1  24
BRANCH   1  50
HETATM   50  C30 UNL     1      16.393  18.055   2.524  1.00  0.00     0.015 C 
HETATM   51  C31 UNL     1      15.844  18.771   1.295  1.00  0.00     0.012 C 
HETATM   52  C32 UNL     1      17.419  17.098   2.040  1.00  0.00     0.012 C 
ENDBRANCH   1  50
TORSDOF 19
ENDMDL
