MODEL 1
REMARK VINA RESULT: -7.306734403      0.000      0.000
REMARK  14 active torsions:
REMARK  status: ('A' for Active; 'I' for Inactive)
REMARK    1  A    between atoms: C2_2  and  C3_3 
REMARK    2  A    between atoms: C3_3  and  C5_5 
REMARK    3  A    between atoms: C7_10  and  C8_11 
REMARK       I    between atoms: C8_11  and  N2_13 
REMARK    4  A    between atoms: N2_13  and  C9_15 
REMARK    5  A    between atoms: C9_15  and  C10_16 
REMARK    6  A    between atoms: C10_16  and  C11_17 
REMARK    7  A    between atoms: C11_17  and  N3_18 
REMARK    8  A    between atoms: C15_22  and  C16_23 
REMARK    9  A    between atoms: C16_23  and  C17_24 
REMARK   10  A    between atoms: C17_24  and  O3_25 
REMARK   11  A    between atoms: C24_33  and  O4_35 
REMARK   12  A    between atoms: C26_37  and  C27_38 
REMARK   13  A    between atoms: C30_42  and  C31_43 
REMARK   14  A    between atoms: C31_43  and  C32_44 
ROOT
HETATM    1  C5  UNL     1      17.884  18.683   9.334  1.00  0.00     0.180 C 
HETATM    2  N1  UNL     1      18.528  19.480   8.313  1.00  0.00    -0.347 N 
ATOM      3  H1  UNL     1      19.278  20.114   8.591  1.00  0.00     0.163 HD
HETATM    4  C6  UNL     1      18.162  19.422   6.927  1.00  0.00     0.231 C 
HETATM    5  O1  UNL     1      18.128  20.505   6.246  1.00  0.00    -0.273 OA
HETATM    6  C7  UNL     1      17.815  18.159   6.232  1.00  0.00     0.169 C 
HETATM    7  C19 UNL     1      18.938  17.140   6.260  1.00  0.00     0.026 C 
HETATM    8  C20 UNL     1      18.440  15.767   6.647  1.00  0.00     0.039 C 
HETATM    9  C21 UNL     1      19.503  14.980   7.440  1.00  0.00     0.063 C 
HETATM   10  C22 UNL     1      19.303  13.519   6.988  1.00  0.00     0.041 C 
HETATM   11  C23 UNL     1      19.918  13.322   5.626  1.00  0.00     0.043 C 
HETATM   12  C24 UNL     1      21.421  13.630   5.621  1.00  0.00     0.080 C 
HETATM   13  C25 UNL     1      22.154  12.294   5.872  1.00  0.00     0.048 C 
HETATM   14  C26 UNL     1      21.710  14.573   6.734  1.00  0.00     0.156 C 
HETATM   15  O5  UNL     1      20.700  15.445   7.019  1.00  0.00    -0.372 OA
HETATM   16  C29 UNL     1      19.213  15.057   8.917  1.00  0.00     0.063 C 
HETATM   17  C30 UNL     1      20.090  16.052   9.667  1.00  0.00     0.087 C 
HETATM   18  N4  UNL     1      19.338  16.892  10.543  1.00  0.00    -0.355 N 
ATOM     19  H4  UNL     1      19.121  16.480  11.451  1.00  0.00     0.162 HD
HETATM   20  C35 UNL     1      18.847  18.199  10.352  1.00  0.00     0.241 C 
HETATM   21  O6  UNL     1      19.241  19.157  11.130  1.00  0.00    -0.271 OA
ENDROOT
BRANCH   6  22
HETATM   22  C8  UNL     1      17.435  18.503   4.827  1.00  0.00     0.230 C 
HETATM   23  O2  UNL     1      18.292  18.369   3.934  1.00  0.00    -0.273 OA
HETATM   24  N2  UNL     1      16.163  18.968   4.473  1.00  0.00    -0.360 N 
ATOM     25  H2  UNL     1      15.463  19.079   5.206  1.00  0.00     0.162 HD
BRANCH  24  26
HETATM   26  C9  UNL     1      15.802  19.294   3.122  1.00  0.00     0.124 C 
BRANCH  26  27
HETATM   27  C10 UNL     1      14.846  20.430   2.972  1.00  0.00     0.050 C 
BRANCH  27  28
HETATM   28  C11 UNL     1      15.073  21.394   4.125  1.00  0.00     0.274 C 
BRANCH  28  29
HETATM   29  N3  UNL     1      13.849  21.843   4.724  1.00  0.00     0.088 N 
HETATM   30  C12 UNL     1      13.577  21.190   5.984  1.00  0.00     0.272 C 
HETATM   31  C13 UNL     1      12.125  21.375   6.322  1.00  0.00     0.031 C 
HETATM   32  C14 UNL     1      11.793  22.840   6.368  1.00  0.00     0.008 C 
HETATM   33  C15 UNL     1      12.244  23.565   5.103  1.00  0.00     0.016 C 
HETATM   34  C18 UNL     1      13.711  23.262   4.842  1.00  0.00     0.277 C 
BRANCH  33  35
HETATM   35  C16 UNL     1      11.365  23.125   3.964  1.00  0.00     0.032 C 
BRANCH  35  36
HETATM   36  C17 UNL     1      10.803  24.303   3.217  1.00  0.00     0.164 C 
BRANCH  36  37
HETATM   37  O3  UNL     1      11.773  24.732   2.302  1.00  0.00    -0.401 OA
ATOM     38  H3  UNL     1      11.730  25.680   2.256  1.00  0.00     0.209 HD
ENDBRANCH  36  37
ENDBRANCH  35  36
ENDBRANCH  33  35
ENDBRANCH  28  29
ENDBRANCH  27  28
ENDBRANCH  26  27
ENDBRANCH  24  26
ENDBRANCH   6  22
BRANCH   1  39
HETATM   39  C3  UNL     1      16.671  19.329   9.925  1.00  0.00     0.013 C 
HETATM   40  C4  UNL     1      15.823  18.288  10.566  1.00  0.00     0.012 C 
BRANCH  39  41
HETATM   41  C2  UNL     1      15.846  20.195   9.062  1.00  0.00     0.002 C 
HETATM   42  C1  UNL     1      15.094  21.298   9.761  1.00  0.00     0.005 C 
ENDBRANCH  39  41
ENDBRANCH   1  39
BRANCH  14  43
HETATM   43  C27 UNL     1      22.945  15.424   6.489  1.00  0.00     0.030 C 
HETATM   44  C28 UNL     1      23.529  15.970   7.758  1.00  0.00     0.007 C 
ENDBRANCH  14  43
BRANCH  17  45
HETATM   45  C31 UNL     1      21.073  15.168  10.447  1.00  0.00     0.029 C 
BRANCH  45  46
HETATM   46  C32 UNL     1      20.702  13.736  10.521  1.00  0.00    -0.021 C 
HETATM   47  C33 UNL     1      21.739  12.806   9.946  1.00  0.00     0.009 C 
HETATM   48  C34 UNL     1      20.132  13.301  11.831  1.00  0.00     0.009 C 
ENDBRANCH  45  46
ENDBRANCH  17  45
BRANCH  12  49
HETATM   49  O4  UNL     1      21.700  14.083   4.355  1.00  0.00    -0.388 OA
ATOM     50  H4  UNL     1      22.379  13.509   4.023  1.00  0.00     0.210 HD
ENDBRANCH  12  49
TORSDOF 14
ENDMDL
MODEL 2
REMARK VINA RESULT: -7.179496312      7.225     17.048
REMARK  14 active torsions:
REMARK  status: ('A' for Active; 'I' for Inactive)
REMARK    1  A    between atoms: C2_2  and  C3_3 
REMARK    2  A    between atoms: C3_3  and  C5_5 
REMARK    3  A    between atoms: C7_10  and  C8_11 
REMARK       I    between atoms: C8_11  and  N2_13 
REMARK    4  A    between atoms: N2_13  and  C9_15 
REMARK    5  A    between atoms: C9_15  and  C10_16 
REMARK    6  A    between atoms: C10_16  and  C11_17 
REMARK    7  A    between atoms: C11_17  and  N3_18 
REMARK    8  A    between atoms: C15_22  and  C16_23 
REMARK    9  A    between atoms: C16_23  and  C17_24 
REMARK   10  A    between atoms: C17_24  and  O3_25 
REMARK   11  A    between atoms: C24_33  and  O4_35 
REMARK   12  A    between atoms: C26_37  and  C27_38 
REMARK   13  A    between atoms: C30_42  and  C31_43 
REMARK   14  A    between atoms: C31_43  and  C32_44 
ROOT
HETATM    1  C5  UNL     1       6.037  25.010   3.282  1.00  0.00     0.180 C 
HETATM    2  N1  UNL     1       6.927  26.150   3.306  1.00  0.00    -0.347 N 
ATOM      3  H1  UNL     1       7.039  26.698   2.452  1.00  0.00     0.163 HD
HETATM    4  C6  UNL     1       7.661  26.546   4.474  1.00  0.00     0.231 C 
HETATM    5  O1  UNL     1       8.866  26.955   4.342  1.00  0.00    -0.273 OA
HETATM    6  C7  UNL     1       7.091  26.505   5.842  1.00  0.00     0.169 C 
HETATM    7  C19 UNL     1       5.853  27.366   5.994  1.00  0.00     0.026 C 
HETATM    8  C20 UNL     1       4.742  26.631   6.706  1.00  0.00     0.039 C 
HETATM    9  C21 UNL     1       3.353  27.066   6.196  1.00  0.00     0.063 C 
HETATM   10  C22 UNL     1       2.457  27.009   7.449  1.00  0.00     0.041 C 
HETATM   11  C23 UNL     1       2.715  28.219   8.311  1.00  0.00     0.043 C 
HETATM   12  C24 UNL     1       2.426  29.530   7.567  1.00  0.00     0.080 C 
HETATM   13  C25 UNL     1       0.967  29.918   7.891  1.00  0.00     0.048 C 
HETATM   14  C26 UNL     1       2.562  29.280   6.108  1.00  0.00     0.156 C 
HETATM   15  O5  UNL     1       3.496  28.342   5.775  1.00  0.00    -0.372 OA
HETATM   16  C29 UNL     1       2.827  26.065   5.199  1.00  0.00     0.063 C 
HETATM   17  C30 UNL     1       2.964  26.509   3.748  1.00  0.00     0.087 C 
HETATM   18  N4  UNL     1       3.502  25.484   2.912  1.00  0.00    -0.355 N 
ATOM     19  H4  UNL     1       2.823  24.798   2.582  1.00  0.00     0.162 HD
HETATM   20  C35 UNL     1       4.823  25.269   2.470  1.00  0.00     0.241 C 
HETATM   21  O6  UNL     1       5.091  25.282   1.202  1.00  0.00    -0.271 OA
ENDROOT
BRANCH   6  22
HETATM   22  C8  UNL     1       8.164  26.931   6.793  1.00  0.00     0.230 C 
HETATM   23  O2  UNL     1       8.244  28.138   7.089  1.00  0.00    -0.273 OA
HETATM   24  N2  UNL     1       9.077  26.038   7.363  1.00  0.00    -0.360 N 
ATOM     25  H2  UNL     1       9.011  25.050   7.118  1.00  0.00     0.162 HD
BRANCH  24  26
HETATM   26  C9  UNL     1      10.103  26.452   8.279  1.00  0.00     0.124 C 
BRANCH  26  27
HETATM   27  C10 UNL     1      11.393  25.708   8.173  1.00  0.00     0.050 C 
BRANCH  27  28
HETATM   28  C11 UNL     1      11.575  25.282   6.725  1.00  0.00     0.274 C 
BRANCH  28  29
HETATM   29  N3  UNL     1      12.197  23.996   6.598  1.00  0.00     0.088 N 
HETATM   30  C12 UNL     1      11.272  22.974   6.165  1.00  0.00     0.272 C 
HETATM   31  C13 UNL     1      11.863  21.626   6.468  1.00  0.00     0.031 C 
HETATM   32  C14 UNL     1      13.200  21.491   5.795  1.00  0.00     0.008 C 
HETATM   33  C15 UNL     1      14.118  22.668   6.114  1.00  0.00     0.016 C 
HETATM   34  C18 UNL     1      13.393  23.971   5.812  1.00  0.00     0.277 C 
BRANCH  33  35
HETATM   35  C16 UNL     1      14.531  22.572   7.558  1.00  0.00     0.032 C 
BRANCH  35  36
HETATM   36  C17 UNL     1      16.027  22.521   7.698  1.00  0.00     0.164 C 
BRANCH  36  37
HETATM   37  O3  UNL     1      16.532  23.784   7.363  1.00  0.00    -0.401 OA
ATOM     38  H3  UNL     1      16.053  24.097   6.605  1.00  0.00     0.209 HD
ENDBRANCH  36  37
ENDBRANCH  35  36
ENDBRANCH  33  35
ENDBRANCH  28  29
ENDBRANCH  27  28
ENDBRANCH  26  27
ENDBRANCH  24  26
ENDBRANCH   6  22
BRANCH   1  39
HETATM   39  C3  UNL     1       6.717  23.723   2.937  1.00  0.00     0.013 C 
HETATM   40  C4  UNL     1       5.944  22.589   3.514  1.00  0.00     0.012 C 
BRANCH  39  41
HETATM   41  C2  UNL     1       8.149  23.578   3.260  1.00  0.00     0.002 C 
HETATM   42  C1  UNL     1       8.833  22.363   2.690  1.00  0.00     0.005 C 
ENDBRANCH  39  41
ENDBRANCH   1  39
BRANCH  14  43
HETATM   43  C27 UNL     1       2.921  30.529   5.320  1.00  0.00     0.030 C 
HETATM   44  C28 UNL     1       1.729  31.158   4.662  1.00  0.00     0.007 C 
ENDBRANCH  14  43
BRANCH  17  45
HETATM   45  C31 UNL     1       1.533  26.874   3.333  1.00  0.00     0.029 C 
BRANCH  45  46
HETATM   46  C32 UNL     1       1.430  27.698   2.106  1.00  0.00    -0.021 C 
HETATM   47  C33 UNL     1       2.473  28.781   2.007  1.00  0.00     0.009 C 
HETATM   48  C34 UNL     1       1.213  26.925   0.846  1.00  0.00     0.009 C 
ENDBRANCH  45  46
ENDBRANCH  17  45
BRANCH  12  49
HETATM   49  O4  UNL     1       3.285  30.456   8.107  1.00  0.00    -0.388 OA
ATOM     50  H4  UNL     1       4.157  30.164   7.870  1.00  0.00     0.210 HD
ENDBRANCH  12  49
TORSDOF 14
ENDMDL
MODEL 3
REMARK VINA RESULT: -7.099615287      1.147      1.686
REMARK  14 active torsions:
REMARK  status: ('A' for Active; 'I' for Inactive)
REMARK    1  A    between atoms: C2_2  and  C3_3 
REMARK    2  A    between atoms: C3_3  and  C5_5 
REMARK    3  A    between atoms: C7_10  and  C8_11 
REMARK       I    between atoms: C8_11  and  N2_13 
REMARK    4  A    between atoms: N2_13  and  C9_15 
REMARK    5  A    between atoms: C9_15  and  C10_16 
REMARK    6  A    between atoms: C10_16  and  C11_17 
REMARK    7  A    between atoms: C11_17  and  N3_18 
REMARK    8  A    between atoms: C15_22  and  C16_23 
REMARK    9  A    between atoms: C16_23  and  C17_24 
REMARK   10  A    between atoms: C17_24  and  O3_25 
REMARK   11  A    between atoms: C24_33  and  O4_35 
REMARK   12  A    between atoms: C26_37  and  C27_38 
REMARK   13  A    between atoms: C30_42  and  C31_43 
REMARK   14  A    between atoms: C31_43  and  C32_44 
ROOT
HETATM    1  C5  UNL     1      17.996  18.336   9.583  1.00  0.00     0.180 C 
HETATM    2  N1  UNL     1      18.611  19.222   8.617  1.00  0.00    -0.347 N 
ATOM      3  H1  UNL     1      19.338  19.862   8.937  1.00  0.00     0.163 HD
HETATM    4  C6  UNL     1      18.245  19.240   7.229  1.00  0.00     0.231 C 
HETATM    5  O1  UNL     1      18.172  20.364   6.621  1.00  0.00    -0.273 OA
HETATM    6  C7  UNL     1      17.943  18.014   6.453  1.00  0.00     0.169 C 
HETATM    7  C19 UNL     1      19.101  17.036   6.416  1.00  0.00     0.026 C 
HETATM    8  C20 UNL     1      18.653  15.625   6.712  1.00  0.00     0.039 C 
HETATM    9  C21 UNL     1      19.743  14.825   7.453  1.00  0.00     0.063 C 
HETATM   10  C22 UNL     1      19.595  13.391   6.907  1.00  0.00     0.041 C 
HETATM   11  C23 UNL     1      20.215  13.305   5.536  1.00  0.00     0.043 C 
HETATM   12  C24 UNL     1      21.707  13.666   5.553  1.00  0.00     0.080 C 
HETATM   13  C25 UNL     1      22.487  12.343   5.717  1.00  0.00     0.048 C 
HETATM   14  C26 UNL     1      21.963  14.543   6.725  1.00  0.00     0.156 C 
HETATM   15  O5  UNL     1      20.923  15.359   7.065  1.00  0.00    -0.372 OA
HETATM   16  C29 UNL     1      19.453  14.795   8.932  1.00  0.00     0.063 C 
HETATM   17  C30 UNL     1      20.294  15.769   9.746  1.00  0.00     0.087 C 
HETATM   18  N4  UNL     1      19.513  16.523  10.674  1.00  0.00    -0.355 N 
ATOM     19  H4  UNL     1      19.312  16.045  11.553  1.00  0.00     0.162 HD
HETATM   20  C35 UNL     1      18.976  17.821  10.569  1.00  0.00     0.241 C 
HETATM   21  O6  UNL     1      19.336  18.740  11.408  1.00  0.00    -0.271 OA
ENDROOT
BRANCH   6  22
HETATM   22  C8  UNL     1      17.550  18.436   5.073  1.00  0.00     0.230 C 
HETATM   23  O2  UNL     1      18.431  18.475   4.194  1.00  0.00    -0.273 OA
HETATM   24  N2  UNL     1      16.240  18.788   4.727  1.00  0.00    -0.360 N 
ATOM     25  H2  UNL     1      15.520  18.757   5.448  1.00  0.00     0.162 HD
BRANCH  24  26
HETATM   26  C9  UNL     1      15.867  19.189   3.399  1.00  0.00     0.124 C 
BRANCH  26  27
HETATM   27  C10 UNL     1      14.648  20.045   3.309  1.00  0.00     0.050 C 
BRANCH  27  28
HETATM   28  C11 UNL     1      14.995  21.421   3.854  1.00  0.00     0.274 C 
BRANCH  28  29
HETATM   29  N3  UNL     1      14.006  21.926   4.762  1.00  0.00     0.088 N 
HETATM   30  C12 UNL     1      12.714  22.092   4.137  1.00  0.00     0.272 C 
HETATM   31  C13 UNL     1      11.876  23.001   4.990  1.00  0.00     0.031 C 
HETATM   32  C14 UNL     1      11.758  22.435   6.377  1.00  0.00     0.008 C 
HETATM   33  C15 UNL     1      13.121  22.092   6.970  1.00  0.00     0.016 C 
HETATM   34  C18 UNL     1      13.890  21.212   5.997  1.00  0.00     0.277 C 
BRANCH  33  35
HETATM   35  C16 UNL     1      13.849  23.377   7.264  1.00  0.00     0.032 C 
BRANCH  35  36
HETATM   36  C17 UNL     1      15.220  23.115   7.824  1.00  0.00     0.164 C 
BRANCH  36  37
HETATM   37  O3  UNL     1      16.158  23.596   6.901  1.00  0.00    -0.401 OA
ATOM     38  H3  UNL     1      15.970  23.196   6.061  1.00  0.00     0.209 HD
ENDBRANCH  36  37
ENDBRANCH  35  36
ENDBRANCH  33  35
ENDBRANCH  28  29
ENDBRANCH  27  28
ENDBRANCH  26  27
ENDBRANCH  24  26
ENDBRANCH   6  22
BRANCH   1  39
HETATM   39  C3  UNL     1      16.761  18.900  10.213  1.00  0.00     0.013 C 
HETATM   40  C4  UNL     1      15.872  17.783  10.634  1.00  0.00     0.012 C 
BRANCH  39  41
HETATM   41  C2  UNL     1      15.989  19.909   9.465  1.00  0.00     0.002 C 
HETATM   42  C1  UNL     1      15.076  20.782  10.286  1.00  0.00     0.005 C 
ENDBRANCH  39  41
ENDBRANCH   1  39
BRANCH  14  43
HETATM   43  C27 UNL     1      23.167  15.452   6.539  1.00  0.00     0.030 C 
HETATM   44  C28 UNL     1      23.684  15.997   7.836  1.00  0.00     0.007 C 
ENDBRANCH  14  43
BRANCH  17  45
HETATM   45  C31 UNL     1      21.308  14.872  10.469  1.00  0.00     0.029 C 
BRANCH  45  46
HETATM   46  C32 UNL     1      20.968  13.430  10.482  1.00  0.00    -0.021 C 
HETATM   47  C33 UNL     1      22.012  12.550   9.845  1.00  0.00     0.009 C 
HETATM   48  C34 UNL     1      20.433  12.923  11.782  1.00  0.00     0.009 C 
ENDBRANCH  45  46
ENDBRANCH  17  45
BRANCH  12  49
HETATM   49  O4  UNL     1      21.968  14.210   4.320  1.00  0.00    -0.388 OA
ATOM     50  H4  UNL     1      21.124  14.289   3.892  1.00  0.00     0.210 HD
ENDBRANCH  12  49
TORSDOF 14
ENDMDL
MODEL 4
REMARK VINA RESULT: -6.964373244      1.133      1.532
REMARK  14 active torsions:
REMARK  status: ('A' for Active; 'I' for Inactive)
REMARK    1  A    between atoms: C2_2  and  C3_3 
REMARK    2  A    between atoms: C3_3  and  C5_5 
REMARK    3  A    between atoms: C7_10  and  C8_11 
REMARK       I    between atoms: C8_11  and  N2_13 
REMARK    4  A    between atoms: N2_13  and  C9_15 
REMARK    5  A    between atoms: C9_15  and  C10_16 
REMARK    6  A    between atoms: C10_16  and  C11_17 
REMARK    7  A    between atoms: C11_17  and  N3_18 
REMARK    8  A    between atoms: C15_22  and  C16_23 
REMARK    9  A    between atoms: C16_23  and  C17_24 
REMARK   10  A    between atoms: C17_24  and  O3_25 
REMARK   11  A    between atoms: C24_33  and  O4_35 
REMARK   12  A    between atoms: C26_37  and  C27_38 
REMARK   13  A    between atoms: C30_42  and  C31_43 
REMARK   14  A    between atoms: C31_43  and  C32_44 
ROOT
HETATM    1  C5  UNL     1      17.719  18.994   8.432  1.00  0.00     0.180 C 
HETATM    2  N1  UNL     1      18.610  19.535   7.428  1.00  0.00    -0.347 N 
ATOM      3  H1  UNL     1      19.361  20.158   7.729  1.00  0.00     0.163 HD
HETATM    4  C6  UNL     1      18.486  19.238   6.030  1.00  0.00     0.231 C 
HETATM    5  O1  UNL     1      18.683  20.172   5.176  1.00  0.00    -0.273 OA
HETATM    6  C7  UNL     1      18.138  17.893   5.514  1.00  0.00     0.169 C 
HETATM    7  C19 UNL     1      19.128  16.823   5.933  1.00  0.00     0.026 C 
HETATM    8  C20 UNL     1      18.432  15.588   6.452  1.00  0.00     0.039 C 
HETATM    9  C21 UNL     1      19.253  14.895   7.558  1.00  0.00     0.063 C 
HETATM   10  C22 UNL     1      18.986  13.392   7.340  1.00  0.00     0.041 C 
HETATM   11  C23 UNL     1      19.805  12.896   6.176  1.00  0.00     0.043 C 
HETATM   12  C24 UNL     1      21.310  13.093   6.403  1.00  0.00     0.080 C 
HETATM   13  C25 UNL     1      21.846  11.783   7.018  1.00  0.00     0.048 C 
HETATM   14  C26 UNL     1      21.496  14.209   7.367  1.00  0.00     0.156 C 
HETATM   15  O5  UNL     1      20.547  15.187   7.298  1.00  0.00    -0.372 OA
HETATM   16  C29 UNL     1      18.720  15.272   8.917  1.00  0.00     0.063 C 
HETATM   17  C30 UNL     1      19.551  16.329   9.634  1.00  0.00     0.087 C 
HETATM   18  N4  UNL     1      18.748  17.371  10.190  1.00  0.00    -0.355 N 
ATOM     19  H4  UNL     1      18.335  17.156  11.098  1.00  0.00     0.162 HD
HETATM   20  C35 UNL     1      18.435  18.648   9.683  1.00  0.00     0.241 C 
HETATM   21  O6  UNL     1      18.784  19.708  10.342  1.00  0.00    -0.271 OA
ENDROOT
BRANCH   6  22
HETATM   22  C8  UNL     1      18.046  17.988   4.024  1.00  0.00     0.230 C 
HETATM   23  O2  UNL     1      18.999  17.562   3.345  1.00  0.00    -0.273 OA
HETATM   24  N2  UNL     1      16.940  18.532   3.362  1.00  0.00    -0.360 N 
ATOM     25  H2  UNL     1      16.161  18.882   3.919  1.00  0.00     0.162 HD
BRANCH  24  26
HETATM   26  C9  UNL     1      16.855  18.618   1.930  1.00  0.00     0.124 C 
BRANCH  26  27
HETATM   27  C10 UNL     1      15.658  19.337   1.403  1.00  0.00     0.050 C 
BRANCH  27  28
HETATM   28  C11 UNL     1      14.484  19.036   2.321  1.00  0.00     0.274 C 
BRANCH  28  29
HETATM   29  N3  UNL     1      14.262  20.065   3.296  1.00  0.00     0.088 N 
HETATM   30  C12 UNL     1      14.706  19.680   4.616  1.00  0.00     0.272 C 
HETATM   31  C13 UNL     1      14.067  20.590   5.627  1.00  0.00     0.031 C 
HETATM   32  C14 UNL     1      14.410  22.020   5.315  1.00  0.00     0.008 C 
HETATM   33  C15 UNL     1      14.104  22.375   3.863  1.00  0.00     0.016 C 
HETATM   34  C18 UNL     1      14.763  21.358   2.944  1.00  0.00     0.277 C 
BRANCH  33  35
HETATM   35  C16 UNL     1      12.610  22.412   3.687  1.00  0.00     0.032 C 
BRANCH  35  36
HETATM   36  C17 UNL     1      12.039  23.735   4.117  1.00  0.00     0.164 C 
BRANCH  36  37
HETATM   37  O3  UNL     1      12.178  24.629   3.048  1.00  0.00    -0.401 OA
ATOM     38  H3  UNL     1      12.157  25.510   3.401  1.00  0.00     0.209 HD
ENDBRANCH  36  37
ENDBRANCH  35  36
ENDBRANCH  33  35
ENDBRANCH  28  29
ENDBRANCH  27  28
ENDBRANCH  26  27
ENDBRANCH  24  26
ENDBRANCH   6  22
BRANCH   1  39
HETATM   39  C3  UNL     1      16.494  19.824   8.659  1.00  0.00     0.013 C 
HETATM   40  C4  UNL     1      16.801  21.246   8.346  1.00  0.00     0.012 C 
BRANCH  39  41
HETATM   41  C2  UNL     1      15.814  19.726   9.964  1.00  0.00     0.002 C 
HETATM   42  C1  UNL     1      15.072  20.957  10.413  1.00  0.00     0.005 C 
ENDBRANCH  39  41
ENDBRANCH   1  39
BRANCH  14  43
HETATM   43  C27 UNL     1      22.835  14.911   7.217  1.00  0.00     0.030 C 
HETATM   44  C28 UNL     1      23.205  15.714   8.428  1.00  0.00     0.007 C 
ENDBRANCH  14  43
BRANCH  17  45
HETATM   45  C31 UNL     1      20.286  15.546  10.729  1.00  0.00     0.029 C 
BRANCH  45  46
HETATM   46  C32 UNL     1      19.744  14.194  11.001  1.00  0.00    -0.021 C 
HETATM   47  C33 UNL     1      20.748  13.085  10.819  1.00  0.00     0.009 C 
HETATM   48  C34 UNL     1      18.914  14.087  12.238  1.00  0.00     0.009 C 
ENDBRANCH  45  46
ENDBRANCH  17  45
BRANCH  12  49
HETATM   49  O4  UNL     1      21.850  13.276   5.153  1.00  0.00    -0.388 OA
ATOM     50  H4  UNL     1      22.745  12.964   5.214  1.00  0.00     0.210 HD
ENDBRANCH  12  49
TORSDOF 14
ENDMDL
MODEL 5
REMARK VINA RESULT: -6.642865114      2.254      4.127
REMARK  14 active torsions:
REMARK  status: ('A' for Active; 'I' for Inactive)
REMARK    1  A    between atoms: C2_2  and  C3_3 
REMARK    2  A    between atoms: C3_3  and  C5_5 
REMARK    3  A    between atoms: C7_10  and  C8_11 
REMARK       I    between atoms: C8_11  and  N2_13 
REMARK    4  A    between atoms: N2_13  and  C9_15 
REMARK    5  A    between atoms: C9_15  and  C10_16 
REMARK    6  A    between atoms: C10_16  and  C11_17 
REMARK    7  A    between atoms: C11_17  and  N3_18 
REMARK    8  A    between atoms: C15_22  and  C16_23 
REMARK    9  A    between atoms: C16_23  and  C17_24 
REMARK   10  A    between atoms: C17_24  and  O3_25 
REMARK   11  A    between atoms: C24_33  and  O4_35 
REMARK   12  A    between atoms: C26_37  and  C27_38 
REMARK   13  A    between atoms: C30_42  and  C31_43 
REMARK   14  A    between atoms: C31_43  and  C32_44 
ROOT
HETATM    1  C5  UNL     1      17.966  15.095  12.253  1.00  0.00     0.180 C 
HETATM    2  N1  UNL     1      18.689  16.347  12.208  1.00  0.00    -0.347 N 
ATOM      3  H1  UNL     1      19.437  16.502  12.885  1.00  0.00     0.163 HD
HETATM    4  C6  UNL     1      18.403  17.382  11.256  1.00  0.00     0.231 C 
HETATM    5  O1  UNL     1      18.437  18.604  11.637  1.00  0.00    -0.273 OA
HETATM    6  C7  UNL     1      18.067  17.110   9.838  1.00  0.00     0.169 C 
HETATM    7  C19 UNL     1      19.160  16.359   9.104  1.00  0.00     0.026 C 
HETATM    8  C20 UNL     1      18.607  15.204   8.302  1.00  0.00     0.039 C 
HETATM    9  C21 UNL     1      19.601  14.027   8.239  1.00  0.00     0.063 C 
HETATM   10  C22 UNL     1      19.392  13.433   6.832  1.00  0.00     0.041 C 
HETATM   11  C23 UNL     1      20.080  14.300   5.809  1.00  0.00     0.043 C 
HETATM   12  C24 UNL     1      21.589  14.413   6.069  1.00  0.00     0.080 C 
HETATM   13  C25 UNL     1      22.272  13.310   5.231  1.00  0.00     0.048 C 
HETATM   14  C26 UNL     1      21.834  14.164   7.514  1.00  0.00     0.156 C 
HETATM   15  O5  UNL     1      20.831  14.576   8.342  1.00  0.00    -0.372 OA
HETATM   16  C29 UNL     1      19.227  12.975   9.251  1.00  0.00     0.063 C 
HETATM   17  C30 UNL     1      20.083  12.999  10.512  1.00  0.00     0.087 C 
HETATM   18  N4  UNL     1      19.301  12.927  11.704  1.00  0.00    -0.355 N 
ATOM     19  H4  UNL     1      19.021  11.984  11.977  1.00  0.00     0.162 HD
HETATM   20  C35 UNL     1      18.855  13.950  12.565  1.00  0.00     0.241 C 
HETATM   21  O6  UNL     1      19.226  13.958  13.806  1.00  0.00    -0.271 OA
ENDROOT
BRANCH   6  22
HETATM   22  C8  UNL     1      17.779  18.422   9.180  1.00  0.00     0.230 C 
HETATM   23  O2  UNL     1      18.561  18.825   8.299  1.00  0.00    -0.273 OA
HETATM   24  N2  UNL     1      16.673  19.213   9.509  1.00  0.00    -0.360 N 
ATOM     25  H2  UNL     1      16.034  18.883  10.232  1.00  0.00     0.162 HD
BRANCH  24  26
HETATM   26  C9  UNL     1      16.399  20.471   8.872  1.00  0.00     0.124 C 
BRANCH  26  27
HETATM   27  C10 UNL     1      15.119  21.125   9.272  1.00  0.00     0.050 C 
BRANCH  27  28
HETATM   28  C11 UNL     1      14.917  22.348   8.392  1.00  0.00     0.274 C 
BRANCH  28  29
HETATM   29  N3  UNL     1      14.411  22.019   7.091  1.00  0.00     0.088 N 
HETATM   30  C12 UNL     1      13.026  22.394   6.925  1.00  0.00     0.272 C 
HETATM   31  C13 UNL     1      12.460  21.652   5.747  1.00  0.00     0.031 C 
HETATM   32  C14 UNL     1      13.272  21.949   4.518  1.00  0.00     0.008 C 
HETATM   33  C15 UNL     1      14.762  21.721   4.751  1.00  0.00     0.016 C 
HETATM   34  C18 UNL     1      15.202  22.482   5.992  1.00  0.00     0.277 C 
BRANCH  33  35
HETATM   35  C16 UNL     1      15.002  20.241   4.881  1.00  0.00     0.032 C 
BRANCH  35  36
HETATM   36  C17 UNL     1      16.468  19.914   4.803  1.00  0.00     0.164 C 
BRANCH  36  37
HETATM   37  O3  UNL     1      16.747  18.961   5.790  1.00  0.00    -0.401 OA
ATOM     38  H3  UNL     1      16.253  19.192   6.567  1.00  0.00     0.209 HD
ENDBRANCH  36  37
ENDBRANCH  35  36
ENDBRANCH  33  35
ENDBRANCH  28  29
ENDBRANCH  27  28
ENDBRANCH  26  27
ENDBRANCH  24  26
ENDBRANCH   6  22
BRANCH   1  39
HETATM   39  C3  UNL     1      16.736  15.140  13.105  1.00  0.00     0.013 C 
HETATM   40  C4  UNL     1      15.574  15.543  12.268  1.00  0.00     0.012 C 
BRANCH  39  41
HETATM   41  C2  UNL     1      16.772  15.939  14.344  1.00  0.00     0.002 C 
HETATM   42  C1  UNL     1      16.057  15.345  15.530  1.00  0.00     0.005 C 
ENDBRANCH  39  41
ENDBRANCH   1  39
BRANCH  14  43
HETATM   43  C27 UNL     1      23.103  14.827   8.026  1.00  0.00     0.030 C 
HETATM   44  C28 UNL     1      22.880  15.593   9.296  1.00  0.00     0.007 C 
ENDBRANCH  14  43
BRANCH  17  45
HETATM   45  C31 UNL     1      20.995  11.774  10.366  1.00  0.00     0.029 C 
BRANCH  45  46
HETATM   46  C32 UNL     1      22.445  12.058  10.481  1.00  0.00    -0.021 C 
HETATM   47  C33 UNL     1      22.956  12.063  11.898  1.00  0.00     0.009 C 
HETATM   48  C34 UNL     1      23.308  11.323   9.509  1.00  0.00     0.009 C 
ENDBRANCH  45  46
ENDBRANCH  17  45
BRANCH  12  49
HETATM   49  O4  UNL     1      21.953  15.649   5.596  1.00  0.00    -0.388 OA
ATOM     50  H4  UNL     1      22.803  15.829   5.979  1.00  0.00     0.210 HD
ENDBRANCH  12  49
TORSDOF 14
ENDMDL
