MODEL 1
REMARK VINA RESULT: -8.931949430      0.000      0.000
REMARK  15 active torsions:
REMARK  status: ('A' for Active; 'I' for Inactive)
REMARK    1  A    between atoms: S1_2  and  C2_4 
REMARK    2  A    between atoms: C2_4  and  C3_5 
REMARK    3  A    between atoms: C3_5  and  C4_6 
REMARK    4  A    between atoms: C4_6  and  N1_7 
REMARK    5  A    between atoms: C4_6  and  C31_46 
REMARK       I    between atoms: N1_7  and  C5_9 
REMARK    6  A    between atoms: C5_9  and  C6_11 
REMARK    7  A    between atoms: C6_11  and  C7_12 
REMARK    8  A    between atoms: C6_11  and  N3_23 
REMARK    9  A    between atoms: C7_12  and  C8_13 
REMARK   10  A    between atoms: C8_13  and  C9_14 
REMARK   11  A    between atoms: C9_14  and  C10_15 
REMARK       I    between atoms: N3_23  and  C15_25 
REMARK   12  A    between atoms: C15_25  and  C16_27 
REMARK   13  A    between atoms: C16_27  and  N4_28 
REMARK       I    between atoms: N4_28  and  C17_30 
REMARK   14  A    between atoms: C17_30  and  O5_32 
REMARK   15  A    between atoms: O5_32  and  C18_33 
ROOT
HETATM    1  C6  UNL     1      13.770  22.623   5.122  1.00  0.00     0.080 C 
ENDROOT
BRANCH   1   2
HETATM    2  C5  UNL     1      14.216  22.800   6.494  1.00  0.00     0.264 C 
HETATM    3  N1  UNL     1      15.018  21.946   7.234  1.00  0.00    -0.341 N 
ATOM      4  H1  UNL     1      15.366  21.083   6.814  1.00  0.00     0.163 HD
HETATM    5  O2  UNL     1      13.818  23.885   7.079  1.00  0.00    -0.266 OA
BRANCH   3   6
HETATM    6  C4  UNL     1      15.373  22.279   8.629  1.00  0.00     0.186 C 
BRANCH   6   7
HETATM    7  C3  UNL     1      15.183  21.094   9.506  1.00  0.00     0.049 C 
BRANCH   7   8
HETATM    8  C2  UNL     1      15.851  19.835   9.061  1.00  0.00     0.111 C 
BRANCH   8   9
HETATM    9  S1  UNL     1      16.707  18.945  10.312  1.00  0.00     0.010 S 
HETATM   10  C1  UNL     1      18.295  18.406   9.656  1.00  0.00     0.127 C 
HETATM   11  O1  UNL     1      15.873  17.518  10.687  1.00  0.00    -0.258 OA
ENDBRANCH   8   9
ENDBRANCH   7   8
ENDBRANCH   6   7
BRANCH   6  12
HETATM   12  C31 UNL     1      16.696  22.929   8.703  1.00  0.00     0.196 C 
HETATM   13  O6  UNL     1      16.807  24.155   8.890  1.00  0.00    -0.646 OA
HETATM   14  O7  UNL     1      17.809  22.142   8.562  1.00  0.00    -0.646 OA
ENDBRANCH   6  12
ENDBRANCH   3   6
ENDBRANCH   1   2
BRANCH   1  15
HETATM   15  C7  UNL     1      14.785  22.271   4.089  1.00  0.00     0.063 C 
BRANCH  15  16
HETATM   16  C8  UNL     1      14.503  21.009   3.321  1.00  0.00     0.008 C 
BRANCH  16  17
HETATM   17  C9  UNL     1      15.434  19.879   3.654  1.00  0.00     0.033 C 
BRANCH  17  18
HETATM   18  C10 UNL     1      14.952  18.571   3.117  1.00  0.00     0.185 C 
HETATM   19  C11 UNL     1      15.387  17.430   3.991  1.00  0.00     0.033 C 
HETATM   20  C12 UNL     1      16.887  17.405   4.180  1.00  0.00     0.004 C 
HETATM   21  C13 UNL     1      17.616  17.552   2.867  1.00  0.00     0.027 C 
HETATM   22  C14 UNL     1      16.940  18.416   1.863  1.00  0.00     0.232 C 
HETATM   23  N2  UNL     1      15.519  18.303   1.790  1.00  0.00    -0.071 N 
ATOM     24  H22 UNL     1      15.219  17.404   1.414  1.00  0.00     0.277 HD
ATOM     25  H21 UNL     1      15.117  18.901   1.068  1.00  0.00     0.277 HD
ENDBRANCH  17  18
ENDBRANCH  16  17
ENDBRANCH  15  16
ENDBRANCH   1  15
BRANCH   1  26
HETATM   26  N3  UNL     1      12.771  23.592   4.697  1.00  0.00    -0.324 N 
HETATM   27  C15 UNL     1      11.414  23.266   4.554  1.00  0.00     0.251 C 
HETATM   28  O3  UNL     1      11.141  22.032   4.851  1.00  0.00    -0.270 OA
ATOM     29  H3  UNL     1      13.069  24.546   4.496  1.00  0.00     0.169 HD
BRANCH  27  30
HETATM   30  C16 UNL     1      10.304  24.137   4.127  1.00  0.00     0.120 C 
HETATM   31  C22 UNL     1       9.022  23.312   4.262  1.00  0.00     0.047 C 
HETATM   32  C23 UNL     1       8.163  23.422   3.030  1.00  0.00    -0.004 C 
HETATM   33  C24 UNL     1       8.934  22.785   1.875  1.00  0.00     0.006 C 
HETATM   34  C28 UNL     1       7.881  24.864   2.734  1.00  0.00    -0.043 C 
HETATM   35  C25 UNL     1      10.158  23.633   1.620  1.00  0.00     0.008 C 
HETATM   36  C26 UNL     1      10.361  24.611   2.726  1.00  0.00     0.024 C 
HETATM   37  C27 UNL     1       9.169  25.614   2.563  1.00  0.00     0.016 C 
HETATM   38  C29 UNL     1       7.040  24.983   1.454  1.00  0.00     0.015 C 
HETATM   39  C30 UNL     1       6.997  25.420   3.831  1.00  0.00     0.015 C 
BRANCH  30  40
HETATM   40  N4  UNL     1      10.243  25.262   5.037  1.00  0.00    -0.318 N 
HETATM   41  C17 UNL     1      10.418  25.352   6.400  1.00  0.00     0.362 C 
HETATM   42  O4  UNL     1      10.676  24.370   7.128  1.00  0.00    -0.238 OA
ATOM     43  H4  UNL     1      10.031  26.152   4.586  1.00  0.00     0.166 HD
BRANCH  41  44
HETATM   44  O5  UNL     1      10.320  26.568   7.086  1.00  0.00    -0.294 OA
BRANCH  44  45
HETATM   45  C18 UNL     1       9.427  26.760   8.157  1.00  0.00     0.061 C 
HETATM   46  C19 UNL     1       9.216  28.253   8.291  1.00  0.00     0.046 C 
HETATM   47  C20 UNL     1      10.012  26.258   9.466  1.00  0.00     0.046 C 
HETATM   48  C21 UNL     1       8.085  26.114   7.967  1.00  0.00     0.046 C 
ENDBRANCH  44  45
ENDBRANCH  41  44
ENDBRANCH  30  40
ENDBRANCH  27  30
ENDBRANCH   1  26
TORSDOF 15
ENDMDL
MODEL 2
REMARK VINA RESULT: -8.870365606      3.035      9.410
REMARK  15 active torsions:
REMARK  status: ('A' for Active; 'I' for Inactive)
REMARK    1  A    between atoms: S1_2  and  C2_4 
REMARK    2  A    between atoms: C2_4  and  C3_5 
REMARK    3  A    between atoms: C3_5  and  C4_6 
REMARK    4  A    between atoms: C4_6  and  N1_7 
REMARK    5  A    between atoms: C4_6  and  C31_46 
REMARK       I    between atoms: N1_7  and  C5_9 
REMARK    6  A    between atoms: C5_9  and  C6_11 
REMARK    7  A    between atoms: C6_11  and  C7_12 
REMARK    8  A    between atoms: C6_11  and  N3_23 
REMARK    9  A    between atoms: C7_12  and  C8_13 
REMARK   10  A    between atoms: C8_13  and  C9_14 
REMARK   11  A    between atoms: C9_14  and  C10_15 
REMARK       I    between atoms: N3_23  and  C15_25 
REMARK   12  A    between atoms: C15_25  and  C16_27 
REMARK   13  A    between atoms: C16_27  and  N4_28 
REMARK       I    between atoms: N4_28  and  C17_30 
REMARK   14  A    between atoms: C17_30  and  O5_32 
REMARK   15  A    between atoms: O5_32  and  C18_33 
ROOT
HETATM    1  C6  UNL     1      12.381  23.286   5.031  1.00  0.00     0.080 C 
ENDROOT
BRANCH   1   2
HETATM    2  C5  UNL     1      11.879  24.447   5.745  1.00  0.00     0.264 C 
HETATM    3  N1  UNL     1      10.790  24.501   6.603  1.00  0.00    -0.341 N 
ATOM      4  H1  UNL     1      10.249  23.657   6.790  1.00  0.00     0.163 HD
HETATM    5  O2  UNL     1      12.533  25.549   5.558  1.00  0.00    -0.266 OA
BRANCH   3   6
HETATM    6  C4  UNL     1      10.411  25.776   7.246  1.00  0.00     0.186 C 
BRANCH   6   7
HETATM    7  C3  UNL     1       8.946  25.994   7.131  1.00  0.00     0.049 C 
BRANCH   7   8
HETATM    8  C2  UNL     1       8.509  27.405   6.909  1.00  0.00     0.111 C 
BRANCH   8   9
HETATM    9  S1  UNL     1       6.888  27.605   6.258  1.00  0.00     0.010 S 
HETATM   10  C1  UNL     1       5.708  26.888   7.411  1.00  0.00     0.127 C 
HETATM   11  O1  UNL     1       6.718  26.705   4.830  1.00  0.00    -0.258 OA
ENDBRANCH   8   9
ENDBRANCH   7   8
ENDBRANCH   6   7
BRANCH   6  12
HETATM   12  C31 UNL     1      10.972  25.874   8.608  1.00  0.00     0.196 C 
HETATM   13  O6  UNL     1      12.200  25.824   8.809  1.00  0.00    -0.646 OA
HETATM   14  O7  UNL     1      10.100  26.026   9.654  1.00  0.00    -0.646 OA
ENDBRANCH   6  12
ENDBRANCH   3   6
ENDBRANCH   1   2
BRANCH   1  15
HETATM   15  C7  UNL     1      11.458  22.573   4.104  1.00  0.00     0.063 C 
BRANCH  15  16
HETATM   16  C8  UNL     1      11.297  23.207   2.749  1.00  0.00     0.008 C 
BRANCH  16  17
HETATM   17  C9  UNL     1       9.867  23.351   2.316  1.00  0.00     0.033 C 
BRANCH  17  18
HETATM   18  C10 UNL     1       9.007  23.941   3.387  1.00  0.00     0.185 C 
HETATM   19  C11 UNL     1       7.574  23.518   3.229  1.00  0.00     0.033 C 
HETATM   20  C12 UNL     1       7.032  23.866   1.861  1.00  0.00     0.004 C 
HETATM   21  C13 UNL     1       7.351  25.292   1.482  1.00  0.00     0.027 C 
HETATM   22  C14 UNL     1       8.649  25.806   1.993  1.00  0.00     0.232 C 
HETATM   23  N2  UNL     1       9.007  25.406   3.316  1.00  0.00    -0.071 N 
ATOM     24  H22 UNL     1       8.409  25.829   4.026  1.00  0.00     0.277 HD
ATOM     25  H21 UNL     1       9.894  25.809   3.618  1.00  0.00     0.277 HD
ENDBRANCH  17  18
ENDBRANCH  16  17
ENDBRANCH  15  16
ENDBRANCH   1  15
BRANCH   1  26
HETATM   26  N3  UNL     1      13.233  22.422   5.835  1.00  0.00    -0.324 N 
HETATM   27  C15 UNL     1      14.632  22.525   5.832  1.00  0.00     0.251 C 
HETATM   28  O3  UNL     1      15.083  23.467   5.061  1.00  0.00    -0.270 OA
ATOM     29  H3  UNL     1      12.795  21.714   6.424  1.00  0.00     0.169 HD
BRANCH  27  30
HETATM   30  C16 UNL     1      15.611  21.717   6.583  1.00  0.00     0.120 C 
HETATM   31  C22 UNL     1      14.807  20.834   7.540  1.00  0.00     0.047 C 
HETATM   32  C23 UNL     1      15.376  20.869   8.934  1.00  0.00    -0.004 C 
HETATM   33  C24 UNL     1      15.208  22.292   9.461  1.00  0.00     0.006 C 
HETATM   34  C28 UNL     1      16.827  20.495   8.899  1.00  0.00    -0.043 C 
HETATM   35  C25 UNL     1      16.078  23.197   8.620  1.00  0.00     0.008 C 
HETATM   36  C26 UNL     1      16.572  22.479   7.412  1.00  0.00     0.024 C 
HETATM   37  C27 UNL     1      17.574  21.422   7.987  1.00  0.00     0.016 C 
HETATM   38  C29 UNL     1      17.423  20.570  10.314  1.00  0.00     0.015 C 
HETATM   39  C30 UNL     1      16.943  19.036   8.508  1.00  0.00     0.015 C 
BRANCH  30  40
HETATM   40  N4  UNL     1      16.316  20.877   5.638  1.00  0.00    -0.318 N 
HETATM   41  C17 UNL     1      15.911  20.266   4.472  1.00  0.00     0.362 C 
HETATM   42  O4  UNL     1      14.753  20.351   4.015  1.00  0.00    -0.238 OA
ATOM     43  H4  UNL     1      17.292  20.705   5.881  1.00  0.00     0.166 HD
BRANCH  41  44
HETATM   44  O5  UNL     1      16.781  19.489   3.697  1.00  0.00    -0.294 OA
BRANCH  44  45
HETATM   45  C18 UNL     1      16.439  18.204   3.238  1.00  0.00     0.061 C 
HETATM   46  C19 UNL     1      17.718  17.394   3.204  1.00  0.00     0.046 C 
HETATM   47  C20 UNL     1      15.883  18.247   1.825  1.00  0.00     0.046 C 
HETATM   48  C21 UNL     1      15.451  17.479   4.107  1.00  0.00     0.046 C 
ENDBRANCH  44  45
ENDBRANCH  41  44
ENDBRANCH  30  40
ENDBRANCH  27  30
ENDBRANCH   1  26
TORSDOF 15
ENDMDL
MODEL 3
REMARK VINA RESULT: -8.792483371      2.171      4.201
REMARK  15 active torsions:
REMARK  status: ('A' for Active; 'I' for Inactive)
REMARK    1  A    between atoms: S1_2  and  C2_4 
REMARK    2  A    between atoms: C2_4  and  C3_5 
REMARK    3  A    between atoms: C3_5  and  C4_6 
REMARK    4  A    between atoms: C4_6  and  N1_7 
REMARK    5  A    between atoms: C4_6  and  C31_46 
REMARK       I    between atoms: N1_7  and  C5_9 
REMARK    6  A    between atoms: C5_9  and  C6_11 
REMARK    7  A    between atoms: C6_11  and  C7_12 
REMARK    8  A    between atoms: C6_11  and  N3_23 
REMARK    9  A    between atoms: C7_12  and  C8_13 
REMARK   10  A    between atoms: C8_13  and  C9_14 
REMARK   11  A    between atoms: C9_14  and  C10_15 
REMARK       I    between atoms: N3_23  and  C15_25 
REMARK   12  A    between atoms: C15_25  and  C16_27 
REMARK   13  A    between atoms: C16_27  and  N4_28 
REMARK       I    between atoms: N4_28  and  C17_30 
REMARK   14  A    between atoms: C17_30  and  O5_32 
REMARK   15  A    between atoms: O5_32  and  C18_33 
ROOT
HETATM    1  C6  UNL     1      13.709  22.538   5.793  1.00  0.00     0.080 C 
ENDROOT
BRANCH   1   2
HETATM    2  C5  UNL     1      14.478  21.715   4.875  1.00  0.00     0.264 C 
HETATM    3  N1  UNL     1      14.634  20.338   4.910  1.00  0.00    -0.341 N 
ATOM      4  H1  UNL     1      14.175  19.793   5.640  1.00  0.00     0.163 HD
HETATM    5  O2  UNL     1      15.075  22.349   3.916  1.00  0.00    -0.266 OA
BRANCH   3   6
HETATM    6  C4  UNL     1      15.462  19.655   3.895  1.00  0.00     0.186 C 
BRANCH   6   7
HETATM    7  C3  UNL     1      16.878  19.596   4.341  1.00  0.00     0.049 C 
BRANCH   7   8
HETATM    8  C2  UNL     1      17.681  18.449   3.823  1.00  0.00     0.111 C 
BRANCH   8   9
HETATM    9  S1  UNL     1      18.719  17.656   4.999  1.00  0.00     0.010 S 
HETATM   10  C1  UNL     1      18.116  15.982   5.268  1.00  0.00     0.127 C 
HETATM   11  O1  UNL     1      18.588  18.424   6.505  1.00  0.00    -0.258 OA
ENDBRANCH   8   9
ENDBRANCH   7   8
ENDBRANCH   6   7
BRANCH   6  12
HETATM   12  C31 UNL     1      14.859  18.370   3.490  1.00  0.00     0.196 C 
HETATM   13  O6  UNL     1      14.607  17.481   4.325  1.00  0.00    -0.646 OA
HETATM   14  O7  UNL     1      14.580  18.179   2.163  1.00  0.00    -0.646 OA
ENDBRANCH   6  12
ENDBRANCH   3   6
ENDBRANCH   1   2
BRANCH   1  15
HETATM   15  C7  UNL     1      13.839  22.279   7.254  1.00  0.00     0.063 C 
BRANCH  15  16
HETATM   16  C8  UNL     1      14.890  23.093   7.957  1.00  0.00     0.008 C 
BRANCH  16  17
HETATM   17  C9  UNL     1      15.894  22.265   8.707  1.00  0.00     0.033 C 
BRANCH  17  18
HETATM   18  C10 UNL     1      16.253  21.011   7.978  1.00  0.00     0.185 C 
HETATM   19  C11 UNL     1      16.164  19.813   8.879  1.00  0.00     0.033 C 
HETATM   20  C12 UNL     1      17.021  19.973  10.114  1.00  0.00     0.004 C 
HETATM   21  C13 UNL     1      18.413  20.444   9.769  1.00  0.00     0.027 C 
HETATM   22  C14 UNL     1      18.498  21.359   8.600  1.00  0.00     0.232 C 
HETATM   23  N2  UNL     1      17.639  21.057   7.501  1.00  0.00    -0.071 N 
ATOM     24  H22 UNL     1      17.912  20.200   7.018  1.00  0.00     0.277 HD
ATOM     25  H21 UNL     1      17.761  21.704   6.723  1.00  0.00     0.277 HD
ENDBRANCH  17  18
ENDBRANCH  16  17
ENDBRANCH  15  16
ENDBRANCH   1  15
BRANCH   1  26
HETATM   26  N3  UNL     1      12.356  22.824   5.337  1.00  0.00    -0.324 N 
HETATM   27  C15 UNL     1      11.998  24.045   4.747  1.00  0.00     0.251 C 
HETATM   28  O3  UNL     1      12.987  24.878   4.636  1.00  0.00    -0.270 OA
ATOM     29  H3  UNL     1      11.640  22.106   5.451  1.00  0.00     0.169 HD
BRANCH  27  30
HETATM   30  C16 UNL     1      10.676  24.469   4.252  1.00  0.00     0.120 C 
HETATM   31  C22 UNL     1       9.729  23.285   4.461  1.00  0.00     0.047 C 
HETATM   32  C23 UNL     1       8.911  23.008   3.228  1.00  0.00    -0.004 C 
HETATM   33  C24 UNL     1       9.874  22.565   2.129  1.00  0.00     0.006 C 
HETATM   34  C28 UNL     1       8.183  24.250   2.812  1.00  0.00    -0.043 C 
HETATM   35  C25 UNL     1      10.762  23.741   1.798  1.00  0.00     0.008 C 
HETATM   36  C26 UNL     1      10.610  24.819   2.815  1.00  0.00     0.024 C 
HETATM   37  C27 UNL     1       9.161  25.362   2.572  1.00  0.00     0.016 C 
HETATM   38  C29 UNL     1       7.379  23.983   1.529  1.00  0.00     0.015 C 
HETATM   39  C30 UNL     1       7.140  24.575   3.861  1.00  0.00     0.015 C 
BRANCH  30  40
HETATM   40  N4  UNL     1      10.231  25.583   5.063  1.00  0.00    -0.318 N 
HETATM   41  C17 UNL     1      10.208  25.775   6.426  1.00  0.00     0.362 C 
HETATM   42  O4  UNL     1      10.603  24.923   7.249  1.00  0.00    -0.238 OA
ATOM     43  H4  UNL     1       9.868  26.370   4.525  1.00  0.00     0.166 HD
BRANCH  41  44
HETATM   44  O5  UNL     1       9.733  26.959   7.005  1.00  0.00    -0.294 OA
BRANCH  44  45
HETATM   45  C18 UNL     1       8.370  27.166   7.285  1.00  0.00     0.061 C 
HETATM   46  C19 UNL     1       8.284  28.398   8.162  1.00  0.00     0.046 C 
HETATM   47  C20 UNL     1       7.779  26.004   8.065  1.00  0.00     0.046 C 
HETATM   48  C21 UNL     1       7.516  27.397   6.072  1.00  0.00     0.046 C 
ENDBRANCH  44  45
ENDBRANCH  41  44
ENDBRANCH  30  40
ENDBRANCH  27  30
ENDBRANCH   1  26
TORSDOF 15
ENDMDL
MODEL 4
REMARK VINA RESULT: -8.769807784      0.662      1.036
REMARK  15 active torsions:
REMARK  status: ('A' for Active; 'I' for Inactive)
REMARK    1  A    between atoms: S1_2  and  C2_4 
REMARK    2  A    between atoms: C2_4  and  C3_5 
REMARK    3  A    between atoms: C3_5  and  C4_6 
REMARK    4  A    between atoms: C4_6  and  N1_7 
REMARK    5  A    between atoms: C4_6  and  C31_46 
REMARK       I    between atoms: N1_7  and  C5_9 
REMARK    6  A    between atoms: C5_9  and  C6_11 
REMARK    7  A    between atoms: C6_11  and  C7_12 
REMARK    8  A    between atoms: C6_11  and  N3_23 
REMARK    9  A    between atoms: C7_12  and  C8_13 
REMARK   10  A    between atoms: C8_13  and  C9_14 
REMARK   11  A    between atoms: C9_14  and  C10_15 
REMARK       I    between atoms: N3_23  and  C15_25 
REMARK   12  A    between atoms: C15_25  and  C16_27 
REMARK   13  A    between atoms: C16_27  and  N4_28 
REMARK       I    between atoms: N4_28  and  C17_30 
REMARK   14  A    between atoms: C17_30  and  O5_32 
REMARK   15  A    between atoms: O5_32  and  C18_33 
ROOT
HETATM    1  C6  UNL     1      13.693  22.683   5.124  1.00  0.00     0.080 C 
ENDROOT
BRANCH   1   2
HETATM    2  C5  UNL     1      14.155  22.869   6.489  1.00  0.00     0.264 C 
HETATM    3  N1  UNL     1      15.017  22.050   7.203  1.00  0.00    -0.341 N 
ATOM      4  H1  UNL     1      15.401  21.212   6.766  1.00  0.00     0.163 HD
HETATM    5  O2  UNL     1      13.711  23.924   7.095  1.00  0.00    -0.266 OA
BRANCH   3   6
HETATM    6  C4  UNL     1      15.381  22.386   8.595  1.00  0.00     0.186 C 
BRANCH   6   7
HETATM    7  C3  UNL     1      15.096  21.237   9.493  1.00  0.00     0.049 C 
BRANCH   7   8
HETATM    8  C2  UNL     1      15.771  19.950   9.146  1.00  0.00     0.111 C 
BRANCH   8   9
HETATM    9  S1  UNL     1      16.656  19.180  10.454  1.00  0.00     0.010 S 
HETATM   10  C1  UNL     1      18.392  19.069   9.992  1.00  0.00     0.127 C 
HETATM   11  O1  UNL     1      16.142  17.574  10.640  1.00  0.00    -0.258 OA
ENDBRANCH   8   9
ENDBRANCH   7   8
ENDBRANCH   6   7
BRANCH   6  12
HETATM   12  C31 UNL     1      16.747  22.939   8.670  1.00  0.00     0.196 C 
HETATM   13  O6  UNL     1      17.747  22.231   8.451  1.00  0.00    -0.646 OA
HETATM   14  O7  UNL     1      16.889  24.265   8.988  1.00  0.00    -0.646 OA
ENDBRANCH   6  12
ENDBRANCH   3   6
ENDBRANCH   1   2
BRANCH   1  15
HETATM   15  C7  UNL     1      14.695  22.328   4.080  1.00  0.00     0.063 C 
BRANCH  15  16
HETATM   16  C8  UNL     1      14.244  21.292   3.088  1.00  0.00     0.008 C 
BRANCH  16  17
HETATM   17  C9  UNL     1      15.078  20.043   3.098  1.00  0.00     0.033 C 
BRANCH  17  18
HETATM   18  C10 UNL     1      15.624  19.737   4.455  1.00  0.00     0.185 C 
HETATM   19  C11 UNL     1      17.100  19.465   4.399  1.00  0.00     0.033 C 
HETATM   20  C12 UNL     1      17.432  18.354   3.430  1.00  0.00     0.004 C 
HETATM   21  C13 UNL     1      16.542  17.151   3.636  1.00  0.00     0.027 C 
HETATM   22  C14 UNL     1      15.154  17.461   4.070  1.00  0.00     0.232 C 
HETATM   23  N2  UNL     1      15.011  18.526   5.010  1.00  0.00    -0.071 N 
ATOM     24  H22 UNL     1      15.385  18.286   5.929  1.00  0.00     0.277 HD
ATOM     25  H21 UNL     1      14.040  18.673   5.286  1.00  0.00     0.277 HD
ENDBRANCH  17  18
ENDBRANCH  16  17
ENDBRANCH  15  16
ENDBRANCH   1  15
BRANCH   1  26
HETATM   26  N3  UNL     1      12.685  23.648   4.707  1.00  0.00    -0.324 N 
HETATM   27  C15 UNL     1      11.337  23.304   4.528  1.00  0.00     0.251 C 
HETATM   28  O3  UNL     1      11.079  22.058   4.784  1.00  0.00    -0.270 OA
ATOM     29  H3  UNL     1      12.972  24.612   4.538  1.00  0.00     0.169 HD
BRANCH  27  30
HETATM   30  C16 UNL     1      10.221  24.170   4.103  1.00  0.00     0.120 C 
HETATM   31  C22 UNL     1       8.944  23.336   4.238  1.00  0.00     0.047 C 
HETATM   32  C23 UNL     1       8.083  23.443   3.007  1.00  0.00    -0.004 C 
HETATM   33  C24 UNL     1       8.857  22.814   1.851  1.00  0.00     0.006 C 
HETATM   34  C28 UNL     1       7.793  24.884   2.715  1.00  0.00    -0.043 C 
HETATM   35  C25 UNL     1      10.076  23.669   1.596  1.00  0.00     0.008 C 
HETATM   36  C26 UNL     1      10.274  24.646   2.703  1.00  0.00     0.024 C 
HETATM   37  C27 UNL     1       9.076  25.642   2.544  1.00  0.00     0.016 C 
HETATM   38  C29 UNL     1       6.949  25.000   1.436  1.00  0.00     0.015 C 
HETATM   39  C30 UNL     1       6.906  25.433   3.814  1.00  0.00     0.015 C 
BRANCH  30  40
HETATM   40  N4  UNL     1      10.155  25.292   5.016  1.00  0.00    -0.318 N 
HETATM   41  C17 UNL     1      10.334  25.381   6.378  1.00  0.00     0.362 C 
HETATM   42  O4  UNL     1      10.601  24.400   7.103  1.00  0.00    -0.238 OA
ATOM     43  H4  UNL     1       9.934  26.181   4.566  1.00  0.00     0.166 HD
BRANCH  41  44
HETATM   44  O5  UNL     1      10.228  26.596   7.067  1.00  0.00    -0.294 OA
BRANCH  44  45
HETATM   45  C18 UNL     1       9.326  26.784   8.130  1.00  0.00     0.061 C 
HETATM   46  C19 UNL     1       9.081  28.274   8.240  1.00  0.00     0.046 C 
HETATM   47  C20 UNL     1       9.914  26.315   9.450  1.00  0.00     0.046 C 
HETATM   48  C21 UNL     1       7.999  26.106   7.943  1.00  0.00     0.046 C 
ENDBRANCH  44  45
ENDBRANCH  41  44
ENDBRANCH  30  40
ENDBRANCH  27  30
ENDBRANCH   1  26
TORSDOF 15
ENDMDL
MODEL 5
REMARK VINA RESULT: -8.738585041      2.755      9.430
REMARK  15 active torsions:
REMARK  status: ('A' for Active; 'I' for Inactive)
REMARK    1  A    between atoms: S1_2  and  C2_4 
REMARK    2  A    between atoms: C2_4  and  C3_5 
REMARK    3  A    between atoms: C3_5  and  C4_6 
REMARK    4  A    between atoms: C4_6  and  N1_7 
REMARK    5  A    between atoms: C4_6  and  C31_46 
REMARK       I    between atoms: N1_7  and  C5_9 
REMARK    6  A    between atoms: C5_9  and  C6_11 
REMARK    7  A    between atoms: C6_11  and  C7_12 
REMARK    8  A    between atoms: C6_11  and  N3_23 
REMARK    9  A    between atoms: C7_12  and  C8_13 
REMARK   10  A    between atoms: C8_13  and  C9_14 
REMARK   11  A    between atoms: C9_14  and  C10_15 
REMARK       I    between atoms: N3_23  and  C15_25 
REMARK   12  A    between atoms: C15_25  and  C16_27 
REMARK   13  A    between atoms: C16_27  and  N4_28 
REMARK       I    between atoms: N4_28  and  C17_30 
REMARK   14  A    between atoms: C17_30  and  O5_32 
REMARK   15  A    between atoms: O5_32  and  C18_33 
ROOT
HETATM    1  C6  UNL     1      12.354  23.380   5.160  1.00  0.00     0.080 C 
ENDROOT
BRANCH   1   2
HETATM    2  C5  UNL     1      11.311  23.948   5.996  1.00  0.00     0.264 C 
HETATM    3  N1  UNL     1      11.135  25.282   6.331  1.00  0.00    -0.341 N 
ATOM      4  H1  UNL     1      11.781  25.986   5.973  1.00  0.00     0.163 HD
HETATM    5  O2  UNL     1      10.450  23.105   6.471  1.00  0.00    -0.266 OA
BRANCH   3   6
HETATM    6  C4  UNL     1      10.015  25.690   7.205  1.00  0.00     0.186 C 
BRANCH   6   7
HETATM    7  C3  UNL     1      10.534  26.290   8.461  1.00  0.00     0.049 C 
BRANCH   7   8
HETATM    8  C2  UNL     1      10.088  27.684   8.755  1.00  0.00     0.111 C 
BRANCH   8   9
HETATM    9  S1  UNL     1       8.800  27.837   9.941  1.00  0.00     0.010 S 
HETATM   10  C1  UNL     1       7.433  28.741   9.198  1.00  0.00     0.127 C 
HETATM   11  O1  UNL     1       9.315  28.796  11.241  1.00  0.00    -0.258 OA
ENDBRANCH   8   9
ENDBRANCH   7   8
ENDBRANCH   6   7
BRANCH   6  12
HETATM   12  C31 UNL     1       9.028  26.499   6.464  1.00  0.00     0.196 C 
HETATM   13  O6  UNL     1       9.380  27.311   5.589  1.00  0.00    -0.646 OA
HETATM   14  O7  UNL     1       7.701  26.329   6.764  1.00  0.00    -0.646 OA
ENDBRANCH   6  12
ENDBRANCH   3   6
ENDBRANCH   1   2
BRANCH   1  15
HETATM   15  C7  UNL     1      12.007  22.986   3.766  1.00  0.00     0.063 C 
BRANCH  15  16
HETATM   16  C8  UNL     1      11.690  24.127   2.839  1.00  0.00     0.008 C 
BRANCH  16  17
HETATM   17  C9  UNL     1      10.271  24.129   2.347  1.00  0.00     0.033 C 
BRANCH  17  18
HETATM   18  C10 UNL     1       9.336  24.777   3.316  1.00  0.00     0.185 C 
HETATM   19  C11 UNL     1       8.092  23.956   3.503  1.00  0.00     0.033 C 
HETATM   20  C12 UNL     1       7.393  23.685   2.190  1.00  0.00     0.004 C 
HETATM   21  C13 UNL     1       7.242  24.943   1.369  1.00  0.00     0.027 C 
HETATM   22  C14 UNL     1       8.350  25.925   1.509  1.00  0.00     0.232 C 
HETATM   23  N2  UNL     1       8.887  26.084   2.823  1.00  0.00    -0.071 N 
ATOM     24  H22 UNL     1       8.230  26.535   3.460  1.00  0.00     0.277 HD
ATOM     25  H21 UNL     1       9.626  26.786   2.858  1.00  0.00     0.277 HD
ENDBRANCH  17  18
ENDBRANCH  16  17
ENDBRANCH  15  16
ENDBRANCH   1  15
BRANCH   1  26
HETATM   26  N3  UNL     1      13.232  22.454   5.860  1.00  0.00    -0.324 N 
HETATM   27  C15 UNL     1      14.625  22.620   5.908  1.00  0.00     0.251 C 
HETATM   28  O3  UNL     1      15.043  23.679   5.284  1.00  0.00    -0.270 OA
ATOM     29  H3  UNL     1      12.818  21.653   6.336  1.00  0.00     0.169 HD
BRANCH  27  30
HETATM   30  C16 UNL     1      15.626  21.763   6.567  1.00  0.00     0.120 C 
HETATM   31  C22 UNL     1      14.858  20.847   7.524  1.00  0.00     0.047 C 
HETATM   32  C23 UNL     1      15.502  20.808   8.884  1.00  0.00    -0.004 C 
HETATM   33  C24 UNL     1      15.389  22.207   9.486  1.00  0.00     0.006 C 
HETATM   34  C28 UNL     1      16.941  20.413   8.754  1.00  0.00    -0.043 C 
HETATM   35  C25 UNL     1      16.229  23.137   8.642  1.00  0.00     0.008 C 
HETATM   36  C26 UNL     1      16.644  22.469   7.376  1.00  0.00     0.024 C 
HETATM   37  C27 UNL     1      17.656  21.370   7.847  1.00  0.00     0.016 C 
HETATM   38  C29 UNL     1      17.613  20.412  10.136  1.00  0.00     0.015 C 
HETATM   39  C30 UNL     1      17.010  18.973   8.290  1.00  0.00     0.015 C 
BRANCH  30  40
HETATM   40  N4  UNL     1      16.264  20.956   5.547  1.00  0.00    -0.318 N 
HETATM   41  C17 UNL     1      15.777  20.370   4.400  1.00  0.00     0.362 C 
HETATM   42  O4  UNL     1      14.584  20.451   4.039  1.00  0.00    -0.238 OA
ATOM     43  H4  UNL     1      17.258  20.792   5.708  1.00  0.00     0.166 HD
BRANCH  41  44
HETATM   44  O5  UNL     1      16.591  19.626   3.538  1.00  0.00    -0.294 OA
BRANCH  44  45
HETATM   45  C18 UNL     1      16.248  18.332   3.107  1.00  0.00     0.061 C 
HETATM   46  C19 UNL     1      17.544  17.615   2.791  1.00  0.00     0.046 C 
HETATM   47  C20 UNL     1      15.422  18.370   1.833  1.00  0.00     0.046 C 
HETATM   48  C21 UNL     1      15.501  17.517   4.123  1.00  0.00     0.046 C 
ENDBRANCH  44  45
ENDBRANCH  41  44
ENDBRANCH  30  40
ENDBRANCH  27  30
ENDBRANCH   1  26
TORSDOF 15
ENDMDL
