MODEL 1
REMARK VINA RESULT: -8.855966738      0.000      0.000
REMARK  13 active torsions:
REMARK  status: ('A' for Active; 'I' for Inactive)
REMARK    1  A    between atoms: C2_2  and  C3_3 
REMARK    2  A    between atoms: C3_3  and  C4_4 
REMARK    3  A    between atoms: C5_6  and  C6_7 
REMARK    4  A    between atoms: C6_7  and  C7_8 
REMARK    5  A    between atoms: C7_8  and  O2_9 
REMARK    6  A    between atoms: C7_8  and  C8_11 
REMARK    7  A    between atoms: N1_23  and  C20_24 
REMARK    8  A    between atoms: C20_24  and  C21_25 
REMARK    9  A    between atoms: C21_25  and  C23_27 
REMARK   10  A    between atoms: C23_27  and  N2_28 
REMARK       I    between atoms: N2_28  and  C24_30 
REMARK   11  A    between atoms: C24_30  and  C25_32 
REMARK   12  A    between atoms: C25_32  and  N3_33 
REMARK   13  A    between atoms: C36_48  and  O5_49 
ROOT
HETATM    1  C8  UNL     1       7.261   0.445  13.225  1.00  0.00     0.019 C 
HETATM    2  C9  UNL     1       8.158  -0.520  12.508  1.00  0.00     0.008 C 
HETATM    3  C10 UNL     1       7.669  -1.932  12.875  1.00  0.00     0.008 C 
HETATM    4  C11 UNL     1       6.302  -1.649  13.390  1.00  0.00     0.029 C 
HETATM    5  C12 UNL     1       6.606  -0.427  14.265  1.00  0.00    -0.001 C 
HETATM    6  C13 UNL     1       5.309   0.131  14.778  1.00  0.00     0.006 C 
HETATM    7  C14 UNL     1       4.138  -0.799  14.555  1.00  0.00     0.012 C 
HETATM    8  C15 UNL     1       4.452  -2.228  14.934  1.00  0.00    -0.003 C 
HETATM    9  C16 UNL     1       3.185  -3.021  14.700  1.00  0.00     0.018 C 
HETATM   10  C17 UNL     1       4.837  -2.379  16.365  1.00  0.00     0.020 C 
HETATM   11  C18 UNL     1       3.687  -2.793  17.259  1.00  0.00     0.012 C 
HETATM   12  C19 UNL     1       5.855  -3.513  16.313  1.00  0.00     0.278 C 
HETATM   13  N1  UNL     1       6.471  -3.463  15.047  1.00  0.00     0.099 N 
HETATM   14  C26 UNL     1       5.633  -2.762  14.134  1.00  0.00     0.167 C 
HETATM   15  C27 UNL     1       5.031  -3.670  13.057  1.00  0.00     0.050 C 
ENDROOT
BRANCH   1  16
HETATM   16  C7  UNL     1       8.021   1.618  13.808  1.00  0.00     0.125 C 
BRANCH  16  17
HETATM   17  C6  UNL     1       8.535   2.546  12.794  1.00  0.00     0.067 C 
BRANCH  17  18
HETATM   18  C5  UNL     1       7.611   3.377  11.988  1.00  0.00     0.160 C 
HETATM   19  O1  UNL     1       6.322   2.806  12.243  1.00  0.00    -0.368 OA
HETATM   20  C4  UNL     1       5.490   2.754  11.160  1.00  0.00     0.095 C 
HETATM   21  C30 UNL     1       5.388   4.186  10.638  1.00  0.00    -0.011 C 
HETATM   22  C36 UNL     1       5.956   1.912  10.007  1.00  0.00     0.167 C 
HETATM   23  C29 UNL     1       6.735   4.500  10.034  1.00  0.00     0.053 C 
HETATM   24  C31 UNL     1       5.124   5.076  11.862  1.00  0.00     0.018 C 
HETATM   25  C32 UNL     1       4.278   4.435   9.685  1.00  0.00     0.018 C 
HETATM   26  C28 UNL     1       7.711   3.435  10.540  1.00  0.00     0.101 C 
HETATM   27  O4  UNL     1       8.846   3.503   9.812  1.00  0.00    -0.370 OA
HETATM   28  C35 UNL     1       7.449   2.076   9.983  1.00  0.00     0.051 A 
HETATM   29  C33 UNL     1       8.217   2.655   8.900  1.00  0.00     0.138 A 
HETATM   30  C34 UNL     1       8.346   1.231   9.243  1.00  0.00     0.051 A 
BRANCH  20  31
HETATM   31  C3  UNL     1       4.163   2.258  11.652  1.00  0.00     0.041 C 
BRANCH  31  32
HETATM   32  C2  UNL     1       4.061   0.774  11.456  1.00  0.00    -0.002 C 
HETATM   33  C1  UNL     1       2.627   0.287  11.633  1.00  0.00     0.005 C 
ENDBRANCH  31  32
ENDBRANCH  20  31
BRANCH  22  34
HETATM   34  O5  UNL     1       5.367   2.305   8.810  1.00  0.00    -0.392 OA
ATOM     35  H5  UNL     1       5.453   3.239   8.664  1.00  0.00     0.210 HD
ENDBRANCH  22  34
ENDBRANCH  17  18
ENDBRANCH  16  17
BRANCH  16  36
HETATM   36  O2  UNL     1       7.226   2.153  14.788  1.00  0.00    -0.395 OA
ATOM     37  H2  UNL     1       6.847   1.544  15.412  1.00  0.00     0.210 HD
ENDBRANCH  16  36
ENDBRANCH   1  16
BRANCH  13  38
HETATM   38  C20 UNL     1       7.036  -4.667  14.554  1.00  0.00     0.279 C 
BRANCH  38  39
HETATM   39  C21 UNL     1       8.508  -4.834  14.646  1.00  0.00     0.028 C 
HETATM   40  C22 UNL     1       9.211  -3.726  15.385  1.00  0.00     0.013 C 
BRANCH  39  41
HETATM   41  C23 UNL     1       8.828  -6.115  15.403  1.00  0.00     0.128 C 
BRANCH  41  42
HETATM   42  N2  UNL     1       7.729  -6.558  16.243  1.00  0.00    -0.359 N 
HETATM   43  C24 UNL     1       7.750  -6.416  17.647  1.00  0.00     0.243 C 
HETATM   44  O3  UNL     1       8.747  -5.890  18.191  1.00  0.00    -0.272 OA
ATOM     45  H2  UNL     1       6.914  -6.986  15.803  1.00  0.00     0.162 HD
BRANCH  43  46
HETATM   46  C25 UNL     1       6.626  -6.873  18.481  1.00  0.00     0.331 C 
BRANCH  46  47
HETATM   47  N3  UNL     1       6.054  -5.800  19.268  1.00  0.00    -0.071 N 
ATOM     48  H33 UNL     1       6.780  -5.188  19.640  1.00  0.00     0.274 HD
ATOM     49  H32 UNL     1       5.564  -5.129  18.676  1.00  0.00     0.274 HD
ATOM     50  H31 UNL     1       5.448  -6.147  20.011  1.00  0.00     0.274 HD
ENDBRANCH  46  47
ENDBRANCH  43  46
ENDBRANCH  41  42
ENDBRANCH  39  41
ENDBRANCH  38  39
ENDBRANCH  13  38
TORSDOF 13
ENDMDL
MODEL 2
REMARK VINA RESULT: -8.786819065      3.447      9.257
REMARK  13 active torsions:
REMARK  status: ('A' for Active; 'I' for Inactive)
REMARK    1  A    between atoms: C2_2  and  C3_3 
REMARK    2  A    between atoms: C3_3  and  C4_4 
REMARK    3  A    between atoms: C5_6  and  C6_7 
REMARK    4  A    between atoms: C6_7  and  C7_8 
REMARK    5  A    between atoms: C7_8  and  O2_9 
REMARK    6  A    between atoms: C7_8  and  C8_11 
REMARK    7  A    between atoms: N1_23  and  C20_24 
REMARK    8  A    between atoms: C20_24  and  C21_25 
REMARK    9  A    between atoms: C21_25  and  C23_27 
REMARK   10  A    between atoms: C23_27  and  N2_28 
REMARK       I    between atoms: N2_28  and  C24_30 
REMARK   11  A    between atoms: C24_30  and  C25_32 
REMARK   12  A    between atoms: C25_32  and  N3_33 
REMARK   13  A    between atoms: C36_48  and  O5_49 
ROOT
HETATM    1  C8  UNL     1       6.067  -0.519  13.664  1.00  0.00     0.019 C 
HETATM    2  C9  UNL     1       4.835  -0.864  12.881  1.00  0.00     0.008 C 
HETATM    3  C10 UNL     1       4.708   0.195  11.771  1.00  0.00     0.008 C 
HETATM    4  C11 UNL     1       6.082   0.765  11.745  1.00  0.00     0.029 C 
HETATM    5  C12 UNL     1       6.329   0.906  13.252  1.00  0.00    -0.001 C 
HETATM    6  C13 UNL     1       7.752   1.336  13.467  1.00  0.00     0.006 C 
HETATM    7  C14 UNL     1       8.431   1.787  12.194  1.00  0.00     0.012 C 
HETATM    8  C15 UNL     1       7.565   2.715  11.372  1.00  0.00    -0.003 C 
HETATM    9  C16 UNL     1       8.386   3.112  10.166  1.00  0.00     0.018 C 
HETATM   10  C17 UNL     1       7.186   3.956  12.105  1.00  0.00     0.020 C 
HETATM   11  C18 UNL     1       8.084   5.136  11.798  1.00  0.00     0.012 C 
HETATM   12  C19 UNL     1       5.790   4.244  11.562  1.00  0.00     0.278 C 
HETATM   13  N1  UNL     1       5.219   3.007  11.203  1.00  0.00     0.099 N 
HETATM   14  C26 UNL     1       6.250   2.047  10.992  1.00  0.00     0.167 C 
HETATM   15  C27 UNL     1       6.398   1.641   9.523  1.00  0.00     0.050 C 
ENDROOT
BRANCH   1  16
HETATM   16  C7  UNL     1       5.872  -0.693  15.157  1.00  0.00     0.125 C 
BRANCH  16  17
HETATM   17  C6  UNL     1       4.770  -1.599  15.502  1.00  0.00     0.067 C 
BRANCH  17  18
HETATM   18  C5  UNL     1       5.018  -2.834  16.279  1.00  0.00     0.160 C 
HETATM   19  O1  UNL     1       6.057  -3.498  15.551  1.00  0.00    -0.368 OA
HETATM   20  C4  UNL     1       5.937  -4.858  15.484  1.00  0.00     0.095 C 
HETATM   21  C30 UNL     1       5.853  -5.344  16.930  1.00  0.00    -0.011 C 
HETATM   22  C36 UNL     1       4.715  -5.381  14.786  1.00  0.00     0.167 C 
HETATM   23  C29 UNL     1       4.504  -4.895  17.436  1.00  0.00     0.053 C 
HETATM   24  C31 UNL     1       6.980  -4.633  17.694  1.00  0.00     0.018 C 
HETATM   25  C32 UNL     1       6.063  -6.800  17.122  1.00  0.00     0.018 C 
HETATM   26  C28 UNL     1       3.986  -3.841  16.454  1.00  0.00     0.101 C 
HETATM   27  O4  UNL     1       2.677  -3.620  16.702  1.00  0.00    -0.370 OA
HETATM   28  C35 UNL     1       3.627  -4.400  15.118  1.00  0.00     0.051 A 
HETATM   29  C33 UNL     1       2.417  -4.700  15.856  1.00  0.00     0.138 A 
HETATM   30  C34 UNL     1       2.364  -4.329  14.435  1.00  0.00     0.051 A 
BRANCH  20  31
HETATM   31  C3  UNL     1       7.173  -5.373  14.808  1.00  0.00     0.041 C 
BRANCH  31  32
HETATM   32  C2  UNL     1       7.961  -4.232  14.233  1.00  0.00    -0.002 C 
HETATM   33  C1  UNL     1       9.414  -4.273  14.693  1.00  0.00     0.005 C 
ENDBRANCH  31  32
ENDBRANCH  20  31
BRANCH  22  34
HETATM   34  O5  UNL     1       4.399  -6.672  15.196  1.00  0.00    -0.392 OA
ATOM     35  H5  UNL     1       3.597  -6.983  14.793  1.00  0.00     0.210 HD
ENDBRANCH  22  34
ENDBRANCH  17  18
ENDBRANCH  16  17
BRANCH  16  36
HETATM   36  O2  UNL     1       7.102  -0.990  15.681  1.00  0.00    -0.395 OA
ATOM     37  H2  UNL     1       7.842  -0.498  15.343  1.00  0.00     0.210 HD
ENDBRANCH  16  36
ENDBRANCH   1  16
BRANCH  13  38
HETATM   38  C20 UNL     1       4.197   3.029  10.219  1.00  0.00     0.279 C 
BRANCH  38  39
HETATM   39  C21 UNL     1       3.696   4.350   9.766  1.00  0.00     0.028 C 
HETATM   40  C22 UNL     1       4.115   4.726   8.370  1.00  0.00     0.013 C 
BRANCH  39  41
HETATM   41  C23 UNL     1       2.174   4.342   9.761  1.00  0.00     0.128 C 
BRANCH  41  42
HETATM   42  N2  UNL     1       1.621   3.017   9.980  1.00  0.00    -0.359 N 
HETATM   43  C24 UNL     1       0.864   2.696  11.127  1.00  0.00     0.243 C 
HETATM   44  O3  UNL     1       0.658   3.582  11.987  1.00  0.00    -0.272 OA
ATOM     45  H2  UNL     1       1.786   2.292   9.281  1.00  0.00     0.162 HD
BRANCH  43  46
HETATM   46  C25 UNL     1       0.314   1.347  11.331  1.00  0.00     0.331 C 
BRANCH  46  47
HETATM   47  N3  UNL     1       0.174   1.017  12.735  1.00  0.00    -0.071 N 
ATOM     48  H33 UNL     1       0.984   1.331  13.270  1.00  0.00     0.274 HD
ATOM     49  H32 UNL     1      -0.545   1.589  13.178  1.00  0.00     0.274 HD
ATOM     50  H31 UNL     1      -0.003   0.023  12.883  1.00  0.00     0.274 HD
ENDBRANCH  46  47
ENDBRANCH  43  46
ENDBRANCH  41  42
ENDBRANCH  39  41
ENDBRANCH  38  39
ENDBRANCH  13  38
TORSDOF 13
ENDMDL
MODEL 3
REMARK VINA RESULT: -8.678599747      1.085      1.408
REMARK  13 active torsions:
REMARK  status: ('A' for Active; 'I' for Inactive)
REMARK    1  A    between atoms: C2_2  and  C3_3 
REMARK    2  A    between atoms: C3_3  and  C4_4 
REMARK    3  A    between atoms: C5_6  and  C6_7 
REMARK    4  A    between atoms: C6_7  and  C7_8 
REMARK    5  A    between atoms: C7_8  and  O2_9 
REMARK    6  A    between atoms: C7_8  and  C8_11 
REMARK    7  A    between atoms: N1_23  and  C20_24 
REMARK    8  A    between atoms: C20_24  and  C21_25 
REMARK    9  A    between atoms: C21_25  and  C23_27 
REMARK   10  A    between atoms: C23_27  and  N2_28 
REMARK       I    between atoms: N2_28  and  C24_30 
REMARK   11  A    between atoms: C24_30  and  C25_32 
REMARK   12  A    between atoms: C25_32  and  N3_33 
REMARK   13  A    between atoms: C36_48  and  O5_49 
ROOT
HETATM    1  C8  UNL     1       7.137   0.512  13.197  1.00  0.00     0.019 C 
HETATM    2  C9  UNL     1       7.949  -0.472  12.407  1.00  0.00     0.008 C 
HETATM    3  C10 UNL     1       7.399  -1.869  12.746  1.00  0.00     0.008 C 
HETATM    4  C11 UNL     1       6.073  -1.532  13.331  1.00  0.00     0.029 C 
HETATM    5  C12 UNL     1       6.481  -0.362  14.234  1.00  0.00    -0.001 C 
HETATM    6  C13 UNL     1       5.240   0.244  14.824  1.00  0.00     0.006 C 
HETATM    7  C14 UNL     1       4.011  -0.613  14.621  1.00  0.00     0.012 C 
HETATM    8  C15 UNL     1       4.262  -2.071  14.935  1.00  0.00    -0.003 C 
HETATM    9  C16 UNL     1       2.945  -2.786  14.731  1.00  0.00     0.018 C 
HETATM   10  C17 UNL     1       4.699  -2.295  16.341  1.00  0.00     0.020 C 
HETATM   11  C18 UNL     1       3.567  -2.681  17.271  1.00  0.00     0.012 C 
HETATM   12  C19 UNL     1       5.650  -3.479  16.204  1.00  0.00     0.278 C 
HETATM   13  N1  UNL     1       6.214  -3.414  14.914  1.00  0.00     0.099 N 
HETATM   14  C26 UNL     1       5.376  -2.636  14.065  1.00  0.00     0.167 C 
HETATM   15  C27 UNL     1       4.681  -3.469  12.985  1.00  0.00     0.050 C 
ENDROOT
BRANCH   1  16
HETATM   16  C7  UNL     1       7.985   1.621  13.787  1.00  0.00     0.125 C 
BRANCH  16  17
HETATM   17  C6  UNL     1       8.498   2.562  12.785  1.00  0.00     0.067 C 
BRANCH  17  18
HETATM   18  C5  UNL     1       7.574   3.402  11.990  1.00  0.00     0.160 C 
HETATM   19  O1  UNL     1       6.284   2.833  12.244  1.00  0.00    -0.368 OA
HETATM   20  C4  UNL     1       5.448   2.792  11.164  1.00  0.00     0.095 C 
HETATM   21  C30 UNL     1       5.348   4.229  10.655  1.00  0.00    -0.011 C 
HETATM   22  C36 UNL     1       5.908   1.959  10.002  1.00  0.00     0.167 C 
HETATM   23  C29 UNL     1       6.694   4.544  10.048  1.00  0.00     0.053 C 
HETATM   24  C31 UNL     1       5.091   5.109  11.887  1.00  0.00     0.018 C 
HETATM   25  C32 UNL     1       4.236   4.490   9.708  1.00  0.00     0.018 C 
HETATM   26  C28 UNL     1       7.669   3.473  10.542  1.00  0.00     0.101 C 
HETATM   27  O4  UNL     1       8.802   3.544   9.811  1.00  0.00    -0.370 OA
HETATM   28  C35 UNL     1       7.401   2.119   9.974  1.00  0.00     0.051 A 
HETATM   29  C33 UNL     1       8.167   2.705   8.893  1.00  0.00     0.138 A 
HETATM   30  C34 UNL     1       8.293   1.278   9.223  1.00  0.00     0.051 A 
BRANCH  20  31
HETATM   31  C3  UNL     1       4.121   2.296  11.656  1.00  0.00     0.041 C 
BRANCH  31  32
HETATM   32  C2  UNL     1       3.978   0.831  11.365  1.00  0.00    -0.002 C 
HETATM   33  C1  UNL     1       2.553   0.352  11.618  1.00  0.00     0.005 C 
ENDBRANCH  31  32
ENDBRANCH  20  31
BRANCH  22  34
HETATM   34  O5  UNL     1       5.316   2.364   8.810  1.00  0.00    -0.392 OA
ATOM     35  H5  UNL     1       5.922   2.312   8.080  1.00  0.00     0.210 HD
ENDBRANCH  22  34
ENDBRANCH  17  18
ENDBRANCH  16  17
BRANCH  16  36
HETATM   36  O2  UNL     1       7.266   2.154  14.825  1.00  0.00    -0.395 OA
ATOM     37  H2  UNL     1       6.502   1.667  15.111  1.00  0.00     0.210 HD
ENDBRANCH  16  36
ENDBRANCH   1  16
BRANCH  13  38
HETATM   38  C20 UNL     1       6.690  -4.628  14.354  1.00  0.00     0.279 C 
BRANCH  38  39
HETATM   39  C21 UNL     1       8.127  -4.956  14.528  1.00  0.00     0.028 C 
HETATM   40  C22 UNL     1       9.009  -3.763  14.781  1.00  0.00     0.013 C 
BRANCH  39  41
HETATM   41  C23 UNL     1       8.298  -5.870  15.733  1.00  0.00     0.128 C 
BRANCH  41  42
HETATM   42  N2  UNL     1       9.693  -6.131  16.043  1.00  0.00    -0.359 N 
HETATM   43  C24 UNL     1      10.242  -5.873  17.317  1.00  0.00     0.243 C 
HETATM   44  O3  UNL     1       9.505  -5.404  18.214  1.00  0.00    -0.272 OA
ATOM     45  H2  UNL     1      10.295  -6.515  15.315  1.00  0.00     0.162 HD
BRANCH  43  46
HETATM   46  C25 UNL     1      11.659  -6.143  17.611  1.00  0.00     0.331 C 
BRANCH  46  47
HETATM   47  N3  UNL     1      12.528  -5.080  17.148  1.00  0.00    -0.071 N 
ATOM     48  H33 UNL     1      12.678  -5.139  16.141  1.00  0.00     0.274 HD
ATOM     49  H32 UNL     1      12.058  -4.176  17.190  1.00  0.00     0.274 HD
ATOM     50  H31 UNL     1      13.414  -5.059  17.653  1.00  0.00     0.274 HD
ENDBRANCH  46  47
ENDBRANCH  43  46
ENDBRANCH  41  42
ENDBRANCH  39  41
ENDBRANCH  38  39
ENDBRANCH  13  38
TORSDOF 13
ENDMDL
MODEL 4
REMARK VINA RESULT: -8.523877741      3.101      6.725
REMARK  13 active torsions:
REMARK  status: ('A' for Active; 'I' for Inactive)
REMARK    1  A    between atoms: C2_2  and  C3_3 
REMARK    2  A    between atoms: C3_3  and  C4_4 
REMARK    3  A    between atoms: C5_6  and  C6_7 
REMARK    4  A    between atoms: C6_7  and  C7_8 
REMARK    5  A    between atoms: C7_8  and  O2_9 
REMARK    6  A    between atoms: C7_8  and  C8_11 
REMARK    7  A    between atoms: N1_23  and  C20_24 
REMARK    8  A    between atoms: C20_24  and  C21_25 
REMARK    9  A    between atoms: C21_25  and  C23_27 
REMARK   10  A    between atoms: C23_27  and  N2_28 
REMARK       I    between atoms: N2_28  and  C24_30 
REMARK   11  A    between atoms: C24_30  and  C25_32 
REMARK   12  A    between atoms: C25_32  and  N3_33 
REMARK   13  A    between atoms: C36_48  and  O5_49 
ROOT
HETATM    1  C8  UNL     1       8.202   0.833  12.088  1.00  0.00     0.019 C 
HETATM    2  C9  UNL     1       7.331   2.047  12.216  1.00  0.00     0.008 C 
HETATM    3  C10 UNL     1       6.082   1.611  13.002  1.00  0.00     0.008 C 
HETATM    4  C11 UNL     1       6.548   0.341  13.621  1.00  0.00     0.029 C 
HETATM    5  C12 UNL     1       7.251  -0.289  12.412  1.00  0.00    -0.001 C 
HETATM    6  C13 UNL     1       7.943  -1.545  12.861  1.00  0.00     0.006 C 
HETATM    7  C14 UNL     1       7.524  -1.988  14.245  1.00  0.00     0.012 C 
HETATM    8  C15 UNL     1       6.026  -1.939  14.440  1.00  0.00    -0.003 C 
HETATM    9  C16 UNL     1       5.760  -2.447  15.840  1.00  0.00     0.018 C 
HETATM   10  C17 UNL     1       5.287  -2.809  13.482  1.00  0.00     0.020 C 
HETATM   11  C18 UNL     1       4.936  -4.169  14.049  1.00  0.00     0.012 C 
HETATM   12  C19 UNL     1       3.999  -2.024  13.252  1.00  0.00     0.278 C 
HETATM   13  N1  UNL     1       4.306  -0.660  13.429  1.00  0.00     0.099 N 
HETATM   14  C26 UNL     1       5.488  -0.533  14.215  1.00  0.00     0.167 C 
HETATM   15  C27 UNL     1       5.220   0.040  15.609  1.00  0.00     0.050 C 
ENDROOT
BRANCH   1  16
HETATM   16  C7  UNL     1       8.832   0.715  10.715  1.00  0.00     0.125 C 
BRANCH  16  17
HETATM   17  C6  UNL     1       8.777   1.958   9.936  1.00  0.00     0.067 C 
BRANCH  17  18
HETATM   18  C5  UNL     1       8.021   2.024   8.665  1.00  0.00     0.160 C 
HETATM   19  O1  UNL     1       8.723   3.009   7.897  1.00  0.00    -0.368 OA
HETATM   20  C4  UNL     1       7.928   3.837   7.156  1.00  0.00     0.095 C 
HETATM   21  C30 UNL     1       7.076   2.925   6.274  1.00  0.00    -0.011 C 
HETATM   22  C36 UNL     1       6.971   4.701   7.926  1.00  0.00     0.167 C 
HETATM   23  C29 UNL     1       6.104   2.244   7.207  1.00  0.00     0.053 C 
HETATM   24  C31 UNL     1       8.037   1.901   5.653  1.00  0.00     0.018 C 
HETATM   25  C32 UNL     1       6.386   3.599   5.146  1.00  0.00     0.018 C 
HETATM   26  C28 UNL     1       6.632   2.448   8.629  1.00  0.00     0.101 C 
HETATM   27  O4  UNL     1       5.663   2.109   9.507  1.00  0.00    -0.370 OA
HETATM   28  C35 UNL     1       6.546   3.862   9.098  1.00  0.00     0.051 A 
HETATM   29  C33 UNL     1       5.195   3.417   9.371  1.00  0.00     0.138 A 
HETATM   30  C34 UNL     1       5.872   4.374  10.260  1.00  0.00     0.051 A 
BRANCH  20  31
HETATM   31  C3  UNL     1       8.840   4.695   6.330  1.00  0.00     0.041 C 
BRANCH  31  32
HETATM   32  C2  UNL     1       9.265   5.901   7.115  1.00  0.00    -0.002 C 
HETATM   33  C1  UNL     1      10.678   5.736   7.663  1.00  0.00     0.005 C 
ENDBRANCH  31  32
ENDBRANCH  20  31
BRANCH  22  34
HETATM   34  O5  UNL     1       5.890   5.097   7.147  1.00  0.00    -0.392 OA
ATOM     35  H5  UNL     1       5.582   5.963   7.385  1.00  0.00     0.210 HD
ENDBRANCH  22  34
ENDBRANCH  17  18
ENDBRANCH  16  17
BRANCH  16  36
HETATM   36  O2  UNL     1      10.070   0.157  10.897  1.00  0.00    -0.395 OA
ATOM     37  H2  UNL     1      10.273  -0.157  11.771  1.00  0.00     0.210 HD
ENDBRANCH  16  36
ENDBRANCH   1  16
BRANCH  13  38
HETATM   38  C20 UNL     1       3.238   0.201  13.792  1.00  0.00     0.279 C 
BRANCH  38  39
HETATM   39  C21 UNL     1       2.229   0.533  12.755  1.00  0.00     0.028 C 
HETATM   40  C22 UNL     1       0.815   0.600  13.266  1.00  0.00     0.013 C 
BRANCH  39  41
HETATM   41  C23 UNL     1       2.532   1.906  12.172  1.00  0.00     0.128 C 
BRANCH  41  42
HETATM   42  N2  UNL     1       2.090   2.039  10.795  1.00  0.00    -0.359 N 
HETATM   43  C24 UNL     1       1.247   3.089  10.373  1.00  0.00     0.243 C 
HETATM   44  O3  UNL     1       0.866   3.937  11.210  1.00  0.00    -0.272 OA
ATOM     45  H2  UNL     1       2.400   1.349  10.110  1.00  0.00     0.162 HD
BRANCH  43  46
HETATM   46  C25 UNL     1       0.809   3.204   8.973  1.00  0.00     0.331 C 
BRANCH  46  47
HETATM   47  N3  UNL     1       1.907   3.504   8.076  1.00  0.00    -0.071 N 
ATOM     48  H33 UNL     1       2.804   3.437   8.557  1.00  0.00     0.274 HD
ATOM     49  H32 UNL     1       2.035   2.762   7.389  1.00  0.00     0.274 HD
ATOM     50  H31 UNL     1       1.799   4.411   7.622  1.00  0.00     0.274 HD
ENDBRANCH  46  47
ENDBRANCH  43  46
ENDBRANCH  41  42
ENDBRANCH  39  41
ENDBRANCH  38  39
ENDBRANCH  13  38
TORSDOF 13
ENDMDL
MODEL 5
REMARK VINA RESULT: -8.452156854      3.701     10.762
REMARK  13 active torsions:
REMARK  status: ('A' for Active; 'I' for Inactive)
REMARK    1  A    between atoms: C2_2  and  C3_3 
REMARK    2  A    between atoms: C3_3  and  C4_4 
REMARK    3  A    between atoms: C5_6  and  C6_7 
REMARK    4  A    between atoms: C6_7  and  C7_8 
REMARK    5  A    between atoms: C7_8  and  O2_9 
REMARK    6  A    between atoms: C7_8  and  C8_11 
REMARK    7  A    between atoms: N1_23  and  C20_24 
REMARK    8  A    between atoms: C20_24  and  C21_25 
REMARK    9  A    between atoms: C21_25  and  C23_27 
REMARK   10  A    between atoms: C23_27  and  N2_28 
REMARK       I    between atoms: N2_28  and  C24_30 
REMARK   11  A    between atoms: C24_30  and  C25_32 
REMARK   12  A    between atoms: C25_32  and  N3_33 
REMARK   13  A    between atoms: C36_48  and  O5_49 
ROOT
HETATM    1  C8  UNL     1       4.629  -5.423  15.910  1.00  0.00     0.019 C 
HETATM    2  C9  UNL     1       3.238  -5.439  15.348  1.00  0.00     0.008 C 
HETATM    3  C10 UNL     1       3.104  -4.185  14.467  1.00  0.00     0.008 C 
HETATM    4  C11 UNL     1       4.530  -3.819  14.253  1.00  0.00     0.029 C 
HETATM    5  C12 UNL     1       5.057  -3.997  15.682  1.00  0.00    -0.001 C 
HETATM    6  C13 UNL     1       6.549  -3.819  15.668  1.00  0.00     0.006 C 
HETATM    7  C14 UNL     1       7.062  -3.238  14.370  1.00  0.00     0.012 C 
HETATM    8  C15 UNL     1       6.240  -2.060  13.896  1.00  0.00    -0.003 C 
HETATM    9  C16 UNL     1       6.894  -1.565  12.626  1.00  0.00     0.018 C 
HETATM   10  C17 UNL     1       6.216  -0.938  14.875  1.00  0.00     0.020 C 
HETATM   11  C18 UNL     1       7.238   0.141  14.581  1.00  0.00     0.012 C 
HETATM   12  C19 UNL     1       4.818  -0.360  14.678  1.00  0.00     0.278 C 
HETATM   13  N1  UNL     1       3.988  -1.416  14.253  1.00  0.00     0.099 N 
HETATM   14  C26 UNL     1       4.784  -2.455  13.690  1.00  0.00     0.167 C 
HETATM   15  C27 UNL     1       4.600  -2.596  12.177  1.00  0.00     0.050 C 
ENDROOT
BRANCH   1  16
HETATM   16  C7  UNL     1       4.671  -5.843  17.365  1.00  0.00     0.125 C 
BRANCH  16  17
HETATM   17  C6  UNL     1       5.997  -6.287  17.809  1.00  0.00     0.067 C 
BRANCH  17  18
HETATM   18  C5  UNL     1       6.643  -7.473  17.201  1.00  0.00     0.160 C 
HETATM   19  O1  UNL     1       6.506  -8.491  18.199  1.00  0.00    -0.368 OA
HETATM   20  C4  UNL     1       7.586  -9.318  18.331  1.00  0.00     0.095 C 
HETATM   21  C30 UNL     1       7.836  -9.908  16.944  1.00  0.00    -0.011 C 
HETATM   22  C36 UNL     1       8.871  -8.667  18.756  1.00  0.00     0.167 C 
HETATM   23  C29 UNL     1       8.364  -8.771  16.104  1.00  0.00     0.053 C 
HETATM   24  C31 UNL     1       6.472 -10.379  16.420  1.00  0.00     0.018 C 
HETATM   25  C32 UNL     1       8.735 -11.088  16.911  1.00  0.00     0.018 C 
HETATM   26  C28 UNL     1       8.055  -7.476  16.859  1.00  0.00     0.101 C 
HETATM   27  O4  UNL     1       8.750  -6.465  16.294  1.00  0.00    -0.370 OA
HETATM   28  C35 UNL     1       8.854  -7.312  18.109  1.00  0.00     0.051 A 
HETATM   29  C33 UNL     1       9.807  -6.834  17.128  1.00  0.00     0.138 A 
HETATM   30  C34 UNL     1       9.731  -6.231  18.467  1.00  0.00     0.051 A 
BRANCH  20  31
HETATM   31  C3  UNL     1       7.202 -10.384  19.314  1.00  0.00     0.041 C 
BRANCH  31  32
HETATM   32  C2  UNL     1       5.736 -10.296  19.624  1.00  0.00    -0.002 C 
HETATM   33  C1  UNL     1       5.093 -11.678  19.660  1.00  0.00     0.005 C 
ENDBRANCH  31  32
ENDBRANCH  20  31
BRANCH  22  34
HETATM   34  O5  UNL     1       9.980  -9.416  18.375  1.00  0.00    -0.392 OA
ATOM     35  H5  UNL     1      10.457  -9.745  19.127  1.00  0.00     0.210 HD
ENDBRANCH  22  34
ENDBRANCH  17  18
ENDBRANCH  16  17
BRANCH  16  36
HETATM   36  O2  UNL     1       4.087  -4.832  18.082  1.00  0.00    -0.395 OA
ATOM     37  H2  UNL     1       3.538  -4.225  17.598  1.00  0.00     0.210 HD
ENDBRANCH  16  36
ENDBRANCH   1  16
BRANCH  13  38
HETATM   38  C20 UNL     1       2.829  -1.068  13.512  1.00  0.00     0.279 C 
BRANCH  38  39
HETATM   39  C21 UNL     1       2.709   0.328  13.024  1.00  0.00     0.028 C 
HETATM   40  C22 UNL     1       3.342   0.570  11.680  1.00  0.00     0.013 C 
BRANCH  39  41
HETATM   41  C23 UNL     1       1.238   0.687  12.867  1.00  0.00     0.128 C 
BRANCH  41  42
HETATM   42  N2  UNL     1       0.908   1.117  11.519  1.00  0.00    -0.359 N 
HETATM   43  C24 UNL     1       0.525   2.443  11.224  1.00  0.00     0.243 C 
HETATM   44  O3  UNL     1       0.468   3.280  12.152  1.00  0.00    -0.272 OA
ATOM     45  H2  UNL     1       0.954   0.436  10.761  1.00  0.00     0.162 HD
BRANCH  43  46
HETATM   46  C25 UNL     1       0.192   2.857   9.851  1.00  0.00     0.331 C 
BRANCH  46  47
HETATM   47  N3  UNL     1       1.350   2.852   8.981  1.00  0.00    -0.071 N 
ATOM     48  H33 UNL     1       1.188   3.422   8.150  1.00  0.00     0.274 HD
ATOM     49  H32 UNL     1       2.121   3.378   9.390  1.00  0.00     0.274 HD
ATOM     50  H31 UNL     1       1.640   1.907   8.729  1.00  0.00     0.274 HD
ENDBRANCH  46  47
ENDBRANCH  43  46
ENDBRANCH  41  42
ENDBRANCH  39  41
ENDBRANCH  38  39
ENDBRANCH  13  38
TORSDOF 13
ENDMDL
