MODEL 1
REMARK VINA RESULT: -8.732544865      0.000      0.000
REMARK  13 active torsions:
REMARK  status: ('A' for Active; 'I' for Inactive)
REMARK    1  A    between atoms: C2_2  and  C3_3 
REMARK    2  A    between atoms: C3_3  and  C5_5 
REMARK    3  A    between atoms: C5_5  and  N1_6 
REMARK    4  A    between atoms: C5_5  and  C17_24 
REMARK       I    between atoms: N1_6  and  C6_8 
REMARK    5  A    between atoms: C6_8  and  C7_10 
REMARK    6  A    between atoms: C7_10  and  N2_11 
REMARK    7  A    between atoms: C7_10  and  C13_20 
REMARK       I    between atoms: N2_11  and  C8_13 
REMARK    8  A    between atoms: C8_13  and  O3_15 
REMARK    9  A    between atoms: O3_15  and  C9_16 
REMARK       I    between atoms: C17_24  and  N3_26 
REMARK   10  A    between atoms: C23_32  and  C24_33 
REMARK   11  A    between atoms: C26_40  and  C27_41 
REMARK   12  A    between atoms: C27_41  and  O8_43 
REMARK   13  A    between atoms: O8_43  and  C28_44 
ROOT
HETATM    1  C17 UNL     1       4.764  -2.834  15.955  1.00  0.00     0.243 C 
HETATM    2  O4  UNL     1       4.063  -2.238  16.814  1.00  0.00    -0.271 OA
HETATM    3  N3  UNL     1       5.086  -2.144  14.781  1.00  0.00    -0.334 N 
HETATM    4  C18 UNL     1       5.895  -2.614  13.692  1.00  0.00     0.129 C 
HETATM    5  C19 UNL     1       6.776  -1.412  13.401  1.00  0.00     0.061 C 
HETATM    6  C20 UNL     1       5.745  -0.288  13.486  1.00  0.00     0.157 C 
HETATM    7  C21 UNL     1       5.317   0.017  12.087  1.00  0.00     0.042 C 
HETATM    8  C22 UNL     1       6.547   0.349  11.263  1.00  0.00     0.019 C 
HETATM    9  C23 UNL     1       7.586   1.108  12.033  1.00  0.00     0.112 C 
HETATM   10  C25 UNL     1       6.877   1.826  13.173  1.00  0.00     0.248 C 
HETATM   11  N4  UNL     1       6.436   0.831  14.109  1.00  0.00    -0.063 N 
ATOM     12  H41 UNL     1       7.214   0.502  14.680  1.00  0.00     0.278 HD
ATOM     13  H42 UNL     1       5.857   1.252  14.837  1.00  0.00     0.278 HD
HETATM   14  C26 UNL     1       4.678  -0.779  14.395  1.00  0.00     0.223 C 
ENDROOT
BRANCH   1  15
HETATM   15  C5  UNL     1       5.200  -4.200  16.238  1.00  0.00     0.180 C 
BRANCH  15  16
HETATM   16  C3  UNL     1       4.197  -5.026  16.933  1.00  0.00     0.013 C 
HETATM   17  C4  UNL     1       3.054  -5.478  16.074  1.00  0.00     0.012 C 
BRANCH  16  18
HETATM   18  C2  UNL     1       4.715  -6.125  17.843  1.00  0.00     0.002 C 
HETATM   19  C1  UNL     1       4.865  -7.451  17.159  1.00  0.00     0.005 C 
ENDBRANCH  16  18
ENDBRANCH  15  16
BRANCH  15  20
HETATM   20  N1  UNL     1       6.534  -4.249  16.818  1.00  0.00    -0.346 N 
HETATM   21  C6  UNL     1       7.654  -4.818  16.220  1.00  0.00     0.242 C 
HETATM   22  O1  UNL     1       7.482  -5.318  15.067  1.00  0.00    -0.271 OA
ATOM     23  H1  UNL     1       6.659  -3.831  17.740  1.00  0.00     0.163 HD
BRANCH  21  24
HETATM   24  C7  UNL     1       9.000  -4.893  16.784  1.00  0.00     0.186 C 
BRANCH  24  25
HETATM   25  N2  UNL     1       9.371  -6.237  17.232  1.00  0.00    -0.323 N 
HETATM   26  C8  UNL     1       8.755  -6.960  18.256  1.00  0.00     0.362 C 
HETATM   27  O2  UNL     1       7.785  -6.552  18.941  1.00  0.00    -0.238 OA
ATOM     28  H2  UNL     1      10.150  -6.686  16.752  1.00  0.00     0.165 HD
BRANCH  26  29
HETATM   29  O3  UNL     1       9.232  -8.228  18.563  1.00  0.00    -0.294 OA
BRANCH  29  30
HETATM   30  C9  UNL     1       8.644  -9.409  18.047  1.00  0.00     0.061 C 
HETATM   31  C10 UNL     1       7.546  -9.956  18.897  1.00  0.00     0.046 C 
HETATM   32  C11 UNL     1       8.192  -9.259  16.616  1.00  0.00     0.046 C 
HETATM   33  C12 UNL     1       9.770 -10.453  18.050  1.00  0.00     0.046 C 
ENDBRANCH  29  30
ENDBRANCH  26  29
ENDBRANCH  24  25
BRANCH  24  34
HETATM   34  C13 UNL     1      10.133  -4.308  16.045  1.00  0.00    -0.022 C 
HETATM   35  C14 UNL     1      11.456  -4.577  16.749  1.00  0.00     0.017 C 
HETATM   36  C15 UNL     1      10.272  -4.620  14.608  1.00  0.00     0.017 C 
HETATM   37  C16 UNL     1       9.941  -2.756  16.113  1.00  0.00     0.017 C 
ENDBRANCH  24  34
ENDBRANCH  21  24
ENDBRANCH  15  20
ENDBRANCH   1  15
BRANCH  14  38
HETATM   38  C27 UNL     1       3.310  -0.770  13.857  1.00  0.00     0.284 C 
HETATM   39  O7  UNL     1       2.660  -1.837  13.558  1.00  0.00    -0.263 OA
BRANCH  38  40
HETATM   40  O8  UNL     1       2.608   0.399  13.631  1.00  0.00    -0.314 OA
BRANCH  40  41
HETATM   41  C28 UNL     1       1.885   0.650  12.430  1.00  0.00     0.132 C 
HETATM   42  C29 UNL     1       0.410   0.833  12.701  1.00  0.00     0.032 C 
HETATM   43  C30 UNL     1       0.046   2.219  12.265  1.00  0.00     0.002 C 
HETATM   44  C31 UNL     1       1.231   2.836  11.596  1.00  0.00     0.002 C 
HETATM   45  C32 UNL     1       2.400   1.907  11.816  1.00  0.00     0.032 C 
ENDBRANCH  40  41
ENDBRANCH  38  40
ENDBRANCH  14  38
BRANCH   9  46
HETATM   46  C24 UNL     1       8.204   2.156  11.188  1.00  0.00     0.178 C 
HETATM   47  O5  UNL     1       8.029   3.359  11.488  1.00  0.00    -0.648 OA
HETATM   48  O6  UNL     1       8.979   1.830  10.064  1.00  0.00    -0.648 OA
ENDBRANCH   9  46
TORSDOF 13
ENDMDL
MODEL 2
REMARK VINA RESULT: -8.689370684      1.950      4.243
REMARK  13 active torsions:
REMARK  status: ('A' for Active; 'I' for Inactive)
REMARK    1  A    between atoms: C2_2  and  C3_3 
REMARK    2  A    between atoms: C3_3  and  C5_5 
REMARK    3  A    between atoms: C5_5  and  N1_6 
REMARK    4  A    between atoms: C5_5  and  C17_24 
REMARK       I    between atoms: N1_6  and  C6_8 
REMARK    5  A    between atoms: C6_8  and  C7_10 
REMARK    6  A    between atoms: C7_10  and  N2_11 
REMARK    7  A    between atoms: C7_10  and  C13_20 
REMARK       I    between atoms: N2_11  and  C8_13 
REMARK    8  A    between atoms: C8_13  and  O3_15 
REMARK    9  A    between atoms: O3_15  and  C9_16 
REMARK       I    between atoms: C17_24  and  N3_26 
REMARK   10  A    between atoms: C23_32  and  C24_33 
REMARK   11  A    between atoms: C26_40  and  C27_41 
REMARK   12  A    between atoms: C27_41  and  O8_43 
REMARK   13  A    between atoms: O8_43  and  C28_44 
ROOT
HETATM    1  C17 UNL     1       5.152  -3.041  13.315  1.00  0.00     0.243 C 
HETATM    2  O4  UNL     1       5.808  -3.463  12.327  1.00  0.00    -0.271 OA
HETATM    3  N3  UNL     1       4.607  -1.754  13.236  1.00  0.00    -0.334 N 
HETATM    4  C18 UNL     1       3.801  -1.092  14.222  1.00  0.00     0.129 C 
HETATM    5  C19 UNL     1       2.696  -0.480  13.380  1.00  0.00     0.061 C 
HETATM    6  C20 UNL     1       3.511   0.062  12.207  1.00  0.00     0.157 C 
HETATM    7  C21 UNL     1       3.750   1.512  12.476  1.00  0.00     0.042 C 
HETATM    8  C22 UNL     1       2.412   2.195  12.683  1.00  0.00     0.019 C 
HETATM    9  C23 UNL     1       1.326   1.647  11.805  1.00  0.00     0.112 C 
HETATM   10  C25 UNL     1       1.994   1.023  10.588  1.00  0.00     0.248 C 
HETATM   11  N4  UNL     1       2.690  -0.154  11.026  1.00  0.00    -0.063 N 
ATOM     12  H41 UNL     1       2.037  -0.924  11.175  1.00  0.00     0.278 HD
ATOM     13  H42 UNL     1       3.246  -0.548  10.267  1.00  0.00     0.278 HD
HETATM   14  C26 UNL     1       4.727  -0.789  12.126  1.00  0.00     0.223 C 
ENDROOT
BRANCH   1  15
HETATM   15  C5  UNL     1       4.996  -3.918  14.473  1.00  0.00     0.180 C 
BRANCH  15  16
HETATM   16  C3  UNL     1       3.649  -3.903  15.070  1.00  0.00     0.013 C 
HETATM   17  C4  UNL     1       2.595  -4.592  14.256  1.00  0.00     0.012 C 
BRANCH  16  18
HETATM   18  C2  UNL     1       3.544  -4.220  16.551  1.00  0.00     0.002 C 
HETATM   19  C1  UNL     1       2.844  -3.158  17.344  1.00  0.00     0.005 C 
ENDBRANCH  16  18
ENDBRANCH  15  16
BRANCH  15  20
HETATM   20  N1  UNL     1       6.085  -3.777  15.428  1.00  0.00    -0.346 N 
HETATM   21  C6  UNL     1       7.211  -4.592  15.494  1.00  0.00     0.242 C 
HETATM   22  O1  UNL     1       7.285  -5.521  14.634  1.00  0.00    -0.271 OA
ATOM     23  H1  UNL     1       6.017  -3.018  16.106  1.00  0.00     0.163 HD
BRANCH  21  24
HETATM   24  C7  UNL     1       8.312  -4.482  16.451  1.00  0.00     0.186 C 
BRANCH  24  25
HETATM   25  N2  UNL     1       8.676  -5.757  17.071  1.00  0.00    -0.323 N 
HETATM   26  C8  UNL     1       8.076  -6.322  18.198  1.00  0.00     0.362 C 
HETATM   27  O2  UNL     1       7.127  -5.809  18.841  1.00  0.00    -0.238 OA
ATOM     28  H2  UNL     1       9.438  -6.280  16.640  1.00  0.00     0.165 HD
BRANCH  26  29
HETATM   29  O3  UNL     1       8.544  -7.544  18.665  1.00  0.00    -0.294 OA
BRANCH  29  30
HETATM   30  C9  UNL     1       8.064  -8.783  18.173  1.00  0.00     0.061 C 
HETATM   31  C10 UNL     1       6.605  -8.998  18.402  1.00  0.00     0.046 C 
HETATM   32  C11 UNL     1       8.421  -9.013  16.726  1.00  0.00     0.046 C 
HETATM   33  C12 UNL     1       8.805  -9.853  18.990  1.00  0.00     0.046 C 
ENDBRANCH  29  30
ENDBRANCH  26  29
ENDBRANCH  24  25
BRANCH  24  34
HETATM   34  C13 UNL     1       9.544  -3.771  16.063  1.00  0.00    -0.022 C 
HETATM   35  C14 UNL     1       9.289  -2.283  15.862  1.00  0.00     0.017 C 
HETATM   36  C15 UNL     1      10.751  -3.952  16.895  1.00  0.00     0.017 C 
HETATM   37  C16 UNL     1       9.932  -4.315  14.649  1.00  0.00     0.017 C 
ENDBRANCH  24  34
ENDBRANCH  21  24
ENDBRANCH  15  20
ENDBRANCH   1  15
BRANCH  14  38
HETATM   38  C27 UNL     1       6.017  -0.086  12.176  1.00  0.00     0.284 C 
HETATM   39  O7  UNL     1       6.760  -0.043  13.223  1.00  0.00    -0.263 OA
BRANCH  38  40
HETATM   40  O8  UNL     1       6.538   0.588  11.087  1.00  0.00    -0.314 OA
BRANCH  40  41
HETATM   41  C28 UNL     1       7.671   1.446  11.177  1.00  0.00     0.132 C 
HETATM   42  C29 UNL     1       8.526   1.363   9.934  1.00  0.00     0.032 C 
HETATM   43  C30 UNL     1       8.543   2.727   9.314  1.00  0.00     0.002 C 
HETATM   44  C31 UNL     1       7.842   3.676  10.229  1.00  0.00     0.002 C 
HETATM   45  C32 UNL     1       7.195   2.853  11.315  1.00  0.00     0.032 C 
ENDBRANCH  40  41
ENDBRANCH  38  40
ENDBRANCH  14  38
BRANCH   9  46
HETATM   46  C24 UNL     1       0.457   2.736  11.303  1.00  0.00     0.178 C 
HETATM   47  O5  UNL     1       0.829   3.923  11.442  1.00  0.00    -0.648 OA
HETATM   48  O6  UNL     1      -0.770   2.466  10.678  1.00  0.00    -0.648 OA
ENDBRANCH   9  46
TORSDOF 13
ENDMDL
MODEL 3
REMARK VINA RESULT: -8.626216671      2.898     11.061
REMARK  13 active torsions:
REMARK  status: ('A' for Active; 'I' for Inactive)
REMARK    1  A    between atoms: C2_2  and  C3_3 
REMARK    2  A    between atoms: C3_3  and  C5_5 
REMARK    3  A    between atoms: C5_5  and  N1_6 
REMARK    4  A    between atoms: C5_5  and  C17_24 
REMARK       I    between atoms: N1_6  and  C6_8 
REMARK    5  A    between atoms: C6_8  and  C7_10 
REMARK    6  A    between atoms: C7_10  and  N2_11 
REMARK    7  A    between atoms: C7_10  and  C13_20 
REMARK       I    between atoms: N2_11  and  C8_13 
REMARK    8  A    between atoms: C8_13  and  O3_15 
REMARK    9  A    between atoms: O3_15  and  C9_16 
REMARK       I    between atoms: C17_24  and  N3_26 
REMARK   10  A    between atoms: C23_32  and  C24_33 
REMARK   11  A    between atoms: C26_40  and  C27_41 
REMARK   12  A    between atoms: C27_41  and  O8_43 
REMARK   13  A    between atoms: O8_43  and  C28_44 
ROOT
HETATM    1  C17 UNL     1       6.777   1.137  13.266  1.00  0.00     0.243 C 
HETATM    2  O4  UNL     1       7.558   1.611  14.133  1.00  0.00    -0.271 OA
HETATM    3  N3  UNL     1       6.286  -0.158  13.468  1.00  0.00    -0.334 N 
HETATM    4  C18 UNL     1       5.364  -0.875  12.633  1.00  0.00     0.129 C 
HETATM    5  C19 UNL     1       4.411  -1.480  13.648  1.00  0.00     0.061 C 
HETATM    6  C20 UNL     1       5.403  -1.958  14.707  1.00  0.00     0.157 C 
HETATM    7  C21 UNL     1       5.640  -3.412  14.455  1.00  0.00     0.042 C 
HETATM    8  C22 UNL     1       4.306  -4.132  14.469  1.00  0.00     0.019 C 
HETATM    9  C23 UNL     1       3.345  -3.577  15.477  1.00  0.00     0.112 C 
HETATM   10  C25 UNL     1       4.165  -2.892  16.562  1.00  0.00     0.248 C 
HETATM   11  N4  UNL     1       4.756  -1.717  15.988  1.00  0.00    -0.063 N 
ATOM     12  H41 UNL     1       4.068  -0.969  15.909  1.00  0.00     0.278 HD
ATOM     13  H42 UNL     1       5.406  -1.283  16.643  1.00  0.00     0.278 HD
HETATM   14  C26 UNL     1       6.593  -1.078  14.579  1.00  0.00     0.223 C 
ENDROOT
BRANCH   1  15
HETATM   15  C5  UNL     1       6.430   1.967  12.115  1.00  0.00     0.180 C 
BRANCH  15  16
HETATM   16  C3  UNL     1       7.460   2.952  11.743  1.00  0.00     0.013 C 
HETATM   17  C4  UNL     1       8.075   2.737  10.392  1.00  0.00     0.012 C 
BRANCH  16  18
HETATM   18  C2  UNL     1       7.153   4.413  12.019  1.00  0.00     0.002 C 
HETATM   19  C1  UNL     1       8.369   5.291  12.029  1.00  0.00     0.005 C 
ENDBRANCH  16  18
ENDBRANCH  15  16
BRANCH  15  20
HETATM   20  N1  UNL     1       5.080   2.505  12.204  1.00  0.00    -0.346 N 
HETATM   21  C6  UNL     1       4.035   2.210  11.333  1.00  0.00     0.242 C 
HETATM   22  O1  UNL     1       4.295   1.393  10.399  1.00  0.00    -0.271 OA
ATOM     23  H1  UNL     1       4.883   3.151  12.968  1.00  0.00     0.163 HD
BRANCH  21  24
HETATM   24  C7  UNL     1       2.675   2.745  11.391  1.00  0.00     0.186 C 
BRANCH  24  25
HETATM   25  N2  UNL     1       2.341   3.611  10.259  1.00  0.00    -0.323 N 
HETATM   26  C8  UNL     1       3.177   4.571   9.684  1.00  0.00     0.362 C 
HETATM   27  O2  UNL     1       4.347   4.824  10.063  1.00  0.00    -0.238 OA
ATOM     28  H2  UNL     1       1.412   3.504   9.853  1.00  0.00     0.165 HD
BRANCH  26  29
HETATM   29  O3  UNL     1       2.705   5.317   8.612  1.00  0.00    -0.294 OA
BRANCH  29  30
HETATM   30  C9  UNL     1       2.607   4.789   7.301  1.00  0.00     0.061 C 
HETATM   31  C10 UNL     1       3.679   3.807   6.965  1.00  0.00     0.046 C 
HETATM   32  C11 UNL     1       1.243   4.219   7.002  1.00  0.00     0.046 C 
HETATM   33  C12 UNL     1       2.800   5.994   6.368  1.00  0.00     0.046 C 
ENDBRANCH  29  30
ENDBRANCH  26  29
ENDBRANCH  24  25
BRANCH  24  34
HETATM   34  C13 UNL     1       1.545   1.834  11.644  1.00  0.00    -0.022 C 
HETATM   35  C14 UNL     1       1.028   1.216  10.352  1.00  0.00     0.017 C 
HETATM   36  C15 UNL     1       1.709   0.775  12.660  1.00  0.00     0.017 C 
HETATM   37  C16 UNL     1       0.373   2.729  12.167  1.00  0.00     0.017 C 
ENDBRANCH  24  34
ENDBRANCH  21  24
ENDBRANCH  15  20
ENDBRANCH   1  15
BRANCH  14  38
HETATM   38  C27 UNL     1       7.881  -1.752  14.365  1.00  0.00     0.284 C 
HETATM   39  O7  UNL     1       8.457  -1.832  13.220  1.00  0.00    -0.263 OA
BRANCH  38  40
HETATM   40  O8  UNL     1       8.582  -2.357  15.391  1.00  0.00    -0.314 OA
BRANCH  40  41
HETATM   41  C28 UNL     1       9.566  -3.363  15.170  1.00  0.00     0.132 C 
HETATM   42  C29 UNL     1      10.602  -3.375  16.270  1.00  0.00     0.032 C 
HETATM   43  C30 UNL     1      10.532  -4.716  16.932  1.00  0.00     0.002 C 
HETATM   44  C31 UNL     1       9.582  -5.578  16.167  1.00  0.00     0.002 C 
HETATM   45  C32 UNL     1       8.894  -4.694  15.156  1.00  0.00     0.032 C 
ENDBRANCH  40  41
ENDBRANCH  38  40
ENDBRANCH  14  38
BRANCH   9  46
HETATM   46  C24 UNL     1       2.589  -4.666  16.137  1.00  0.00     0.178 C 
HETATM   47  O5  UNL     1       1.737  -5.301  15.476  1.00  0.00    -0.648 OA
HETATM   48  O6  UNL     1       2.806  -4.999  17.483  1.00  0.00    -0.648 OA
ENDBRANCH   9  46
TORSDOF 13
ENDMDL
MODEL 4
REMARK VINA RESULT: -8.463029568      2.474      5.557
REMARK  13 active torsions:
REMARK  status: ('A' for Active; 'I' for Inactive)
REMARK    1  A    between atoms: C2_2  and  C3_3 
REMARK    2  A    between atoms: C3_3  and  C5_5 
REMARK    3  A    between atoms: C5_5  and  N1_6 
REMARK    4  A    between atoms: C5_5  and  C17_24 
REMARK       I    between atoms: N1_6  and  C6_8 
REMARK    5  A    between atoms: C6_8  and  C7_10 
REMARK    6  A    between atoms: C7_10  and  N2_11 
REMARK    7  A    between atoms: C7_10  and  C13_20 
REMARK       I    between atoms: N2_11  and  C8_13 
REMARK    8  A    between atoms: C8_13  and  O3_15 
REMARK    9  A    between atoms: O3_15  and  C9_16 
REMARK       I    between atoms: C17_24  and  N3_26 
REMARK   10  A    between atoms: C23_32  and  C24_33 
REMARK   11  A    between atoms: C26_40  and  C27_41 
REMARK   12  A    between atoms: C27_41  and  O8_43 
REMARK   13  A    between atoms: O8_43  and  C28_44 
ROOT
HETATM    1  C17 UNL     1       7.350  -4.245  15.049  1.00  0.00     0.243 C 
HETATM    2  O4  UNL     1       7.783  -4.868  14.045  1.00  0.00    -0.271 OA
HETATM    3  N3  UNL     1       6.650  -3.054  14.827  1.00  0.00    -0.334 N 
HETATM    4  C18 UNL     1       6.044  -2.207  15.815  1.00  0.00     0.129 C 
HETATM    5  C19 UNL     1       4.696  -1.893  15.190  1.00  0.00     0.061 C 
HETATM    6  C20 UNL     1       5.118  -1.624  13.747  1.00  0.00     0.157 C 
HETATM    7  C21 UNL     1       5.238  -0.143  13.597  1.00  0.00     0.042 C 
HETATM    8  C22 UNL     1       3.922   0.495  13.999  1.00  0.00     0.019 C 
HETATM    9  C23 UNL     1       2.726  -0.318  13.603  1.00  0.00     0.112 C 
HETATM   10  C25 UNL     1       3.138  -1.195  12.428  1.00  0.00     0.248 C 
HETATM   11  N4  UNL     1       4.059  -2.180  12.918  1.00  0.00    -0.063 N 
ATOM     12  H41 UNL     1       3.564  -2.921  13.414  1.00  0.00     0.278 HD
ATOM     13  H42 UNL     1       4.450  -2.723  12.148  1.00  0.00     0.278 HD
HETATM   14  C26 UNL     1       6.369  -2.398  13.535  1.00  0.00     0.223 C 
ENDROOT
BRANCH   1  15
HETATM   15  C5  UNL     1       7.598  -4.805  16.376  1.00  0.00     0.180 C 
BRANCH  15  16
HETATM   16  C3  UNL     1       8.902  -4.440  16.956  1.00  0.00     0.013 C 
HETATM   17  C4  UNL     1       9.766  -5.604  17.340  1.00  0.00     0.012 C 
BRANCH  16  18
HETATM   18  C2  UNL     1       9.682  -3.335  16.266  1.00  0.00     0.002 C 
HETATM   19  C1  UNL     1      10.943  -3.810  15.609  1.00  0.00     0.005 C 
ENDBRANCH  16  18
ENDBRANCH  15  16
BRANCH  15  20
HETATM   20  N1  UNL     1       7.277  -6.223  16.450  1.00  0.00    -0.346 N 
HETATM   21  C6  UNL     1       6.708  -6.866  17.545  1.00  0.00     0.242 C 
HETATM   22  O1  UNL     1       6.440  -6.137  18.548  1.00  0.00    -0.271 OA
ATOM     23  H1  UNL     1       7.486  -6.794  15.630  1.00  0.00     0.163 HD
BRANCH  21  24
HETATM   24  C7  UNL     1       6.388  -8.288  17.651  1.00  0.00     0.186 C 
BRANCH  24  25
HETATM   25  N2  UNL     1       5.569  -8.785  16.545  1.00  0.00    -0.323 N 
HETATM   26  C8  UNL     1       4.236  -9.195  16.630  1.00  0.00     0.362 C 
HETATM   27  O2  UNL     1       3.548  -9.190  17.680  1.00  0.00    -0.238 OA
ATOM     28  H2  UNL     1       6.011  -8.837  15.628  1.00  0.00     0.165 HD
BRANCH  26  29
HETATM   29  O3  UNL     1       3.599  -9.647  15.481  1.00  0.00    -0.294 OA
BRANCH  29  30
HETATM   30  C9  UNL     1       3.663 -10.996  15.055  1.00  0.00     0.061 C 
HETATM   31  C10 UNL     1       4.971 -11.656  15.339  1.00  0.00     0.046 C 
HETATM   32  C11 UNL     1       2.518 -11.827  15.576  1.00  0.00     0.046 C 
HETATM   33  C12 UNL     1       3.515 -10.942  13.527  1.00  0.00     0.046 C 
ENDBRANCH  29  30
ENDBRANCH  26  29
ENDBRANCH  24  25
BRANCH  24  34
HETATM   34  C13 UNL     1       7.465  -9.258  17.920  1.00  0.00    -0.022 C 
HETATM   35  C14 UNL     1       7.934  -9.939  16.641  1.00  0.00     0.017 C 
HETATM   36  C15 UNL     1       8.640  -8.809  18.693  1.00  0.00     0.017 C 
HETATM   37  C16 UNL     1       6.819 -10.398  18.777  1.00  0.00     0.017 C 
ENDBRANCH  24  34
ENDBRANCH  21  24
ENDBRANCH  15  20
ENDBRANCH   1  15
BRANCH  14  38
HETATM   38  C27 UNL     1       7.534  -1.636  13.066  1.00  0.00     0.284 C 
HETATM   39  O7  UNL     1       8.640  -1.560  13.716  1.00  0.00    -0.263 OA
BRANCH  38  40
HETATM   40  O8  UNL     1       7.533  -0.935  11.874  1.00  0.00    -0.314 OA
BRANCH  40  41
HETATM   41  C28 UNL     1       8.456   0.111  11.589  1.00  0.00     0.132 C 
HETATM   42  C29 UNL     1       8.817   0.145  10.123  1.00  0.00     0.032 C 
HETATM   43  C30 UNL     1       8.376   1.472   9.586  1.00  0.00     0.002 C 
HETATM   44  C31 UNL     1       7.889   2.309  10.723  1.00  0.00     0.002 C 
HETATM   45  C32 UNL     1       7.822   1.416  11.937  1.00  0.00     0.032 C 
ENDBRANCH  40  41
ENDBRANCH  38  40
ENDBRANCH  14  38
BRANCH   9  46
HETATM   46  C24 UNL     1       1.633   0.556  13.121  1.00  0.00     0.178 C 
HETATM   47  O5  UNL     1       1.910   1.513  12.363  1.00  0.00    -0.648 OA
HETATM   48  O6  UNL     1       0.298   0.335  13.493  1.00  0.00    -0.648 OA
ENDBRANCH   9  46
TORSDOF 13
ENDMDL
MODEL 5
REMARK VINA RESULT: -8.462163633      1.133      1.461
REMARK  13 active torsions:
REMARK  status: ('A' for Active; 'I' for Inactive)
REMARK    1  A    between atoms: C2_2  and  C3_3 
REMARK    2  A    between atoms: C3_3  and  C5_5 
REMARK    3  A    between atoms: C5_5  and  N1_6 
REMARK    4  A    between atoms: C5_5  and  C17_24 
REMARK       I    between atoms: N1_6  and  C6_8 
REMARK    5  A    between atoms: C6_8  and  C7_10 
REMARK    6  A    between atoms: C7_10  and  N2_11 
REMARK    7  A    between atoms: C7_10  and  C13_20 
REMARK       I    between atoms: N2_11  and  C8_13 
REMARK    8  A    between atoms: C8_13  and  O3_15 
REMARK    9  A    between atoms: O3_15  and  C9_16 
REMARK       I    between atoms: C17_24  and  N3_26 
REMARK   10  A    between atoms: C23_32  and  C24_33 
REMARK   11  A    between atoms: C26_40  and  C27_41 
REMARK   12  A    between atoms: C27_41  and  O8_43 
REMARK   13  A    between atoms: O8_43  and  C28_44 
ROOT
HETATM    1  C17 UNL     1       5.265  -2.126  14.805  1.00  0.00     0.243 C 
HETATM    2  O4  UNL     1       4.622  -1.624  15.764  1.00  0.00    -0.271 OA
HETATM    3  N3  UNL     1       5.478  -1.329  13.675  1.00  0.00    -0.334 N 
HETATM    4  C18 UNL     1       6.209  -1.683  12.490  1.00  0.00     0.129 C 
HETATM    5  C19 UNL     1       7.039  -0.437  12.237  1.00  0.00     0.061 C 
HETATM    6  C20 UNL     1       5.995   0.647  12.498  1.00  0.00     0.157 C 
HETATM    7  C21 UNL     1       5.452   1.058  11.168  1.00  0.00     0.042 C 
HETATM    8  C22 UNL     1       6.605   1.492  10.285  1.00  0.00     0.019 C 
HETATM    9  C23 UNL     1       7.686   2.212  11.035  1.00  0.00     0.112 C 
HETATM   10  C25 UNL     1       7.054   2.810  12.284  1.00  0.00     0.248 C 
HETATM   11  N4  UNL     1       6.708   1.728  13.161  1.00  0.00    -0.063 N 
ATOM     12  H41 UNL     1       7.536   1.373  13.640  1.00  0.00     0.278 HD
ATOM     13  H42 UNL     1       6.180   2.069  13.965  1.00  0.00     0.278 HD
HETATM   14  C26 UNL     1       5.013   0.051  13.441  1.00  0.00     0.223 C 
ENDROOT
BRANCH   1  15
HETATM   15  C5  UNL     1       5.750  -3.498  14.935  1.00  0.00     0.180 C 
BRANCH  15  16
HETATM   16  C3  UNL     1       4.693  -4.497  15.167  1.00  0.00     0.013 C 
HETATM   17  C4  UNL     1       4.446  -4.824  16.610  1.00  0.00     0.012 C 
BRANCH  16  18
HETATM   18  C2  UNL     1       3.408  -4.344  14.374  1.00  0.00     0.002 C 
HETATM   19  C1  UNL     1       2.223  -5.003  15.016  1.00  0.00     0.005 C 
ENDBRANCH  16  18
ENDBRANCH  15  16
BRANCH  15  20
HETATM   20  N1  UNL     1       6.891  -3.602  15.833  1.00  0.00    -0.346 N 
HETATM   21  C6  UNL     1       7.874  -4.586  15.778  1.00  0.00     0.242 C 
HETATM   22  O1  UNL     1       7.758  -5.446  14.854  1.00  0.00    -0.271 OA
ATOM     23  H1  UNL     1       6.978  -2.894  16.563  1.00  0.00     0.163 HD
BRANCH  21  24
HETATM   24  C7  UNL     1       9.022  -4.721  16.674  1.00  0.00     0.186 C 
BRANCH  24  25
HETATM   25  N2  UNL     1       9.119  -6.040  17.302  1.00  0.00    -0.323 N 
HETATM   26  C8  UNL     1       8.282  -6.534  18.305  1.00  0.00     0.362 C 
HETATM   27  O2  UNL     1       7.318  -5.909  18.810  1.00  0.00    -0.238 OA
ATOM     28  H2  UNL     1       9.865  -6.654  16.977  1.00  0.00     0.165 HD
BRANCH  26  29
HETATM   29  O3  UNL     1       8.511  -7.812  18.800  1.00  0.00    -0.294 OA
BRANCH  29  30
HETATM   30  C9  UNL     1       7.968  -8.972  18.196  1.00  0.00     0.061 C 
HETATM   31  C10 UNL     1       6.505  -9.149  18.438  1.00  0.00     0.046 C 
HETATM   32  C11 UNL     1       8.284  -9.067  16.725  1.00  0.00     0.046 C 
HETATM   33  C12 UNL     1       8.677 -10.151  18.881  1.00  0.00     0.046 C 
ENDBRANCH  29  30
ENDBRANCH  26  29
ENDBRANCH  24  25
BRANCH  24  34
HETATM   34  C13 UNL     1      10.360  -4.316  16.208  1.00  0.00    -0.022 C 
HETATM   35  C14 UNL     1      11.452  -5.163  16.847  1.00  0.00     0.017 C 
HETATM   36  C15 UNL     1      10.601  -4.224  14.753  1.00  0.00     0.017 C 
HETATM   37  C16 UNL     1      10.592  -2.869  16.756  1.00  0.00     0.017 C 
ENDBRANCH  24  34
ENDBRANCH  21  24
ENDBRANCH  15  20
ENDBRANCH   1  15
BRANCH  14  38
HETATM   38  C27 UNL     1       3.607   0.068  13.012  1.00  0.00     0.284 C 
HETATM   39  O7  UNL     1       2.905  -0.995  12.843  1.00  0.00    -0.263 OA
BRANCH  38  40
HETATM   40  O8  UNL     1       2.922   1.241  12.757  1.00  0.00    -0.314 OA
BRANCH  40  41
HETATM   41  C28 UNL     1       2.070   1.412  11.629  1.00  0.00     0.132 C 
HETATM   42  C29 UNL     1       0.613   1.316  12.017  1.00  0.00     0.032 C 
HETATM   43  C30 UNL     1      -0.022   2.633  11.691  1.00  0.00     0.002 C 
HETATM   44  C31 UNL     1       0.978   3.481  10.974  1.00  0.00     0.002 C 
HETATM   45  C32 UNL     1       2.305   2.768  11.053  1.00  0.00     0.032 C 
ENDBRANCH  40  41
ENDBRANCH  38  40
ENDBRANCH  14  38
BRANCH   9  46
HETATM   46  C24 UNL     1       8.213   3.345  10.239  1.00  0.00     0.178 C 
HETATM   47  O5  UNL     1       8.118   4.505  10.698  1.00  0.00    -0.648 OA
HETATM   48  O6  UNL     1       8.815   3.144   8.988  1.00  0.00    -0.648 OA
ENDBRANCH   9  46
TORSDOF 13
ENDMDL
