MODEL 1
REMARK VINA RESULT: -8.774122636      0.000      0.000
REMARK  7 active torsions:
REMARK  status: ('A' for Active; 'I' for Inactive)
REMARK    1  A    between atoms: C5_5  and  C6_6 
REMARK    2  A    between atoms: C6_6  and  C7_7 
REMARK    3  A    between atoms: C8_10  and  C9_11 
REMARK    4  A    between atoms: C9_11  and  C10_12 
REMARK    5  A    between atoms: C13_15  and  C14_16 
REMARK    6  A    between atoms: C14_16  and  C15_17 
REMARK    7  A    between atoms: C15_17  and  O1_18 
ROOT
HETATM    1  C7  UNL     1     -21.274 -34.121  21.207  1.00  0.00     0.041 A 
HETATM    2  N1  UNL     1     -20.506 -34.758  22.081  1.00  0.00    -0.355 N 
ATOM      3  H1  UNL     1     -20.821 -35.064  23.002  1.00  0.00     0.166 HD
HETATM    4  C8  UNL     1     -19.272 -34.950  21.610  1.00  0.00     0.040 A 
HETATM    5  C21 UNL     1     -19.289 -34.373  20.322  1.00  0.00    -0.027 A 
HETATM    6  C22 UNL     1     -18.114 -34.363  19.439  1.00  0.00     0.051 C 
HETATM    7  C23 UNL     1     -20.541 -33.855  20.071  1.00  0.00    -0.027 A 
HETATM    8  C24 UNL     1     -20.959 -33.167  18.825  1.00  0.00     0.051 C 
ENDROOT
BRANCH   4   9
HETATM    9  C9  UNL     1     -18.138 -35.538  22.260  1.00  0.00     0.042 C 
BRANCH   9  10
HETATM   10  C10 UNL     1     -17.503 -35.351  23.380  1.00  0.00    -0.018 A 
HETATM   11  C11 UNL     1     -17.725 -36.037  24.556  1.00  0.00    -0.044 A 
HETATM   12  C12 UNL     1     -18.727 -37.102  24.623  1.00  0.00     0.049 C 
HETATM   13  C13 UNL     1     -17.032 -35.795  25.744  1.00  0.00    -0.043 A 
HETATM   14  C16 UNL     1     -16.083 -34.812  25.703  1.00  0.00    -0.054 A 
HETATM   15  C17 UNL     1     -15.307 -34.513  26.963  1.00  0.00     0.049 C 
HETATM   16  C18 UNL     1     -15.824 -34.106  24.569  1.00  0.00     0.018 A 
HETATM   17  C19 UNL     1     -16.511 -34.341  23.381  1.00  0.00    -0.034 A 
HETATM   18  C20 UNL     1     -16.199 -33.613  22.324  1.00  0.00     0.024 C 
BRANCH  13  19
HETATM   19  C14 UNL     1     -17.310 -36.535  26.958  1.00  0.00     0.065 C 
BRANCH  19  20
HETATM   20  C15 UNL     1     -16.585 -37.863  26.952  1.00  0.00     0.168 C 
BRANCH  20  21
HETATM   21  O1  UNL     1     -17.211 -38.828  27.718  1.00  0.00    -0.401 OA
ATOM     22  H1  UNL     1     -17.715 -39.446  27.202  1.00  0.00     0.209 HD
ENDBRANCH  20  21
ENDBRANCH  19  20
ENDBRANCH  13  19
ENDBRANCH   9  10
ENDBRANCH   4   9
BRANCH   1  23
HETATM   23  C6  UNL     1     -22.680 -33.749  21.401  1.00  0.00     0.059 C 
BRANCH  23  24
HETATM   24  C5  UNL     1     -23.032 -32.638  22.012  1.00  0.00     0.034 A 
HETATM   25  C4  UNL     1     -22.558 -31.384  21.708  1.00  0.00     0.032 A 
HETATM   26  C3  UNL     1     -23.166 -30.495  22.567  1.00  0.00     0.031 A 
HETATM   27  C2  UNL     1     -24.010 -31.194  23.399  1.00  0.00     0.023 A 
HETATM   28  C1  UNL     1     -24.772 -30.699  24.359  1.00  0.00     0.043 C 
HETATM   29  N2  UNL     1     -23.900 -32.477  23.032  1.00  0.00    -0.357 N 
ATOM     30  H2  UNL     1     -24.412 -33.243  23.471  1.00  0.00     0.166 HD
ENDBRANCH  23  24
ENDBRANCH   1  23
TORSDOF 7
ENDMDL
MODEL 2
REMARK VINA RESULT: -8.660071582      1.157      1.488
REMARK  7 active torsions:
REMARK  status: ('A' for Active; 'I' for Inactive)
REMARK    1  A    between atoms: C5_5  and  C6_6 
REMARK    2  A    between atoms: C6_6  and  C7_7 
REMARK    3  A    between atoms: C8_10  and  C9_11 
REMARK    4  A    between atoms: C9_11  and  C10_12 
REMARK    5  A    between atoms: C13_15  and  C14_16 
REMARK    6  A    between atoms: C14_16  and  C15_17 
REMARK    7  A    between atoms: C15_17  and  O1_18 
ROOT
HETATM    1  C7  UNL     1     -21.482 -33.683  21.437  1.00  0.00     0.041 A 
HETATM    2  N1  UNL     1     -20.295 -33.787  22.018  1.00  0.00    -0.355 N 
ATOM      3  H1  UNL     1     -19.791 -33.003  22.434  1.00  0.00     0.166 HD
HETATM    4  C8  UNL     1     -19.838 -35.041  21.994  1.00  0.00     0.040 A 
HETATM    5  C21 UNL     1     -20.846 -35.774  21.332  1.00  0.00    -0.027 A 
HETATM    6  C22 UNL     1     -20.748 -37.220  21.086  1.00  0.00     0.051 C 
HETATM    7  C23 UNL     1     -21.874 -34.925  20.984  1.00  0.00    -0.027 A 
HETATM    8  C24 UNL     1     -23.116 -35.314  20.273  1.00  0.00     0.051 C 
ENDROOT
BRANCH   4   9
HETATM    9  C9  UNL     1     -18.582 -35.555  22.458  1.00  0.00     0.042 C 
BRANCH   9  10
HETATM   10  C10 UNL     1     -17.833 -35.381  23.506  1.00  0.00    -0.018 A 
HETATM   11  C11 UNL     1     -17.934 -36.077  24.693  1.00  0.00    -0.044 A 
HETATM   12  C12 UNL     1     -18.928 -37.139  24.855  1.00  0.00     0.049 C 
HETATM   13  C13 UNL     1     -17.119 -35.849  25.804  1.00  0.00    -0.043 A 
HETATM   14  C16 UNL     1     -16.175 -34.869  25.672  1.00  0.00    -0.054 A 
HETATM   15  C17 UNL     1     -15.270 -34.585  26.846  1.00  0.00     0.049 C 
HETATM   16  C18 UNL     1     -16.033 -34.154  24.524  1.00  0.00     0.018 A 
HETATM   17  C19 UNL     1     -16.842 -34.375  23.413  1.00  0.00    -0.034 A 
HETATM   18  C20 UNL     1     -16.639 -33.637  22.335  1.00  0.00     0.024 C 
BRANCH  13  19
HETATM   19  C14 UNL     1     -17.272 -36.600  27.034  1.00  0.00     0.065 C 
BRANCH  19  20
HETATM   20  C15 UNL     1     -16.574 -37.939  26.932  1.00  0.00     0.168 C 
BRANCH  20  21
HETATM   21  O1  UNL     1     -17.110 -38.896  27.773  1.00  0.00    -0.401 OA
ATOM     22  H1  UNL     1     -16.527 -39.138  28.482  1.00  0.00     0.209 HD
ENDBRANCH  20  21
ENDBRANCH  19  20
ENDBRANCH  13  19
ENDBRANCH   9  10
ENDBRANCH   4   9
BRANCH   1  23
HETATM   23  C6  UNL     1     -22.267 -32.453  21.288  1.00  0.00     0.059 C 
BRANCH  23  24
HETATM   24  C5  UNL     1     -23.066 -32.013  22.238  1.00  0.00     0.034 A 
HETATM   25  C4  UNL     1     -24.001 -32.772  22.900  1.00  0.00     0.032 A 
HETATM   26  C3  UNL     1     -24.626 -31.951  23.811  1.00  0.00     0.031 A 
HETATM   27  C2  UNL     1     -24.083 -30.690  23.715  1.00  0.00     0.023 A 
HETATM   28  C1  UNL     1     -24.414 -29.623  24.421  1.00  0.00     0.043 C 
HETATM   29  N2  UNL     1     -23.149 -30.771  22.758  1.00  0.00    -0.357 N 
ATOM     30  H2  UNL     1     -22.569 -29.987  22.458  1.00  0.00     0.166 HD
ENDBRANCH  23  24
ENDBRANCH   1  23
TORSDOF 7
ENDMDL
MODEL 3
REMARK VINA RESULT: -8.635697717      1.424      2.012
REMARK  7 active torsions:
REMARK  status: ('A' for Active; 'I' for Inactive)
REMARK    1  A    between atoms: C5_5  and  C6_6 
REMARK    2  A    between atoms: C6_6  and  C7_7 
REMARK    3  A    between atoms: C8_10  and  C9_11 
REMARK    4  A    between atoms: C9_11  and  C10_12 
REMARK    5  A    between atoms: C13_15  and  C14_16 
REMARK    6  A    between atoms: C14_16  and  C15_17 
REMARK    7  A    between atoms: C15_17  and  O1_18 
ROOT
HETATM    1  C7  UNL     1     -20.681 -31.879  20.670  1.00  0.00     0.041 A 
HETATM    2  N1  UNL     1     -19.946 -32.667  21.444  1.00  0.00    -0.355 N 
ATOM      3  H1  UNL     1     -19.946 -32.628  22.463  1.00  0.00     0.166 HD
HETATM    4  C8  UNL     1     -19.207 -33.517  20.728  1.00  0.00     0.040 A 
HETATM    5  C21 UNL     1     -19.522 -33.219  19.385  1.00  0.00    -0.027 A 
HETATM    6  C22 UNL     1     -18.921 -33.932  18.249  1.00  0.00     0.051 C 
HETATM    7  C23 UNL     1     -20.443 -32.195  19.349  1.00  0.00    -0.027 A 
HETATM    8  C24 UNL     1     -21.024 -31.595  18.123  1.00  0.00     0.051 C 
ENDROOT
BRANCH   4   9
HETATM    9  C9  UNL     1     -18.246 -34.481  21.179  1.00  0.00     0.042 C 
BRANCH   9  10
HETATM   10  C10 UNL     1     -17.234 -34.477  21.997  1.00  0.00    -0.018 A 
HETATM   11  C11 UNL     1     -17.300 -34.682  23.359  1.00  0.00    -0.044 A 
HETATM   12  C12 UNL     1     -18.579 -34.960  24.013  1.00  0.00     0.049 C 
HETATM   13  C13 UNL     1     -16.191 -34.654  24.207  1.00  0.00    -0.043 A 
HETATM   14  C16 UNL     1     -14.982 -34.407  23.617  1.00  0.00    -0.054 A 
HETATM   15  C17 UNL     1     -13.753 -34.367  24.492  1.00  0.00     0.049 C 
HETATM   16  C18 UNL     1     -14.863 -34.199  22.278  1.00  0.00     0.018 A 
HETATM   17  C19 UNL     1     -15.964 -34.224  21.426  1.00  0.00    -0.034 A 
HETATM   18  C20 UNL     1     -15.762 -34.014  20.137  1.00  0.00     0.024 C 
BRANCH  13  19
HETATM   19  C14 UNL     1     -16.312 -34.863  25.636  1.00  0.00     0.065 C 
BRANCH  19  20
HETATM   20  C15 UNL     1     -16.221 -36.336  25.969  1.00  0.00     0.168 C 
BRANCH  20  21
HETATM   21  O1  UNL     1     -17.049 -36.710  27.011  1.00  0.00    -0.401 OA
ATOM     22  H1  UNL     1     -16.632 -37.303  27.625  1.00  0.00     0.209 HD
ENDBRANCH  20  21
ENDBRANCH  19  20
ENDBRANCH  13  19
ENDBRANCH   9  10
ENDBRANCH   4   9
BRANCH   1  23
HETATM   23  C6  UNL     1     -21.602 -30.834  21.127  1.00  0.00     0.059 C 
BRANCH  23  24
HETATM   24  C5  UNL     1     -22.608 -31.091  21.935  1.00  0.00     0.034 A 
HETATM   25  C4  UNL     1     -23.348 -32.250  21.933  1.00  0.00     0.032 A 
HETATM   26  C3  UNL     1     -24.301 -32.131  22.921  1.00  0.00     0.031 A 
HETATM   27  C2  UNL     1     -24.153 -30.907  23.531  1.00  0.00     0.023 A 
HETATM   28  C1  UNL     1     -24.875 -30.419  24.525  1.00  0.00     0.043 C 
HETATM   29  N2  UNL     1     -23.125 -30.314  22.909  1.00  0.00    -0.357 N 
ATOM     30  H2  UNL     1     -22.775 -29.385  23.144  1.00  0.00     0.166 HD
ENDBRANCH  23  24
ENDBRANCH   1  23
TORSDOF 7
ENDMDL
MODEL 4
REMARK VINA RESULT: -8.499528840      1.469      2.447
REMARK  7 active torsions:
REMARK  status: ('A' for Active; 'I' for Inactive)
REMARK    1  A    between atoms: C5_5  and  C6_6 
REMARK    2  A    between atoms: C6_6  and  C7_7 
REMARK    3  A    between atoms: C8_10  and  C9_11 
REMARK    4  A    between atoms: C9_11  and  C10_12 
REMARK    5  A    between atoms: C13_15  and  C14_16 
REMARK    6  A    between atoms: C14_16  and  C15_17 
REMARK    7  A    between atoms: C15_17  and  O1_18 
ROOT
HETATM    1  C7  UNL     1     -21.713 -34.137  21.000  1.00  0.00     0.041 A 
HETATM    2  N1  UNL     1     -21.049 -34.926  21.834  1.00  0.00    -0.355 N 
ATOM      3  H1  UNL     1     -21.449 -35.327  22.682  1.00  0.00     0.166 HD
HETATM    4  C8  UNL     1     -19.794 -35.133  21.429  1.00  0.00     0.040 A 
HETATM    5  C21 UNL     1     -19.681 -34.397  20.230  1.00  0.00    -0.027 A 
HETATM    6  C22 UNL     1     -18.443 -34.347  19.440  1.00  0.00     0.051 C 
HETATM    7  C23 UNL     1     -20.881 -33.774  19.962  1.00  0.00    -0.027 A 
HETATM    8  C24 UNL     1     -21.165 -32.908  18.792  1.00  0.00     0.051 C 
ENDROOT
BRANCH   4   9
HETATM    9  C9  UNL     1     -18.746 -35.869  22.073  1.00  0.00     0.042 C 
BRANCH   9  10
HETATM   10  C10 UNL     1     -18.130 -35.807  23.217  1.00  0.00    -0.018 A 
HETATM   11  C11 UNL     1     -17.155 -34.892  23.559  1.00  0.00    -0.044 A 
HETATM   12  C12 UNL     1     -16.743 -33.852  22.615  1.00  0.00     0.049 C 
HETATM   13  C13 UNL     1     -16.505 -34.869  24.794  1.00  0.00    -0.043 A 
HETATM   14  C16 UNL     1     -16.882 -35.825  25.696  1.00  0.00    -0.054 A 
HETATM   15  C17 UNL     1     -16.207 -35.840  27.046  1.00  0.00     0.049 C 
HETATM   16  C18 UNL     1     -17.838 -36.749  25.410  1.00  0.00     0.018 A 
HETATM   17  C19 UNL     1     -18.490 -36.780  24.180  1.00  0.00    -0.034 A 
HETATM   18  C20 UNL     1     -19.408 -37.710  23.982  1.00  0.00     0.024 C 
BRANCH  13  19
HETATM   19  C14 UNL     1     -15.478 -33.894  25.101  1.00  0.00     0.065 C 
BRANCH  19  20
HETATM   20  C15 UNL     1     -14.106 -34.442  24.773  1.00  0.00     0.168 C 
BRANCH  20  21
HETATM   21  O1  UNL     1     -13.185 -34.242  25.784  1.00  0.00    -0.401 OA
ATOM     22  H1  UNL     1     -13.162 -34.952  26.414  1.00  0.00     0.209 HD
ENDBRANCH  20  21
ENDBRANCH  19  20
ENDBRANCH  13  19
ENDBRANCH   9  10
ENDBRANCH   4   9
BRANCH   1  23
HETATM   23  C6  UNL     1     -23.107 -33.706  21.143  1.00  0.00     0.059 C 
BRANCH  23  24
HETATM   24  C5  UNL     1     -23.455 -32.709  21.929  1.00  0.00     0.034 A 
HETATM   25  C4  UNL     1     -23.232 -31.379  21.665  1.00  0.00     0.032 A 
HETATM   26  C3  UNL     1     -23.740 -30.659  22.723  1.00  0.00     0.031 A 
HETATM   27  C2  UNL     1     -24.275 -31.537  23.638  1.00  0.00     0.023 A 
HETATM   28  C1  UNL     1     -24.857 -31.237  24.786  1.00  0.00     0.043 C 
HETATM   29  N2  UNL     1     -24.083 -32.759  23.122  1.00  0.00    -0.357 N 
ATOM     30  H2  UNL     1     -24.377 -33.623  23.577  1.00  0.00     0.166 HD
ENDBRANCH  23  24
ENDBRANCH   1  23
TORSDOF 7
ENDMDL
MODEL 5
REMARK VINA RESULT: -8.458294074      2.115      2.987
REMARK  7 active torsions:
REMARK  status: ('A' for Active; 'I' for Inactive)
REMARK    1  A    between atoms: C5_5  and  C6_6 
REMARK    2  A    between atoms: C6_6  and  C7_7 
REMARK    3  A    between atoms: C8_10  and  C9_11 
REMARK    4  A    between atoms: C9_11  and  C10_12 
REMARK    5  A    between atoms: C13_15  and  C14_16 
REMARK    6  A    between atoms: C14_16  and  C15_17 
REMARK    7  A    between atoms: C15_17  and  O1_18 
ROOT
HETATM    1  C7  UNL     1     -19.806 -33.373  21.100  1.00  0.00     0.041 A 
HETATM    2  N1  UNL     1     -18.961 -33.680  22.074  1.00  0.00    -0.355 N 
ATOM      3  H1  UNL     1     -18.652 -33.022  22.791  1.00  0.00     0.166 HD
HETATM    4  C8  UNL     1     -18.562 -34.952  22.004  1.00  0.00     0.040 A 
HETATM    5  C21 UNL     1     -19.230 -35.472  20.876  1.00  0.00    -0.027 A 
HETATM    6  C22 UNL     1     -19.073 -36.863  20.429  1.00  0.00     0.051 C 
HETATM    7  C23 UNL     1     -20.007 -34.485  20.310  1.00  0.00    -0.027 A 
HETATM    8  C24 UNL     1     -20.861 -34.637  19.107  1.00  0.00     0.051 C 
ENDROOT
BRANCH   4   9
HETATM    9  C9  UNL     1     -17.616 -35.649  22.826  1.00  0.00     0.042 C 
BRANCH   9  10
HETATM   10  C10 UNL     1     -16.845 -35.342  23.827  1.00  0.00    -0.018 A 
HETATM   11  C11 UNL     1     -15.595 -34.767  23.734  1.00  0.00    -0.044 A 
HETATM   12  C12 UNL     1     -15.028 -34.418  22.430  1.00  0.00     0.049 C 
HETATM   13  C13 UNL     1     -14.789 -34.467  24.834  1.00  0.00    -0.043 A 
HETATM   14  C16 UNL     1     -15.302 -34.775  26.064  1.00  0.00    -0.054 A 
HETATM   15  C17 UNL     1     -14.468 -34.469  27.284  1.00  0.00     0.049 C 
HETATM   16  C18 UNL     1     -16.530 -35.342  26.211  1.00  0.00     0.018 A 
HETATM   17  C19 UNL     1     -17.339 -35.645  25.119  1.00  0.00    -0.034 A 
HETATM   18  C20 UNL     1     -18.519 -36.194  25.348  1.00  0.00     0.024 C 
BRANCH  13  19
HETATM   19  C14 UNL     1     -13.476 -33.873  24.683  1.00  0.00     0.065 C 
BRANCH  19  20
HETATM   20  C15 UNL     1     -12.420 -34.946  24.530  1.00  0.00     0.168 C 
BRANCH  20  21
HETATM   21  O1  UNL     1     -11.504 -34.668  23.533  1.00  0.00    -0.401 OA
ATOM     22  H1  UNL     1     -10.707 -34.267  23.858  1.00  0.00     0.209 HD
ENDBRANCH  20  21
ENDBRANCH  19  20
ENDBRANCH  13  19
ENDBRANCH   9  10
ENDBRANCH   4   9
BRANCH   1  23
HETATM   23  C6  UNL     1     -20.434 -32.066  20.879  1.00  0.00     0.059 C 
BRANCH  23  24
HETATM   24  C5  UNL     1     -21.586 -31.742  21.426  1.00  0.00     0.034 A 
HETATM   25  C4  UNL     1     -22.173 -30.501  21.360  1.00  0.00     0.032 A 
HETATM   26  C3  UNL     1     -23.360 -30.569  22.054  1.00  0.00     0.031 A 
HETATM   27  C2  UNL     1     -23.510 -31.844  22.548  1.00  0.00     0.023 A 
HETATM   28  C1  UNL     1     -24.518 -32.308  23.267  1.00  0.00     0.043 C 
HETATM   29  N2  UNL     1     -22.422 -32.517  22.148  1.00  0.00    -0.357 N 
ATOM     30  H2  UNL     1     -22.247 -33.498  22.364  1.00  0.00     0.166 HD
ENDBRANCH  23  24
ENDBRANCH   1  23
TORSDOF 7
ENDMDL
