MODEL 1
REMARK VINA RESULT: -8.114040502      0.000      0.000
REMARK  6 active torsions:
REMARK  status: ('A' for Active; 'I' for Inactive)
REMARK    1  A    between atoms: C2_2  and  C3_3 
REMARK    2  A    between atoms: C3_3  and  C4_4 
REMARK    3  A    between atoms: C9_9  and  C10_10 
REMARK    4  A    between atoms: C11_13  and  C12_14 
REMARK    5  A    between atoms: C13_17  and  C14_18 
REMARK    6  A    between atoms: C14_18  and  C15_19 
ROOT
HETATM    1  C10 UNL     1     -17.288 -34.033  21.793  1.00  0.00     0.109 A 
HETATM    2  N1  UNL     1     -18.101 -33.324  21.013  1.00  0.00    -0.325 N 
ATOM      3  H1  UNL     1     -17.952 -32.723  20.203  1.00  0.00     0.169 HD
HETATM    4  C11 UNL     1     -19.194 -33.701  21.697  1.00  0.00     0.153 A 
HETATM    5  N6  UNL     1     -18.395 -34.418  22.490  1.00  0.00    -0.325 N 
ATOM      6  H6  UNL     1     -18.551 -35.017  23.301  1.00  0.00     0.169 HD
ENDROOT
BRANCH   4   7
HETATM    7  C12 UNL     1     -20.481 -33.420  21.561  1.00  0.00     0.153 A 
HETATM    8  N2  UNL     1     -21.129 -32.162  21.650  1.00  0.00    -0.341 N 
HETATM    9  C13 UNL     1     -22.414 -32.340  21.451  1.00  0.00     0.039 A 
ATOM     10  H2  UNL     1     -20.673 -31.268  21.838  1.00  0.00     0.167 HD
HETATM   11  C18 UNL     1     -22.661 -33.759  21.218  1.00  0.00     0.032 A 
HETATM   12  C19 UNL     1     -23.989 -34.416  20.960  1.00  0.00     0.070 C 
HETATM   13  N5  UNL     1     -21.521 -34.355  21.289  1.00  0.00    -0.337 N 
HETATM   14  C20 UNL     1     -21.287 -35.778  21.114  1.00  0.00     0.158 C 
BRANCH   9  15
HETATM   15  C14 UNL     1     -23.391 -31.246  21.470  1.00  0.00     0.117 C 
BRANCH  15  16
HETATM   16  C15 UNL     1     -23.937 -31.058  22.818  1.00  0.00     0.031 A 
HETATM   17  C16 UNL     1     -23.695 -29.898  23.563  1.00  0.00     0.114 A 
HETATM   18  N3  UNL     1     -24.306 -30.007  24.749  1.00  0.00    -0.360 N 
HETATM   19  C17 UNL     1     -24.913 -31.199  24.747  1.00  0.00     0.180 A 
ATOM     20  H3  UNL     1     -24.309 -29.320  25.502  1.00  0.00     0.166 HD
HETATM   21  N4  UNL     1     -24.689 -31.821  23.591  1.00  0.00    -0.354 N 
ATOM     22  H4  UNL     1     -25.043 -32.744  23.341  1.00  0.00     0.166 HD
ENDBRANCH  15  16
ENDBRANCH   9  15
ENDBRANCH   4   7
BRANCH   1  23
HETATM   23  C9  UNL     1     -16.002 -34.310  21.927  1.00  0.00     0.060 C 
HETATM   24  C8  UNL     1     -15.269 -34.336  23.165  1.00  0.00    -0.032 A 
HETATM   25  C7  UNL     1     -15.709 -34.084  24.505  1.00  0.00     0.012 A 
HETATM   26  C21 UNL     1     -13.961 -34.626  23.219  1.00  0.00     0.022 A 
HETATM   27  C6  UNL     1     -14.686 -34.217  25.368  1.00  0.00     0.012 A 
HETATM   28  C5  UNL     1     -13.506 -34.573  24.595  1.00  0.00    -0.039 A 
HETATM   29  C4  UNL     1     -12.320 -34.784  25.104  1.00  0.00    -0.015 C 
BRANCH  29  30
HETATM   30  C3  UNL     1     -11.138 -35.145  24.275  1.00  0.00     0.027 C 
BRANCH  30  31
HETATM   31  C2  UNL     1     -10.911 -36.644  24.362  1.00  0.00    -0.001 C 
HETATM   32  C1  UNL     1     -10.004 -37.091  23.242  1.00  0.00     0.005 C 
ENDBRANCH  30  31
ENDBRANCH  29  30
ENDBRANCH   1  23
TORSDOF 6
ENDMDL
MODEL 2
REMARK VINA RESULT: -8.101591320      1.415      2.032
REMARK  6 active torsions:
REMARK  status: ('A' for Active; 'I' for Inactive)
REMARK    1  A    between atoms: C2_2  and  C3_3 
REMARK    2  A    between atoms: C3_3  and  C4_4 
REMARK    3  A    between atoms: C9_9  and  C10_10 
REMARK    4  A    between atoms: C11_13  and  C12_14 
REMARK    5  A    between atoms: C13_17  and  C14_18 
REMARK    6  A    between atoms: C14_18  and  C15_19 
ROOT
HETATM    1  C10 UNL     1     -17.836 -35.720  22.827  1.00  0.00     0.109 A 
HETATM    2  N1  UNL     1     -18.654 -34.804  23.340  1.00  0.00    -0.325 N 
ATOM      3  H1  UNL     1     -18.714 -34.343  24.247  1.00  0.00     0.169 HD
HETATM    4  C11 UNL     1     -19.373 -34.718  22.209  1.00  0.00     0.153 A 
HETATM    5  N6  UNL     1     -18.563 -35.637  21.677  1.00  0.00    -0.325 N 
ATOM      6  H6  UNL     1     -18.510 -36.096  20.768  1.00  0.00     0.169 HD
ENDROOT
BRANCH   4   7
HETATM    7  C12 UNL     1     -20.428 -33.995  21.867  1.00  0.00     0.153 A 
HETATM    8  N2  UNL     1     -21.780 -34.155  22.264  1.00  0.00    -0.341 N 
HETATM    9  C13 UNL     1     -22.497 -33.217  21.688  1.00  0.00     0.039 A 
ATOM     10  H2  UNL     1     -22.136 -34.877  22.891  1.00  0.00     0.167 HD
HETATM   11  C18 UNL     1     -21.618 -32.388  20.871  1.00  0.00     0.032 A 
HETATM   12  C19 UNL     1     -22.013 -31.208  20.026  1.00  0.00     0.070 C 
HETATM   13  N5  UNL     1     -20.428 -32.866  20.998  1.00  0.00    -0.337 N 
HETATM   14  C20 UNL     1     -19.226 -32.349  20.365  1.00  0.00     0.158 C 
BRANCH   9  15
HETATM   15  C14 UNL     1     -23.945 -33.081  21.879  1.00  0.00     0.117 C 
BRANCH  15  16
HETATM   16  C15 UNL     1     -24.244 -32.079  22.906  1.00  0.00     0.031 A 
HETATM   17  C16 UNL     1     -24.992 -32.385  24.049  1.00  0.00     0.114 A 
HETATM   18  N3  UNL     1     -25.111 -31.283  24.799  1.00  0.00    -0.360 N 
HETATM   19  C17 UNL     1     -24.458 -30.316  24.147  1.00  0.00     0.180 A 
ATOM     20  H3  UNL     1     -25.602 -31.198  25.689  1.00  0.00     0.166 HD
HETATM   21  N4  UNL     1     -23.942 -30.797  23.018  1.00  0.00    -0.354 N 
ATOM     22  H4  UNL     1     -23.398 -30.259  22.343  1.00  0.00     0.166 HD
ENDBRANCH  15  16
ENDBRANCH   9  15
ENDBRANCH   4   7
BRANCH   1  23
HETATM   23  C9  UNL     1     -16.783 -36.443  23.172  1.00  0.00     0.060 C 
HETATM   24  C8  UNL     1     -15.504 -35.928  23.585  1.00  0.00    -0.032 A 
HETATM   25  C7  UNL     1     -15.054 -34.575  23.725  1.00  0.00     0.012 A 
HETATM   26  C21 UNL     1     -14.482 -36.729  23.919  1.00  0.00     0.022 A 
HETATM   27  C6  UNL     1     -13.775 -34.547  24.139  1.00  0.00     0.012 A 
HETATM   28  C5  UNL     1     -13.333 -35.925  24.289  1.00  0.00    -0.039 A 
HETATM   29  C4  UNL     1     -12.137 -36.284  24.678  1.00  0.00    -0.015 C 
BRANCH  29  30
HETATM   30  C3  UNL     1     -11.726 -37.707  24.816  1.00  0.00     0.027 C 
BRANCH  30  31
HETATM   31  C2  UNL     1     -11.039 -38.152  23.537  1.00  0.00    -0.001 C 
HETATM   32  C1  UNL     1      -9.952 -37.171  23.170  1.00  0.00     0.005 C 
ENDBRANCH  30  31
ENDBRANCH  29  30
ENDBRANCH   1  23
TORSDOF 6
ENDMDL
MODEL 3
REMARK VINA RESULT: -7.988218879      1.650      2.276
REMARK  6 active torsions:
REMARK  status: ('A' for Active; 'I' for Inactive)
REMARK    1  A    between atoms: C2_2  and  C3_3 
REMARK    2  A    between atoms: C3_3  and  C4_4 
REMARK    3  A    between atoms: C9_9  and  C10_10 
REMARK    4  A    between atoms: C11_13  and  C12_14 
REMARK    5  A    between atoms: C13_17  and  C14_18 
REMARK    6  A    between atoms: C14_18  and  C15_19 
ROOT
HETATM    1  C10 UNL     1     -17.845 -35.706  22.885  1.00  0.00     0.109 A 
HETATM    2  N1  UNL     1     -18.654 -34.771  23.376  1.00  0.00    -0.325 N 
ATOM      3  H1  UNL     1     -18.708 -34.288  24.273  1.00  0.00     0.169 HD
HETATM    4  C11 UNL     1     -19.373 -34.704  22.244  1.00  0.00     0.153 A 
HETATM    5  N6  UNL     1     -18.573 -35.642  21.734  1.00  0.00    -0.325 N 
ATOM      6  H6  UNL     1     -18.524 -36.123  20.835  1.00  0.00     0.169 HD
ENDROOT
BRANCH   4   7
HETATM    7  C12 UNL     1     -20.422 -33.979  21.886  1.00  0.00     0.153 A 
HETATM    8  N2  UNL     1     -21.777 -34.128  22.274  1.00  0.00    -0.341 N 
HETATM    9  C13 UNL     1     -22.485 -33.192  21.683  1.00  0.00     0.039 A 
ATOM     10  H2  UNL     1     -22.142 -34.841  22.905  1.00  0.00     0.167 HD
HETATM   11  C18 UNL     1     -21.594 -32.376  20.865  1.00  0.00     0.032 A 
HETATM   12  C19 UNL     1     -21.976 -31.203  20.005  1.00  0.00     0.070 C 
HETATM   13  N5  UNL     1     -20.408 -32.859  21.006  1.00  0.00    -0.337 N 
HETATM   14  C20 UNL     1     -19.199 -32.354  20.378  1.00  0.00     0.158 C 
BRANCH   9  15
HETATM   15  C14 UNL     1     -23.934 -33.046  21.860  1.00  0.00     0.117 C 
BRANCH  15  16
HETATM   16  C15 UNL     1     -24.235 -32.055  22.898  1.00  0.00     0.031 A 
HETATM   17  C16 UNL     1     -24.990 -32.372  24.032  1.00  0.00     0.114 A 
HETATM   18  N3  UNL     1     -25.110 -31.278  24.795  1.00  0.00    -0.360 N 
HETATM   19  C17 UNL     1     -24.450 -30.306  24.157  1.00  0.00     0.180 A 
ATOM     20  H3  UNL     1     -25.605 -31.202  25.683  1.00  0.00     0.166 HD
HETATM   21  N4  UNL     1     -23.930 -30.775  23.026  1.00  0.00    -0.354 N 
ATOM     22  H4  UNL     1     -23.381 -30.232  22.360  1.00  0.00     0.166 HD
ENDBRANCH  15  16
ENDBRANCH   9  15
ENDBRANCH   4   7
BRANCH   1  23
HETATM   23  C9  UNL     1     -16.799 -36.431  23.246  1.00  0.00     0.060 C 
HETATM   24  C8  UNL     1     -15.511 -35.919  23.633  1.00  0.00    -0.032 A 
HETATM   25  C7  UNL     1     -15.043 -34.569  23.727  1.00  0.00     0.012 A 
HETATM   26  C21 UNL     1     -14.497 -36.723  23.986  1.00  0.00     0.022 A 
HETATM   27  C6  UNL     1     -13.761 -34.543  24.132  1.00  0.00     0.012 A 
HETATM   28  C5  UNL     1     -13.335 -35.922  24.322  1.00  0.00    -0.039 A 
HETATM   29  C4  UNL     1     -12.141 -36.283  24.715  1.00  0.00    -0.015 C 
BRANCH  29  30
HETATM   30  C3  UNL     1     -11.747 -37.706  24.896  1.00  0.00     0.027 C 
BRANCH  30  31
HETATM   31  C2  UNL     1     -11.747 -38.036  26.379  1.00  0.00    -0.001 C 
HETATM   32  C1  UNL     1     -13.003 -38.793  26.737  1.00  0.00     0.005 C 
ENDBRANCH  30  31
ENDBRANCH  29  30
ENDBRANCH   1  23
TORSDOF 6
ENDMDL
MODEL 4
REMARK VINA RESULT: -7.949608784      1.631      2.175
REMARK  6 active torsions:
REMARK  status: ('A' for Active; 'I' for Inactive)
REMARK    1  A    between atoms: C2_2  and  C3_3 
REMARK    2  A    between atoms: C3_3  and  C4_4 
REMARK    3  A    between atoms: C9_9  and  C10_10 
REMARK    4  A    between atoms: C11_13  and  C12_14 
REMARK    5  A    between atoms: C13_17  and  C14_18 
REMARK    6  A    between atoms: C14_18  and  C15_19 
ROOT
HETATM    1  C10 UNL     1     -17.871 -35.512  22.694  1.00  0.00     0.109 A 
HETATM    2  N1  UNL     1     -18.743 -34.693  23.277  1.00  0.00    -0.325 N 
ATOM      3  H1  UNL     1     -18.842 -34.329  24.225  1.00  0.00     0.169 HD
HETATM    4  C11 UNL     1     -19.444 -34.525  22.144  1.00  0.00     0.153 A 
HETATM    5  N6  UNL     1     -18.580 -35.345  21.542  1.00  0.00    -0.325 N 
ATOM      6  H6  UNL     1     -18.487 -35.706  20.592  1.00  0.00     0.169 HD
ENDROOT
BRANCH   4   7
HETATM    7  C12 UNL     1     -20.527 -33.821  21.852  1.00  0.00     0.153 A 
HETATM    8  N2  UNL     1     -21.854 -34.002  22.315  1.00  0.00    -0.341 N 
HETATM    9  C13 UNL     1     -22.614 -33.079  21.772  1.00  0.00     0.039 A 
ATOM     10  H2  UNL     1     -22.167 -34.727  22.962  1.00  0.00     0.167 HD
HETATM   11  C18 UNL     1     -21.790 -32.239  20.910  1.00  0.00     0.032 A 
HETATM   12  C19 UNL     1     -22.246 -31.070  20.081  1.00  0.00     0.070 C 
HETATM   13  N5  UNL     1     -20.588 -32.696  20.980  1.00  0.00    -0.337 N 
HETATM   14  C20 UNL     1     -19.428 -32.162  20.286  1.00  0.00     0.158 C 
BRANCH   9  15
HETATM   15  C14 UNL     1     -24.054 -32.966  22.034  1.00  0.00     0.117 C 
BRANCH  15  16
HETATM   16  C15 UNL     1     -24.316 -31.980  23.086  1.00  0.00     0.031 A 
HETATM   17  C16 UNL     1     -24.929 -32.329  24.295  1.00  0.00     0.114 A 
HETATM   18  N3  UNL     1     -25.047 -31.233  25.055  1.00  0.00    -0.360 N 
HETATM   19  C17 UNL     1     -24.525 -30.228  24.344  1.00  0.00     0.180 A 
ATOM     20  H3  UNL     1     -25.453 -31.176  25.989  1.00  0.00     0.166 HD
HETATM   21  N4  UNL     1     -24.091 -30.680  23.170  1.00  0.00    -0.354 N 
ATOM     22  H4  UNL     1     -23.651 -30.112  22.446  1.00  0.00     0.166 HD
ENDBRANCH  15  16
ENDBRANCH   9  15
ENDBRANCH   4   7
BRANCH   1  23
HETATM   23  C9  UNL     1     -16.791 -36.216  22.990  1.00  0.00     0.060 C 
HETATM   24  C8  UNL     1     -16.003 -36.090  24.187  1.00  0.00    -0.032 A 
HETATM   25  C7  UNL     1     -16.166 -35.221  25.314  1.00  0.00     0.012 A 
HETATM   26  C21 UNL     1     -14.917 -36.843  24.413  1.00  0.00     0.022 A 
HETATM   27  C6  UNL     1     -15.194 -35.437  26.218  1.00  0.00     0.012 A 
HETATM   28  C5  UNL     1     -14.336 -36.489  25.695  1.00  0.00    -0.039 A 
HETATM   29  C4  UNL     1     -13.283 -36.963  26.309  1.00  0.00    -0.015 C 
BRANCH  29  30
HETATM   30  C3  UNL     1     -12.432 -38.040  25.735  1.00  0.00     0.027 C 
BRANCH  30  31
HETATM   31  C2  UNL     1     -11.011 -37.524  25.588  1.00  0.00    -0.001 C 
HETATM   32  C1  UNL     1     -10.945 -36.513  24.470  1.00  0.00     0.005 C 
ENDBRANCH  30  31
ENDBRANCH  29  30
ENDBRANCH   1  23
TORSDOF 6
ENDMDL
MODEL 5
REMARK VINA RESULT: -7.897559194      4.564     10.243
REMARK  6 active torsions:
REMARK  status: ('A' for Active; 'I' for Inactive)
REMARK    1  A    between atoms: C2_2  and  C3_3 
REMARK    2  A    between atoms: C3_3  and  C4_4 
REMARK    3  A    between atoms: C9_9  and  C10_10 
REMARK    4  A    between atoms: C11_13  and  C12_14 
REMARK    5  A    between atoms: C13_17  and  C14_18 
REMARK    6  A    between atoms: C14_18  and  C15_19 
ROOT
HETATM    1  C10 UNL     1     -16.348 -33.689  19.247  1.00  0.00     0.109 A 
HETATM    2  N1  UNL     1     -16.081 -34.758  19.993  1.00  0.00    -0.325 N 
ATOM      3  H1  UNL     1     -16.072 -35.762  19.808  1.00  0.00     0.169 HD
HETATM    4  C11 UNL     1     -15.829 -34.016  21.084  1.00  0.00     0.153 A 
HETATM    5  N6  UNL     1     -16.093 -32.932  20.352  1.00  0.00    -0.325 N 
ATOM      6  H6  UNL     1     -16.101 -31.930  20.543  1.00  0.00     0.169 HD
ENDROOT
BRANCH   4   7
HETATM    7  C12 UNL     1     -15.475 -34.328  22.321  1.00  0.00     0.153 A 
HETATM    8  N2  UNL     1     -14.175 -34.381  22.886  1.00  0.00    -0.341 N 
HETATM    9  C13 UNL     1     -14.283 -34.735  24.146  1.00  0.00     0.039 A 
ATOM     10  H2  UNL     1     -13.304 -34.179  22.395  1.00  0.00     0.167 HD
HETATM   11  C18 UNL     1     -15.694 -34.931  24.460  1.00  0.00     0.032 A 
HETATM   12  C19 UNL     1     -16.277 -35.353  25.781  1.00  0.00     0.070 C 
HETATM   13  N5  UNL     1     -16.355 -34.687  23.382  1.00  0.00    -0.337 N 
HETATM   14  C20 UNL     1     -17.799 -34.751  23.231  1.00  0.00     0.158 C 
BRANCH   9  15
HETATM   15  C14 UNL     1     -13.130 -34.888  25.040  1.00  0.00     0.117 C 
BRANCH  15  16
HETATM   16  C15 UNL     1     -12.152 -35.824  24.474  1.00  0.00     0.031 A 
HETATM   17  C16 UNL     1     -12.440 -37.181  24.295  1.00  0.00     0.114 A 
HETATM   18  N3  UNL     1     -11.368 -37.789  23.773  1.00  0.00    -0.360 N 
HETATM   19  C17 UNL     1     -10.436 -36.840  23.629  1.00  0.00     0.180 A 
ATOM     20  H3  UNL     1     -11.279 -38.776  23.532  1.00  0.00     0.166 HD
HETATM   21  N4  UNL     1     -10.910 -35.670  24.050  1.00  0.00    -0.354 N 
ATOM     22  H4  UNL     1     -10.395 -34.789  24.045  1.00  0.00     0.166 HD
ENDBRANCH  15  16
ENDBRANCH   9  15
ENDBRANCH   4   7
BRANCH   1  23
HETATM   23  C9  UNL     1     -16.703 -33.382  18.011  1.00  0.00     0.060 C 
HETATM   24  C8  UNL     1     -18.038 -33.080  17.567  1.00  0.00    -0.032 A 
HETATM   25  C7  UNL     1     -19.268 -33.032  18.300  1.00  0.00     0.012 A 
HETATM   26  C21 UNL     1     -18.319 -32.777  16.291  1.00  0.00     0.022 A 
HETATM   27  C6  UNL     1     -20.288 -32.706  17.487  1.00  0.00     0.012 A 
HETATM   28  C5  UNL     1     -19.740 -32.522  16.152  1.00  0.00    -0.039 A 
HETATM   29  C4  UNL     1     -20.444 -32.197  15.098  1.00  0.00    -0.015 C 
BRANCH  29  30
HETATM   30  C3  UNL     1     -19.842 -32.020  13.749  1.00  0.00     0.027 C 
BRANCH  30  31
HETATM   31  C2  UNL     1     -20.727 -32.701  12.718  1.00  0.00    -0.001 C 
HETATM   32  C1  UNL     1     -22.100 -32.073  12.726  1.00  0.00     0.005 C 
ENDBRANCH  30  31
ENDBRANCH  29  30
ENDBRANCH   1  23
TORSDOF 6
ENDMDL
