MODEL 1
REMARK VINA RESULT: -6.880698863      0.000      0.000
REMARK  6 active torsions:
REMARK  status: ('A' for Active; 'I' for Inactive)
REMARK    1  A    between atoms: C2_2  and  C3_3 
REMARK    2  A    between atoms: C3_3  and  C4_4 
REMARK    3  A    between atoms: C5_5  and  C6_6 
REMARK       I    between atoms: N2_13  and  C12_15 
REMARK       I    between atoms: C12_15  and  N4_19 
REMARK    4  A    between atoms: N4_19  and  C13_21 
REMARK    5  A    between atoms: C13_21  and  C14_22 
REMARK    6  A    between atoms: C14_22  and  N5_23 
ROOT
HETATM    1  C6  UNL     1     -17.841 -36.142  25.814  1.00  0.00     0.090 C 
HETATM    2  C7  UNL     1     -18.107 -36.488  24.556  1.00  0.00     0.036 C 
HETATM    3  C8  UNL     1     -17.084 -36.372  23.493  1.00  0.00     0.078 C 
HETATM    4  C9  UNL     1     -17.765 -35.857  22.218  1.00  0.00     0.146 C 
HETATM    5  N1  UNL     1     -18.765 -36.900  21.884  1.00  0.00    -0.221 N 
HETATM    6  C10 UNL     1     -18.740 -37.607  20.634  1.00  0.00     0.168 C 
HETATM    7  C11 UNL     1     -19.744 -37.192  22.854  1.00  0.00     0.694 C 
HETATM    8  N2  UNL     1     -20.876 -37.600  22.606  1.00  0.00    -0.023 N 
ATOM      9  H2  UNL     1     -21.408 -37.744  23.464  1.00  0.00     0.203 HD
HETATM   10  C12 UNL     1     -21.634 -37.921  21.497  1.00  0.00     0.686 C 
HETATM   11  N3  UNL     1     -21.695 -39.131  21.063  1.00  0.00    -0.234 N 
ATOM     12  H31 UNL     1     -22.255 -39.369  20.244  1.00  0.00     0.174 HD
ATOM     13  H32 UNL     1     -21.159 -39.847  21.553  1.00  0.00     0.174 HD
HETATM   14  N4  UNL     1     -22.377 -36.929  20.817  1.00  0.00    -0.224 N 
ATOM     15  H4  UNL     1     -22.498 -36.980  19.805  1.00  0.00     0.177 HD
HETATM   16  N6  UNL     1     -19.395 -36.976  24.245  1.00  0.00    -0.194 N 
ATOM     17  H6  UNL     1     -20.069 -37.173  24.985  1.00  0.00     0.184 HD
ENDROOT
BRANCH  14  18
HETATM   18  C13 UNL     1     -22.958 -35.850  21.561  1.00  0.00     0.166 C 
BRANCH  18  19
HETATM   19  C14 UNL     1     -23.225 -34.610  20.806  1.00  0.00     0.257 C 
BRANCH  19  20
HETATM   20  N5  UNL     1     -22.421 -33.479  21.015  1.00  0.00    -0.065 N 
HETATM   21  C15 UNL     1     -21.277 -33.784  21.911  1.00  0.00     0.238 C 
HETATM   22  C16 UNL     1     -20.117 -32.954  21.409  1.00  0.00     0.034 C 
HETATM   23  C17 UNL     1     -20.876 -31.934  20.586  1.00  0.00     0.015 C 
HETATM   24  C18 UNL     1     -21.861 -31.298  21.500  1.00  0.00     0.034 C 
HETATM   25  C20 UNL     1     -21.775 -32.928  19.824  1.00  0.00     0.242 C 
HETATM   26  C19 UNL     1     -23.027 -32.303  21.551  1.00  0.00     0.238 C 
ENDBRANCH  19  20
ENDBRANCH  18  19
ENDBRANCH  14  18
BRANCH   1  27
HETATM   27  C5  UNL     1     -16.565 -35.640  26.220  1.00  0.00    -0.077 C 
HETATM   28  C4  UNL     1     -15.484 -35.210  26.547  1.00  0.00    -0.102 C 
BRANCH  28  29
HETATM   29  C3  UNL     1     -14.172 -34.666  26.933  1.00  0.00     0.094 C 
BRANCH  29  30
HETATM   30  C2  UNL     1     -13.577 -34.012  25.712  1.00  0.00     0.007 C 
HETATM   31  C1  UNL     1     -13.257 -35.008  24.628  1.00  0.00     0.006 C 
ENDBRANCH  29  30
ENDBRANCH  28  29
ENDBRANCH   1  27
TORSDOF 6
ENDMDL
MODEL 2
REMARK VINA RESULT: -6.842665931      0.427      1.005
REMARK  6 active torsions:
REMARK  status: ('A' for Active; 'I' for Inactive)
REMARK    1  A    between atoms: C2_2  and  C3_3 
REMARK    2  A    between atoms: C3_3  and  C4_4 
REMARK    3  A    between atoms: C5_5  and  C6_6 
REMARK       I    between atoms: N2_13  and  C12_15 
REMARK       I    between atoms: C12_15  and  N4_19 
REMARK    4  A    between atoms: N4_19  and  C13_21 
REMARK    5  A    between atoms: C13_21  and  C14_22 
REMARK    6  A    between atoms: C14_22  and  N5_23 
ROOT
HETATM    1  C6  UNL     1     -17.899 -36.221  25.797  1.00  0.00     0.090 C 
HETATM    2  C7  UNL     1     -18.170 -36.563  24.539  1.00  0.00     0.036 C 
HETATM    3  C8  UNL     1     -17.151 -36.444  23.473  1.00  0.00     0.078 C 
HETATM    4  C9  UNL     1     -17.836 -35.926  22.201  1.00  0.00     0.146 C 
HETATM    5  N1  UNL     1     -18.837 -36.968  21.868  1.00  0.00    -0.221 N 
HETATM    6  C10 UNL     1     -18.817 -37.672  20.617  1.00  0.00     0.168 C 
HETATM    7  C11 UNL     1     -19.813 -37.262  22.841  1.00  0.00     0.694 C 
HETATM    8  N2  UNL     1     -20.946 -37.670  22.596  1.00  0.00    -0.023 N 
ATOM      9  H2  UNL     1     -21.475 -37.816  23.456  1.00  0.00     0.203 HD
HETATM   10  C12 UNL     1     -21.708 -37.988  21.489  1.00  0.00     0.686 C 
HETATM   11  N3  UNL     1     -21.771 -39.197  21.052  1.00  0.00    -0.234 N 
ATOM     12  H31 UNL     1     -22.333 -39.432  20.234  1.00  0.00     0.174 HD
ATOM     13  H32 UNL     1     -21.233 -39.914  21.539  1.00  0.00     0.174 HD
HETATM   14  N4  UNL     1     -22.453 -36.993  20.814  1.00  0.00    -0.224 N 
ATOM     15  H4  UNL     1     -22.578 -37.042  19.803  1.00  0.00     0.177 HD
HETATM   16  N6  UNL     1     -19.459 -37.050  24.231  1.00  0.00    -0.194 N 
ATOM     17  H6  UNL     1     -20.130 -37.249  24.974  1.00  0.00     0.184 HD
ENDROOT
BRANCH  14  18
HETATM   18  C13 UNL     1     -23.031 -35.916  21.563  1.00  0.00     0.166 C 
BRANCH  18  19
HETATM   19  C14 UNL     1     -23.187 -34.636  20.845  1.00  0.00     0.257 C 
BRANCH  19  20
HETATM   20  N5  UNL     1     -22.095 -33.762  20.734  1.00  0.00    -0.065 N 
HETATM   21  C15 UNL     1     -21.429 -33.889  19.414  1.00  0.00     0.238 C 
HETATM   22  C16 UNL     1     -20.962 -32.499  19.043  1.00  0.00     0.034 C 
HETATM   23  C17 UNL     1     -21.006 -31.847  20.409  1.00  0.00     0.015 C 
HETATM   24  C18 UNL     1     -20.148 -32.670  21.301  1.00  0.00     0.034 C 
HETATM   25  C20 UNL     1     -22.412 -32.336  20.813  1.00  0.00     0.242 C 
HETATM   26  C19 UNL     1     -21.051 -33.851  21.703  1.00  0.00     0.238 C 
ENDBRANCH  19  20
ENDBRANCH  18  19
ENDBRANCH  14  18
BRANCH   1  27
HETATM   27  C5  UNL     1     -16.622 -35.720  26.200  1.00  0.00    -0.077 C 
HETATM   28  C4  UNL     1     -15.541 -35.289  26.524  1.00  0.00    -0.102 C 
BRANCH  28  29
HETATM   29  C3  UNL     1     -14.229 -34.743  26.911  1.00  0.00     0.094 C 
BRANCH  29  30
HETATM   30  C2  UNL     1     -13.717 -33.933  25.748  1.00  0.00     0.007 C 
HETATM   31  C1  UNL     1     -13.341 -34.797  24.571  1.00  0.00     0.006 C 
ENDBRANCH  29  30
ENDBRANCH  28  29
ENDBRANCH   1  27
TORSDOF 6
ENDMDL
MODEL 3
REMARK VINA RESULT: -6.818485010      2.918      7.570
REMARK  6 active torsions:
REMARK  status: ('A' for Active; 'I' for Inactive)
REMARK    1  A    between atoms: C2_2  and  C3_3 
REMARK    2  A    between atoms: C3_3  and  C4_4 
REMARK    3  A    between atoms: C5_5  and  C6_6 
REMARK       I    between atoms: N2_13  and  C12_15 
REMARK       I    between atoms: C12_15  and  N4_19 
REMARK    4  A    between atoms: N4_19  and  C13_21 
REMARK    5  A    between atoms: C13_21  and  C14_22 
REMARK    6  A    between atoms: C14_22  and  N5_23 
ROOT
HETATM    1  C6  UNL     1     -16.763 -34.525  19.836  1.00  0.00     0.090 C 
HETATM    2  C7  UNL     1     -16.802 -35.612  20.604  1.00  0.00     0.036 C 
HETATM    3  C8  UNL     1     -18.076 -36.111  21.167  1.00  0.00     0.078 C 
HETATM    4  C9  UNL     1     -17.821 -36.584  22.604  1.00  0.00     0.146 C 
HETATM    5  N1  UNL     1     -16.834 -37.681  22.465  1.00  0.00    -0.221 N 
HETATM    6  C10 UNL     1     -17.108 -39.015  22.919  1.00  0.00     0.168 C 
HETATM    7  C11 UNL     1     -15.606 -37.371  21.847  1.00  0.00     0.694 C 
HETATM    8  N2  UNL     1     -14.541 -37.938  22.082  1.00  0.00    -0.023 N 
ATOM      9  H2  UNL     1     -13.787 -37.548  21.516  1.00  0.00     0.203 HD
HETATM   10  C12 UNL     1     -14.072 -38.953  22.894  1.00  0.00     0.686 C 
HETATM   11  N3  UNL     1     -13.991 -40.162  22.463  1.00  0.00    -0.234 N 
ATOM     12  H31 UNL     1     -13.645 -40.912  23.062  1.00  0.00     0.174 HD
ATOM     13  H32 UNL     1     -14.293 -40.356  21.507  1.00  0.00     0.174 HD
HETATM   14  N4  UNL     1     -13.655 -38.685  24.218  1.00  0.00    -0.224 N 
ATOM     15  H4  UNL     1     -13.801 -39.377  24.953  1.00  0.00     0.177 HD
HETATM   16  N6  UNL     1     -15.596 -36.293  20.878  1.00  0.00    -0.194 N 
ATOM     17  H6  UNL     1     -14.732 -36.031  20.402  1.00  0.00     0.184 HD
ENDROOT
BRANCH  14  18
HETATM   18  C13 UNL     1     -13.024 -37.433  24.518  1.00  0.00     0.166 C 
BRANCH  18  19
HETATM   19  C14 UNL     1     -13.499 -36.742  25.734  1.00  0.00     0.257 C 
BRANCH  19  20
HETATM   20  N5  UNL     1     -14.252 -35.564  25.617  1.00  0.00    -0.065 N 
HETATM   21  C15 UNL     1     -14.008 -34.889  24.318  1.00  0.00     0.238 C 
HETATM   22  C16 UNL     1     -15.327 -34.274  23.909  1.00  0.00     0.034 C 
HETATM   23  C17 UNL     1     -16.031 -34.276  25.251  1.00  0.00     0.015 C 
HETATM   24  C18 UNL     1     -15.158 -33.525  26.191  1.00  0.00     0.034 C 
HETATM   25  C20 UNL     1     -15.705 -35.732  25.639  1.00  0.00     0.242 C 
HETATM   26  C19 UNL     1     -14.092 -34.553  26.613  1.00  0.00     0.238 C 
ENDBRANCH  19  20
ENDBRANCH  18  19
ENDBRANCH  14  18
BRANCH   1  27
HETATM   27  C5  UNL     1     -17.934 -33.774  19.506  1.00  0.00    -0.077 C 
HETATM   28  C4  UNL     1     -18.932 -33.146  19.241  1.00  0.00    -0.102 C 
BRANCH  28  29
HETATM   29  C3  UNL     1     -20.149 -32.373  18.941  1.00  0.00     0.094 C 
BRANCH  29  30
HETATM   30  C2  UNL     1     -20.519 -31.613  20.188  1.00  0.00     0.007 C 
HETATM   31  C1  UNL     1     -20.884 -32.527  21.329  1.00  0.00     0.006 C 
ENDBRANCH  29  30
ENDBRANCH  28  29
ENDBRANCH   1  27
TORSDOF 6
ENDMDL
MODEL 4
REMARK VINA RESULT: -6.778676201      0.427      1.111
REMARK  6 active torsions:
REMARK  status: ('A' for Active; 'I' for Inactive)
REMARK    1  A    between atoms: C2_2  and  C3_3 
REMARK    2  A    between atoms: C3_3  and  C4_4 
REMARK    3  A    between atoms: C5_5  and  C6_6 
REMARK       I    between atoms: N2_13  and  C12_15 
REMARK       I    between atoms: C12_15  and  N4_19 
REMARK    4  A    between atoms: N4_19  and  C13_21 
REMARK    5  A    between atoms: C13_21  and  C14_22 
REMARK    6  A    between atoms: C14_22  and  N5_23 
ROOT
HETATM    1  C6  UNL     1     -17.898 -36.200  25.824  1.00  0.00     0.090 C 
HETATM    2  C7  UNL     1     -18.166 -36.558  24.570  1.00  0.00     0.036 C 
HETATM    3  C8  UNL     1     -17.146 -36.448  23.503  1.00  0.00     0.078 C 
HETATM    4  C9  UNL     1     -17.831 -35.947  22.225  1.00  0.00     0.146 C 
HETATM    5  N1  UNL     1     -18.828 -36.996  21.903  1.00  0.00    -0.221 N 
HETATM    6  C10 UNL     1     -18.803 -37.715  20.660  1.00  0.00     0.168 C 
HETATM    7  C11 UNL     1     -19.804 -37.282  22.877  1.00  0.00     0.694 C 
HETATM    8  N2  UNL     1     -20.936 -37.697  22.636  1.00  0.00    -0.023 N 
ATOM      9  H2  UNL     1     -21.466 -37.834  23.497  1.00  0.00     0.203 HD
HETATM   10  C12 UNL     1     -21.695 -38.030  21.531  1.00  0.00     0.686 C 
HETATM   11  N3  UNL     1     -21.753 -39.244  21.109  1.00  0.00    -0.234 N 
ATOM     12  H31 UNL     1     -22.313 -39.491  20.293  1.00  0.00     0.174 HD
ATOM     13  H32 UNL     1     -21.214 -39.954  21.604  1.00  0.00     0.174 HD
HETATM   14  N4  UNL     1     -22.442 -37.046  20.844  1.00  0.00    -0.224 N 
ATOM     15  H4  UNL     1     -22.565 -37.107  19.833  1.00  0.00     0.177 HD
HETATM   16  N6  UNL     1     -19.453 -37.052  24.266  1.00  0.00    -0.194 N 
ATOM     17  H6  UNL     1     -20.125 -37.245  25.009  1.00  0.00     0.184 HD
ENDROOT
BRANCH  14  18
HETATM   18  C13 UNL     1     -23.025 -35.962  21.580  1.00  0.00     0.166 C 
BRANCH  18  19
HETATM   19  C14 UNL     1     -23.234 -34.707  20.830  1.00  0.00     0.257 C 
BRANCH  19  20
HETATM   20  N5  UNL     1     -22.171 -33.805  20.670  1.00  0.00    -0.065 N 
HETATM   21  C15 UNL     1     -22.625 -32.400  20.815  1.00  0.00     0.238 C 
HETATM   22  C16 UNL     1     -21.492 -31.658  21.487  1.00  0.00     0.034 C 
HETATM   23  C17 UNL     1     -20.361 -32.628  21.212  1.00  0.00     0.015 C 
HETATM   24  C18 UNL     1     -20.312 -32.817  19.738  1.00  0.00     0.034 C 
HETATM   25  C20 UNL     1     -21.093 -33.911  21.653  1.00  0.00     0.242 C 
HETATM   26  C19 UNL     1     -21.422 -33.845  19.456  1.00  0.00     0.238 C 
ENDBRANCH  19  20
ENDBRANCH  18  19
ENDBRANCH  14  18
BRANCH   1  27
HETATM   27  C5  UNL     1     -16.624 -35.690  26.223  1.00  0.00    -0.077 C 
HETATM   28  C4  UNL     1     -15.541 -35.258  26.543  1.00  0.00    -0.102 C 
BRANCH  28  29
HETATM   29  C3  UNL     1     -14.225 -34.714  26.916  1.00  0.00     0.094 C 
BRANCH  29  30
HETATM   30  C2  UNL     1     -13.656 -34.032  25.699  1.00  0.00     0.007 C 
HETATM   31  C1  UNL     1     -13.389 -35.000  24.574  1.00  0.00     0.006 C 
ENDBRANCH  29  30
ENDBRANCH  28  29
ENDBRANCH   1  27
TORSDOF 6
ENDMDL
MODEL 5
REMARK VINA RESULT: -6.759049673      2.936      7.605
REMARK  6 active torsions:
REMARK  status: ('A' for Active; 'I' for Inactive)
REMARK    1  A    between atoms: C2_2  and  C3_3 
REMARK    2  A    between atoms: C3_3  and  C4_4 
REMARK    3  A    between atoms: C5_5  and  C6_6 
REMARK       I    between atoms: N2_13  and  C12_15 
REMARK       I    between atoms: C12_15  and  N4_19 
REMARK    4  A    between atoms: N4_19  and  C13_21 
REMARK    5  A    between atoms: C13_21  and  C14_22 
REMARK    6  A    between atoms: C14_22  and  N5_23 
ROOT
HETATM    1  C6  UNL     1     -16.796 -34.471  19.772  1.00  0.00     0.090 C 
HETATM    2  C7  UNL     1     -16.809 -35.537  20.570  1.00  0.00     0.036 C 
HETATM    3  C8  UNL     1     -18.066 -36.028  21.177  1.00  0.00     0.078 C 
HETATM    4  C9  UNL     1     -17.773 -36.460  22.620  1.00  0.00     0.146 C 
HETATM    5  N1  UNL     1     -16.782 -37.554  22.487  1.00  0.00    -0.221 N 
HETATM    6  C10 UNL     1     -17.036 -38.877  22.983  1.00  0.00     0.168 C 
HETATM    7  C11 UNL     1     -15.571 -37.254  21.832  1.00  0.00     0.694 C 
HETATM    8  N2  UNL     1     -14.497 -37.808  22.056  1.00  0.00    -0.023 N 
ATOM      9  H2  UNL     1     -13.760 -37.429  21.461  1.00  0.00     0.203 HD
HETATM   10  C12 UNL     1     -14.003 -38.797  22.883  1.00  0.00     0.686 C 
HETATM   11  N3  UNL     1     -13.923 -40.018  22.483  1.00  0.00    -0.234 N 
ATOM     12  H31 UNL     1     -13.559 -40.748  23.094  1.00  0.00     0.174 HD
ATOM     13  H32 UNL     1     -14.247 -40.239  21.541  1.00  0.00     0.174 HD
HETATM   14  N4  UNL     1     -13.555 -38.490  24.188  1.00  0.00    -0.224 N 
ATOM     15  H4  UNL     1     -13.679 -39.163  24.946  1.00  0.00     0.177 HD
HETATM   16  N6  UNL     1     -15.592 -36.202  20.833  1.00  0.00    -0.194 N 
ATOM     17  H6  UNL     1     -14.742 -35.948  20.330  1.00  0.00     0.184 HD
ENDROOT
BRANCH  14  18
HETATM   18  C13 UNL     1     -12.926 -37.226  24.440  1.00  0.00     0.166 C 
BRANCH  18  19
HETATM   19  C14 UNL     1     -13.296 -36.557  25.702  1.00  0.00     0.257 C 
BRANCH  19  20
HETATM   20  N5  UNL     1     -14.412 -35.708  25.740  1.00  0.00    -0.065 N 
HETATM   21  C15 UNL     1     -14.305 -34.718  26.841  1.00  0.00     0.238 C 
HETATM   22  C16 UNL     1     -14.936 -33.445  26.325  1.00  0.00     0.034 C 
HETATM   23  C17 UNL     1     -15.740 -34.013  25.173  1.00  0.00     0.015 C 
HETATM   24  C18 UNL     1     -16.623 -35.062  25.747  1.00  0.00     0.034 C 
HETATM   25  C20 UNL     1     -14.617 -34.872  24.558  1.00  0.00     0.242 C 
HETATM   26  C19 UNL     1     -15.708 -36.294  25.873  1.00  0.00     0.238 C 
ENDBRANCH  19  20
ENDBRANCH  18  19
ENDBRANCH  14  18
BRANCH   1  27
HETATM   27  C5  UNL     1     -17.980 -33.737  19.450  1.00  0.00    -0.077 C 
HETATM   28  C4  UNL     1     -18.989 -33.127  19.189  1.00  0.00    -0.102 C 
BRANCH  28  29
HETATM   29  C3  UNL     1     -20.225 -32.383  18.893  1.00  0.00     0.094 C 
BRANCH  29  30
HETATM   30  C2  UNL     1     -20.575 -31.583  20.122  1.00  0.00     0.007 C 
HETATM   31  C1  UNL     1     -20.896 -32.462  21.304  1.00  0.00     0.006 C 
ENDBRANCH  29  30
ENDBRANCH  28  29
ENDBRANCH   1  27
TORSDOF 6
ENDMDL
