MODEL 1
REMARK VINA RESULT: -8.343941489      0.000      0.000
REMARK  5 active torsions:
REMARK  status: ('A' for Active; 'I' for Inactive)
REMARK    1  A    between atoms: C10_12  and  N2_13 
REMARK    2  A    between atoms: N2_13  and  N3_14 
REMARK    3  A    between atoms: N4_19  and  C12_20 
REMARK    4  A    between atoms: C12_20  and  C14_22 
REMARK    5  A    between atoms: C14_22  and  C15_23 
ROOT
HETATM    1  C1  UNL     1     -20.226 -35.261  17.775  1.00  0.00     0.022 C 
HETATM    2  C2  UNL     1     -20.565 -34.013  17.996  1.00  0.00    -0.031 C 
HETATM    3  C3  UNL     1     -20.334 -32.992  16.943  1.00  0.00     0.002 A 
HETATM    4  C4  UNL     1     -20.000 -32.800  15.614  1.00  0.00    -0.034 A 
HETATM    5  C5  UNL     1     -19.676 -33.867  14.625  1.00  0.00     0.050 C 
HETATM    6  C6  UNL     1     -20.020 -31.447  15.361  1.00  0.00     0.095 A 
HETATM    7  N1  UNL     1     -20.349 -30.841  16.488  1.00  0.00    -0.368 N 
ATOM      8  H1  UNL     1     -20.442 -29.831  16.601  1.00  0.00     0.165 HD
HETATM    9  C7  UNL     1     -20.546 -31.742  17.462  1.00  0.00     0.027 A 
HETATM   10  C8  UNL     1     -20.881 -31.868  18.860  1.00  0.00     0.071 C 
HETATM   11  C9  UNL     1     -22.065 -31.126  19.369  1.00  0.00     0.094 C 
HETATM   12  C10 UNL     1     -22.337 -31.614  20.768  1.00  0.00     0.176 C 
HETATM   13  C11 UNL     1     -21.662 -32.775  21.329  1.00  0.00     0.287 C 
HETATM   14  O1  UNL     1     -21.873 -33.059  22.525  1.00  0.00    -0.265 OA
HETATM   15  N4  UNL     1     -20.776 -33.547  20.461  1.00  0.00    -0.309 N 
HETATM   16  C20 UNL     1     -21.185 -33.367  19.093  1.00  0.00     0.136 C 
ENDROOT
BRANCH  15  17
HETATM   17  C12 UNL     1     -19.718 -34.269  21.025  1.00  0.00    -0.005 C 
HETATM   18  C13 UNL     1     -20.031 -35.676  21.489  1.00  0.00     0.064 C 
BRANCH  17  19
HETATM   19  C14 UNL     1     -18.793 -33.550  21.958  1.00  0.00     0.111 C 
BRANCH  19  20
HETATM   20  C15 UNL     1     -17.431 -33.978  22.119  1.00  0.00     0.033 A 
HETATM   21  C16 UNL     1     -16.416 -33.893  21.188  1.00  0.00     0.115 A 
HETATM   22  N5  UNL     1     -15.277 -34.393  21.652  1.00  0.00    -0.354 N 
HETATM   23  C17 UNL     1     -15.537 -34.812  22.903  1.00  0.00     0.079 A 
ATOM     24  H5  UNL     1     -14.385 -34.448  21.159  1.00  0.00     0.166 HD
HETATM   25  C18 UNL     1     -14.538 -35.447  23.814  1.00  0.00     0.089 C 
HETATM   26  N6  UNL     1     -16.836 -34.567  23.197  1.00  0.00    -0.343 N 
HETATM   27  C19 UNL     1     -17.447 -34.901  24.468  1.00  0.00     0.157 C 
ENDBRANCH  19  20
ENDBRANCH  17  19
ENDBRANCH  15  17
BRANCH  12  28
HETATM   28  N2  UNL     1     -23.193 -30.951  21.433  1.00  0.00    -0.332 NA
BRANCH  28  29
HETATM   29  N3  UNL     1     -23.908 -30.490  22.344  1.00  0.00    -0.280 N 
ATOM     30  H32 UNL     1     -23.648 -31.217  23.011  1.00  0.00     0.191 HD
ATOM     31  H31 UNL     1     -24.553 -29.921  22.893  1.00  0.00     0.191 HD
ENDBRANCH  28  29
ENDBRANCH  12  28
TORSDOF 5
ENDMDL
MODEL 2
REMARK VINA RESULT: -8.224346520      2.338      6.257
REMARK  5 active torsions:
REMARK  status: ('A' for Active; 'I' for Inactive)
REMARK    1  A    between atoms: C10_12  and  N2_13 
REMARK    2  A    between atoms: N2_13  and  N3_14 
REMARK    3  A    between atoms: N4_19  and  C12_20 
REMARK    4  A    between atoms: C12_20  and  C14_22 
REMARK    5  A    between atoms: C14_22  and  C15_23 
ROOT
HETATM    1  C1  UNL     1     -20.413 -35.377  20.687  1.00  0.00     0.022 C 
HETATM    2  C2  UNL     1     -19.520 -34.788  19.927  1.00  0.00    -0.031 C 
HETATM    3  C3  UNL     1     -18.082 -35.115  20.094  1.00  0.00     0.002 A 
HETATM    4  C4  UNL     1     -17.187 -35.986  20.690  1.00  0.00    -0.034 A 
HETATM    5  C5  UNL     1     -17.532 -37.129  21.582  1.00  0.00     0.050 C 
HETATM    6  C6  UNL     1     -15.916 -35.614  20.313  1.00  0.00     0.095 A 
HETATM    7  N1  UNL     1     -16.032 -34.561  19.524  1.00  0.00    -0.368 N 
ATOM      8  H1  UNL     1     -15.250 -34.067  19.092  1.00  0.00     0.165 HD
HETATM    9  C7  UNL     1     -17.324 -34.232  19.371  1.00  0.00     0.027 A 
HETATM   10  C8  UNL     1     -18.199 -33.277  18.736  1.00  0.00     0.071 C 
HETATM   11  C9  UNL     1     -18.003 -32.997  17.288  1.00  0.00     0.094 C 
HETATM   12  C10 UNL     1     -19.176 -32.173  16.824  1.00  0.00     0.176 C 
HETATM   13  C11 UNL     1     -20.350 -31.959  17.658  1.00  0.00     0.287 C 
HETATM   14  O1  UNL     1     -21.237 -31.189  17.238  1.00  0.00    -0.265 OA
HETATM   15  N4  UNL     1     -20.428 -32.659  18.937  1.00  0.00    -0.309 N 
HETATM   16  C20 UNL     1     -19.629 -33.853  18.869  1.00  0.00     0.136 C 
ENDROOT
BRANCH  15  17
HETATM   17  C12 UNL     1     -21.179 -32.104  19.979  1.00  0.00    -0.005 C 
HETATM   18  C13 UNL     1     -20.441 -31.828  21.274  1.00  0.00     0.064 C 
BRANCH  17  19
HETATM   19  C14 UNL     1     -22.562 -32.630  20.209  1.00  0.00     0.111 C 
BRANCH  19  20
HETATM   20  C15 UNL     1     -23.194 -32.505  21.493  1.00  0.00     0.033 A 
HETATM   21  C16 UNL     1     -23.495 -33.523  22.375  1.00  0.00     0.115 A 
HETATM   22  N5  UNL     1     -24.093 -33.069  23.470  1.00  0.00    -0.354 N 
HETATM   23  C17 UNL     1     -24.188 -31.736  23.315  1.00  0.00     0.079 A 
ATOM     24  H5  UNL     1     -24.413 -33.618  24.267  1.00  0.00     0.166 HD
HETATM   25  C18 UNL     1     -24.796 -30.804  24.310  1.00  0.00     0.089 C 
HETATM   26  N6  UNL     1     -23.649 -31.384  22.123  1.00  0.00    -0.343 N 
HETATM   27  C19 UNL     1     -23.593 -30.018  21.641  1.00  0.00     0.157 C 
ENDBRANCH  19  20
ENDBRANCH  17  19
ENDBRANCH  15  17
BRANCH  12  28
HETATM   28  N2  UNL     1     -19.080 -31.674  15.660  1.00  0.00    -0.332 NA
BRANCH  28  29
HETATM   29  N3  UNL     1     -19.310 -31.087  14.584  1.00  0.00    -0.280 N 
ATOM     30  H32 UNL     1     -19.998 -31.774  14.277  1.00  0.00     0.191 HD
ATOM     31  H31 UNL     1     -19.306 -30.429  13.805  1.00  0.00     0.191 HD
ENDBRANCH  28  29
ENDBRANCH  12  28
TORSDOF 5
ENDMDL
MODEL 3
REMARK VINA RESULT: -8.041266922      1.443      1.659
REMARK  5 active torsions:
REMARK  status: ('A' for Active; 'I' for Inactive)
REMARK    1  A    between atoms: C10_12  and  N2_13 
REMARK    2  A    between atoms: N2_13  and  N3_14 
REMARK    3  A    between atoms: N4_19  and  C12_20 
REMARK    4  A    between atoms: C12_20  and  C14_22 
REMARK    5  A    between atoms: C14_22  and  C15_23 
ROOT
HETATM    1  C1  UNL     1     -20.876 -35.737  17.786  1.00  0.00     0.022 C 
HETATM    2  C2  UNL     1     -20.938 -34.478  18.150  1.00  0.00    -0.031 C 
HETATM    3  C3  UNL     1     -20.334 -33.433  17.285  1.00  0.00     0.002 A 
HETATM    4  C4  UNL     1     -19.791 -33.178  16.038  1.00  0.00    -0.034 A 
HETATM    5  C5  UNL     1     -19.599 -34.170  14.943  1.00  0.00     0.050 C 
HETATM    6  C6  UNL     1     -19.457 -31.843  15.984  1.00  0.00     0.095 A 
HETATM    7  N1  UNL     1     -19.782 -31.309  17.147  1.00  0.00    -0.368 N 
ATOM      8  H1  UNL     1     -19.648 -30.328  17.396  1.00  0.00     0.165 HD
HETATM    9  C7  UNL     1     -20.313 -32.238  17.956  1.00  0.00     0.027 A 
HETATM   10  C8  UNL     1     -20.852 -32.437  19.280  1.00  0.00     0.071 C 
HETATM   11  C9  UNL     1     -21.885 -31.486  19.769  1.00  0.00     0.094 C 
HETATM   12  C10 UNL     1     -22.448 -32.049  21.048  1.00  0.00     0.176 C 
HETATM   13  C11 UNL     1     -22.146 -33.399  21.499  1.00  0.00     0.287 C 
HETATM   14  O1  UNL     1     -22.576 -33.758  22.614  1.00  0.00    -0.265 OA
HETATM   15  N4  UNL     1     -21.359 -34.263  20.622  1.00  0.00    -0.309 N 
HETATM   16  C20 UNL     1     -21.529 -33.829  19.261  1.00  0.00     0.136 C 
ENDROOT
BRANCH  15  17
HETATM   17  C12 UNL     1     -20.587 -35.287  21.179  1.00  0.00    -0.005 C 
HETATM   18  C13 UNL     1     -21.342 -36.455  21.782  1.00  0.00     0.064 C 
BRANCH  17  19
HETATM   19  C14 UNL     1     -19.385 -34.904  21.987  1.00  0.00     0.111 C 
BRANCH  19  20
HETATM   20  C15 UNL     1     -18.096 -34.766  21.370  1.00  0.00     0.033 A 
HETATM   21  C16 UNL     1     -17.260 -35.781  20.950  1.00  0.00     0.115 A 
HETATM   22  N5  UNL     1     -16.132 -35.311  20.432  1.00  0.00    -0.354 N 
HETATM   23  C17 UNL     1     -16.219 -33.971  20.506  1.00  0.00     0.079 A 
ATOM     24  H5  UNL     1     -15.357 -35.855  20.053  1.00  0.00     0.166 HD
HETATM   25  C18 UNL     1     -15.168 -33.021  20.034  1.00  0.00     0.089 C 
HETATM   26  N6  UNL     1     -17.401 -33.629  21.072  1.00  0.00    -0.343 N 
HETATM   27  C19 UNL     1     -17.813 -32.259  21.305  1.00  0.00     0.157 C 
ENDBRANCH  19  20
ENDBRANCH  17  19
ENDBRANCH  15  17
BRANCH  12  28
HETATM   28  N2  UNL     1     -23.204 -31.274  21.713  1.00  0.00    -0.332 NA
BRANCH  28  29
HETATM   29  N3  UNL     1     -23.886 -30.744  22.612  1.00  0.00    -0.280 N 
ATOM     30  H32 UNL     1     -23.095 -30.647  23.250  1.00  0.00     0.191 HD
ATOM     31  H31 UNL     1     -24.648 -30.346  23.160  1.00  0.00     0.191 HD
ENDBRANCH  28  29
ENDBRANCH  12  28
TORSDOF 5
ENDMDL
MODEL 4
REMARK VINA RESULT: -8.035333152      2.577      5.081
REMARK  5 active torsions:
REMARK  status: ('A' for Active; 'I' for Inactive)
REMARK    1  A    between atoms: C10_12  and  N2_13 
REMARK    2  A    between atoms: N2_13  and  N3_14 
REMARK    3  A    between atoms: N4_19  and  C12_20 
REMARK    4  A    between atoms: C12_20  and  C14_22 
REMARK    5  A    between atoms: C14_22  and  C15_23 
ROOT
HETATM    1  C1  UNL     1     -21.266 -31.310  20.007  1.00  0.00     0.022 C 
HETATM    2  C2  UNL     1     -21.916 -32.381  20.396  1.00  0.00    -0.031 C 
HETATM    3  C3  UNL     1     -22.780 -32.318  21.601  1.00  0.00     0.002 A 
HETATM    4  C4  UNL     1     -23.372 -31.468  22.519  1.00  0.00    -0.034 A 
HETATM    5  C5  UNL     1     -23.241 -29.984  22.558  1.00  0.00     0.050 C 
HETATM    6  C6  UNL     1     -24.108 -32.235  23.396  1.00  0.00     0.095 A 
HETATM    7  N1  UNL     1     -23.968 -33.496  23.028  1.00  0.00    -0.368 N 
ATOM      8  H1  UNL     1     -24.402 -34.291  23.497  1.00  0.00     0.165 HD
HETATM    9  C7  UNL     1     -23.174 -33.583  21.950  1.00  0.00     0.027 A 
HETATM   10  C8  UNL     1     -22.573 -34.526  21.038  1.00  0.00     0.071 C 
HETATM   11  C9  UNL     1     -23.443 -35.565  20.425  1.00  0.00     0.094 C 
HETATM   12  C10 UNL     1     -22.641 -36.248  19.349  1.00  0.00     0.176 C 
HETATM   13  C11 UNL     1     -21.351 -35.742  18.904  1.00  0.00     0.287 C 
HETATM   14  O1  UNL     1     -20.708 -36.416  18.075  1.00  0.00    -0.265 OA
HETATM   15  N4  UNL     1     -20.881 -34.471  19.449  1.00  0.00    -0.309 N 
HETATM   16  C20 UNL     1     -22.015 -33.689  19.862  1.00  0.00     0.136 C 
ENDROOT
BRANCH  15  17
HETATM   17  C12 UNL     1     -19.506 -34.221  19.520  1.00  0.00    -0.005 C 
HETATM   18  C13 UNL     1     -18.854 -33.660  18.273  1.00  0.00     0.064 C 
BRANCH  17  19
HETATM   19  C14 UNL     1     -18.642 -35.226  20.216  1.00  0.00     0.111 C 
BRANCH  19  20
HETATM   20  C15 UNL     1     -18.263 -35.046  21.590  1.00  0.00     0.033 A 
HETATM   21  C16 UNL     1     -19.057 -35.228  22.704  1.00  0.00     0.115 A 
HETATM   22  N5  UNL     1     -18.403 -34.964  23.828  1.00  0.00    -0.354 N 
HETATM   23  C17 UNL     1     -17.161 -34.604  23.458  1.00  0.00     0.079 A 
ATOM     24  H5  UNL     1     -18.767 -35.021  24.779  1.00  0.00     0.166 HD
HETATM   25  C18 UNL     1     -16.069 -34.217  24.401  1.00  0.00     0.089 C 
HETATM   26  N6  UNL     1     -17.064 -34.650  22.108  1.00  0.00    -0.343 N 
HETATM   27  C19 UNL     1     -15.856 -34.316  21.379  1.00  0.00     0.157 C 
ENDBRANCH  19  20
ENDBRANCH  17  19
ENDBRANCH  15  17
BRANCH  12  28
HETATM   28  N2  UNL     1     -23.158 -37.296  18.850  1.00  0.00    -0.332 NA
BRANCH  28  29
HETATM   29  N3  UNL     1     -23.390 -38.304  18.154  1.00  0.00    -0.280 N 
ATOM     30  H32 UNL     1     -22.404 -38.541  18.044  1.00  0.00     0.191 HD
ATOM     31  H31 UNL     1     -23.846 -39.048  17.625  1.00  0.00     0.191 HD
ENDBRANCH  28  29
ENDBRANCH  12  28
TORSDOF 5
ENDMDL
MODEL 5
REMARK VINA RESULT: -7.999008680      2.535      7.051
REMARK  5 active torsions:
REMARK  status: ('A' for Active; 'I' for Inactive)
REMARK    1  A    between atoms: C10_12  and  N2_13 
REMARK    2  A    between atoms: N2_13  and  N3_14 
REMARK    3  A    between atoms: N4_19  and  C12_20 
REMARK    4  A    between atoms: C12_20  and  C14_22 
REMARK    5  A    between atoms: C14_22  and  C15_23 
ROOT
HETATM    1  C1  UNL     1     -19.728 -36.454  22.291  1.00  0.00     0.022 C 
HETATM    2  C2  UNL     1     -18.721 -35.638  22.083  1.00  0.00    -0.031 C 
HETATM    3  C3  UNL     1     -17.854 -35.238  23.219  1.00  0.00     0.002 A 
HETATM    4  C4  UNL     1     -17.533 -35.503  24.539  1.00  0.00    -0.034 A 
HETATM    5  C5  UNL     1     -18.168 -36.532  25.410  1.00  0.00     0.050 C 
HETATM    6  C6  UNL     1     -16.520 -34.647  24.911  1.00  0.00     0.095 A 
HETATM    7  N1  UNL     1     -16.238 -33.893  23.864  1.00  0.00    -0.368 N 
ATOM      8  H1  UNL     1     -15.524 -33.165  23.846  1.00  0.00     0.165 HD
HETATM    9  C7  UNL     1     -17.023 -34.222  22.827  1.00  0.00     0.027 A 
HETATM   10  C8  UNL     1     -17.319 -33.881  21.456  1.00  0.00     0.071 C 
HETATM   11  C9  UNL     1     -16.185 -33.757  20.501  1.00  0.00     0.094 C 
HETATM   12  C10 UNL     1     -16.770 -33.643  19.118  1.00  0.00     0.176 C 
HETATM   13  C11 UNL     1     -18.183 -33.874  18.852  1.00  0.00     0.287 C 
HETATM   14  O1  UNL     1     -18.606 -33.669  17.697  1.00  0.00    -0.265 OA
HETATM   15  N4  UNL     1     -19.028 -34.336  19.951  1.00  0.00    -0.309 N 
HETATM   16  C20 UNL     1     -18.210 -35.024  20.914  1.00  0.00     0.136 C 
ENDROOT
BRANCH  15  17
HETATM   17  C12 UNL     1     -20.396 -34.043  19.936  1.00  0.00    -0.005 C 
HETATM   18  C13 UNL     1     -21.143 -34.360  18.657  1.00  0.00     0.064 C 
BRANCH  17  19
HETATM   19  C14 UNL     1     -20.848 -32.759  20.561  1.00  0.00     0.111 C 
BRANCH  19  20
HETATM   20  C15 UNL     1     -21.940 -32.738  21.494  1.00  0.00     0.033 A 
HETATM   21  C16 UNL     1     -22.581 -33.827  22.050  1.00  0.00     0.115 A 
HETATM   22  N5  UNL     1     -23.561 -33.461  22.866  1.00  0.00    -0.354 N 
HETATM   23  C17 UNL     1     -23.571 -32.116  22.854  1.00  0.00     0.079 A 
ATOM     24  H5  UNL     1     -24.181 -34.074  23.396  1.00  0.00     0.166 HD
HETATM   25  C18 UNL     1     -24.517 -31.264  23.635  1.00  0.00     0.089 C 
HETATM   26  N6  UNL     1     -22.596 -31.668  22.028  1.00  0.00    -0.343 N 
HETATM   27  C19 UNL     1     -22.337 -30.263  21.782  1.00  0.00     0.157 C 
ENDBRANCH  19  20
ENDBRANCH  17  19
ENDBRANCH  15  17
BRANCH  12  28
HETATM   28  N2  UNL     1     -15.957 -33.332  18.193  1.00  0.00    -0.332 NA
BRANCH  28  29
HETATM   29  N3  UNL     1     -15.449 -33.010  17.101  1.00  0.00    -0.280 N 
ATOM     30  H32 UNL     1     -16.334 -32.698  16.702  1.00  0.00     0.191 HD
ATOM     31  H31 UNL     1     -14.800 -32.836  16.334  1.00  0.00     0.191 HD
ENDBRANCH  28  29
ENDBRANCH  12  28
TORSDOF 5
ENDMDL
