MODEL 1
REMARK VINA RESULT: -9.594559411      0.000      0.000
REMARK  16 active torsions:
REMARK  status: ('A' for Active; 'I' for Inactive)
REMARK    1  A    between atoms: C2_2  and  C3_3 
REMARK    2  A    between atoms: C3_3  and  C4_4 
REMARK    3  A    between atoms: C4_4  and  O1_5 
REMARK    4  A    between atoms: C4_4  and  C5_7 
REMARK    5  A    between atoms: C5_7  and  O3_9 
REMARK    6  A    between atoms: O3_9  and  C6_10 
REMARK    7  A    between atoms: C9_13  and  C10_14 
REMARK    8  A    between atoms: C17_21  and  O4_22 
REMARK    9  A    between atoms: O4_22  and  C18_23 
REMARK   10  A    between atoms: C18_23  and  C19_24 
REMARK   11  A    between atoms: C19_24  and  C20_25 
REMARK   12  A    between atoms: C21_31  and  C22_32 
REMARK   13  A    between atoms: C22_32  and  C24_34 
REMARK   14  A    between atoms: C24_34  and  C25_35 
REMARK   15  A    between atoms: C25_35  and  C26_36 
REMARK   16  A    between atoms: C33_43  and  O5_44 
ROOT
HETATM    1  C10 UNL     1      14.371  23.573   5.590  1.00  0.00     0.004 C 
HETATM    2  C11 UNL     1      15.115  22.965   6.497  1.00  0.00    -0.067 C 
HETATM    3  C12 UNL     1      16.025  23.647   7.419  1.00  0.00     0.036 C 
HETATM    4  C13 UNL     1      16.873  22.544   7.979  1.00  0.00     0.017 C 
HETATM    5  C14 UNL     1      15.896  21.405   8.132  1.00  0.00    -0.005 C 
HETATM    6  C15 UNL     1      14.817  21.693   9.108  1.00  0.00     0.019 C 
HETATM    7  C16 UNL     1      15.170  21.526   6.749  1.00  0.00     0.099 C 
HETATM    8  C17 UNL     1      16.037  20.743   5.883  1.00  0.00     0.123 C 
HETATM    9  N1  UNL     1      16.735  19.947   6.552  1.00  0.00    -0.365 N 
ATOM     10  H1  UNL     1      17.415  19.299   6.153  1.00  0.00     0.162 HD
HETATM   11  C21 UNL     1      16.447  20.071   7.982  1.00  0.00     0.121 C 
ENDROOT
BRANCH   1  12
HETATM   12  C9  UNL     1      13.478  22.897   4.688  1.00  0.00     0.003 C 
HETATM   13  C8  UNL     1      12.502  23.476   4.032  1.00  0.00    -0.075 C 
HETATM   14  C7  UNL     1      12.142  24.901   4.095  1.00  0.00     0.066 C 
HETATM   15  C32 UNL     1      11.643  22.637   3.125  1.00  0.00     0.066 C 
HETATM   16  C6  UNL     1      10.831  24.985   4.857  1.00  0.00     0.138 C 
HETATM   17  C34 UNL     1       9.888  23.877   4.450  1.00  0.00     0.065 C 
HETATM   18  C33 UNL     1      10.275  23.231   3.143  1.00  0.00     0.124 C 
BRANCH  16  19
HETATM   19  O3  UNL     1      10.227  26.260   4.743  1.00  0.00    -0.314 OA
BRANCH  19  20
HETATM   20  C5  UNL     1       9.565  26.874   5.795  1.00  0.00     0.288 C 
HETATM   21  O2  UNL     1       8.985  27.965   5.564  1.00  0.00    -0.262 OA
BRANCH  20  22
HETATM   22  C4  UNL     1       9.500  26.328   7.167  1.00  0.00     0.217 C 
BRANCH  22  23
HETATM   23  C3  UNL     1      10.432  27.052   8.111  1.00  0.00     0.041 C 
BRANCH  23  24
HETATM   24  C2  UNL     1      11.302  26.109   8.910  1.00  0.00    -0.002 C 
HETATM   25  C1  UNL     1      12.177  25.281   8.026  1.00  0.00     0.005 C 
ENDBRANCH  23  24
ENDBRANCH  22  23
BRANCH  22  26
HETATM   26  O1  UNL     1       8.209  26.254   7.650  1.00  0.00    -0.386 OA
ATOM     27  H1  UNL     1       7.558  26.427   6.981  1.00  0.00     0.210 HD
ENDBRANCH  22  26
ENDBRANCH  20  22
ENDBRANCH  19  20
ENDBRANCH  16  19
BRANCH  18  28
HETATM   28  O5  UNL     1      10.022  24.095   2.081  1.00  0.00    -0.395 OA
ATOM     29  H5  UNL     1       9.781  24.974   2.349  1.00  0.00     0.210 HD
ENDBRANCH  18  28
ENDBRANCH   1  12
BRANCH   8  30
HETATM   30  O4  UNL     1      16.111  20.835   4.488  1.00  0.00    -0.338 OA
BRANCH  30  31
HETATM   31  C18 UNL     1      16.079  19.659   3.726  1.00  0.00     0.185 C 
BRANCH  31  32
HETATM   32  C19 UNL     1      14.704  19.506   3.120  1.00  0.00     0.144 C 
BRANCH  32  33
HETATM   33  C20 UNL     1      14.690  20.196   1.772  1.00  0.00     0.389 C 
HETATM   34  F1  UNL     1      14.588  21.566   1.928  1.00  0.00    -0.171 F 
HETATM   35  F2  UNL     1      15.881  19.916   1.138  1.00  0.00    -0.171 F 
HETATM   36  F3  UNL     1      13.642  19.754   1.006  1.00  0.00    -0.171 F 
ENDBRANCH  32  33
ENDBRANCH  31  32
ENDBRANCH  30  31
ENDBRANCH   8  30
BRANCH  11  37
HETATM   37  C22 UNL     1      17.562  19.546   8.740  1.00  0.00    -0.061 C 
HETATM   38  C23 UNL     1      18.923  19.612   8.079  1.00  0.00     0.045 C 
BRANCH  37  39
HETATM   39  C24 UNL     1      17.683  19.736  10.160  1.00  0.00     0.001 C 
BRANCH  39  40
HETATM   40  C25 UNL     1      18.499  19.310  11.083  1.00  0.00    -0.022 C 
BRANCH  40  41
HETATM   41  C26 UNL     1      18.594  17.837  11.469  1.00  0.00     0.008 C 
HETATM   42  C27 UNL     1      19.693  17.143  10.750  1.00  0.00     0.008 C 
HETATM   43  C28 UNL     1      19.263  16.224   9.660  1.00  0.00     0.001 C 
HETATM   44  C29 UNL     1      18.122  15.326   9.999  1.00  0.00     0.000 C 
HETATM   45  C30 UNL     1      17.482  15.665  11.327  1.00  0.00     0.001 C 
HETATM   46  C31 UNL     1      17.251  17.177  11.315  1.00  0.00     0.008 C 
ENDBRANCH  40  41
ENDBRANCH  39  40
ENDBRANCH  37  39
ENDBRANCH  11  37
TORSDOF 16
ENDMDL
MODEL 2
REMARK VINA RESULT: -9.591862879      0.693      1.209
REMARK  16 active torsions:
REMARK  status: ('A' for Active; 'I' for Inactive)
REMARK    1  A    between atoms: C2_2  and  C3_3 
REMARK    2  A    between atoms: C3_3  and  C4_4 
REMARK    3  A    between atoms: C4_4  and  O1_5 
REMARK    4  A    between atoms: C4_4  and  C5_7 
REMARK    5  A    between atoms: C5_7  and  O3_9 
REMARK    6  A    between atoms: O3_9  and  C6_10 
REMARK    7  A    between atoms: C9_13  and  C10_14 
REMARK    8  A    between atoms: C17_21  and  O4_22 
REMARK    9  A    between atoms: O4_22  and  C18_23 
REMARK   10  A    between atoms: C18_23  and  C19_24 
REMARK   11  A    between atoms: C19_24  and  C20_25 
REMARK   12  A    between atoms: C21_31  and  C22_32 
REMARK   13  A    between atoms: C22_32  and  C24_34 
REMARK   14  A    between atoms: C24_34  and  C25_35 
REMARK   15  A    between atoms: C25_35  and  C26_36 
REMARK   16  A    between atoms: C33_43  and  O5_44 
ROOT
HETATM    1  C10 UNL     1      14.372  23.517   5.727  1.00  0.00     0.004 C 
HETATM    2  C11 UNL     1      15.158  22.887   6.581  1.00  0.00    -0.067 C 
HETATM    3  C12 UNL     1      16.084  23.549   7.502  1.00  0.00     0.036 C 
HETATM    4  C13 UNL     1      16.973  22.441   7.986  1.00  0.00     0.017 C 
HETATM    5  C14 UNL     1      16.025  21.276   8.121  1.00  0.00    -0.005 C 
HETATM    6  C15 UNL     1      14.974  21.499   9.144  1.00  0.00     0.019 C 
HETATM    7  C16 UNL     1      15.250  21.440   6.769  1.00  0.00     0.099 C 
HETATM    8  C17 UNL     1      16.104  20.713   5.842  1.00  0.00     0.123 C 
HETATM    9  N1  UNL     1      16.840  19.905   6.453  1.00  0.00    -0.365 N 
ATOM     10  H1  UNL     1      17.519  19.289   6.004  1.00  0.00     0.162 HD
HETATM   11  C21 UNL     1      16.597  19.962   7.895  1.00  0.00     0.121 C 
ENDROOT
BRANCH   1  12
HETATM   12  C9  UNL     1      13.463  22.861   4.826  1.00  0.00     0.003 C 
HETATM   13  C8  UNL     1      12.504  23.462   4.166  1.00  0.00    -0.075 C 
HETATM   14  C7  UNL     1      12.182  24.896   4.221  1.00  0.00     0.066 C 
HETATM   15  C32 UNL     1      11.624  22.643   3.260  1.00  0.00     0.066 C 
HETATM   16  C6  UNL     1      10.872  25.020   4.980  1.00  0.00     0.138 C 
HETATM   17  C34 UNL     1       9.901  23.935   4.576  1.00  0.00     0.065 C 
HETATM   18  C33 UNL     1      10.273  23.273   3.273  1.00  0.00     0.124 C 
BRANCH  16  19
HETATM   19  O3  UNL     1      10.302  26.310   4.859  1.00  0.00    -0.314 OA
BRANCH  19  20
HETATM   20  C5  UNL     1       9.581  26.910   5.878  1.00  0.00     0.288 C 
HETATM   21  O2  UNL     1       8.973  27.978   5.614  1.00  0.00    -0.262 OA
BRANCH  20  22
HETATM   22  C4  UNL     1       9.482  26.376   7.253  1.00  0.00     0.217 C 
BRANCH  22  23
HETATM   23  C3  UNL     1      10.379  27.118   8.216  1.00  0.00     0.041 C 
BRANCH  23  24
HETATM   24  C2  UNL     1      11.281  26.195   9.003  1.00  0.00    -0.002 C 
HETATM   25  C1  UNL     1      12.169  25.393   8.107  1.00  0.00     0.005 C 
ENDBRANCH  23  24
ENDBRANCH  22  23
BRANCH  22  26
HETATM   26  O1  UNL     1       8.179  26.292   7.700  1.00  0.00    -0.386 OA
ATOM     27  H1  UNL     1       7.851  25.400   7.704  1.00  0.00     0.210 HD
ENDBRANCH  22  26
ENDBRANCH  20  22
ENDBRANCH  19  20
ENDBRANCH  16  19
BRANCH  18  28
HETATM   28  O5  UNL     1      10.045  24.138   2.207  1.00  0.00    -0.395 OA
ATOM     29  H5  UNL     1       9.126  24.270   2.008  1.00  0.00     0.210 HD
ENDBRANCH  18  28
ENDBRANCH   1  12
BRANCH   8  30
HETATM   30  O4  UNL     1      16.129  20.867   4.450  1.00  0.00    -0.338 OA
BRANCH  30  31
HETATM   31  C18 UNL     1      16.114  19.724   3.641  1.00  0.00     0.185 C 
BRANCH  31  32
HETATM   32  C19 UNL     1      14.727  19.544   3.073  1.00  0.00     0.144 C 
BRANCH  32  33
HETATM   33  C20 UNL     1      14.668  20.216   1.716  1.00  0.00     0.389 C 
HETATM   34  F1  UNL     1      13.602  19.734   0.981  1.00  0.00    -0.171 F 
HETATM   35  F2  UNL     1      14.484  21.567   1.918  1.00  0.00    -0.171 F 
HETATM   36  F3  UNL     1      15.828  20.006   1.014  1.00  0.00    -0.171 F 
ENDBRANCH  32  33
ENDBRANCH  31  32
ENDBRANCH  30  31
ENDBRANCH   8  30
BRANCH  11  37
HETATM   37  C22 UNL     1      17.748  19.430   8.593  1.00  0.00    -0.061 C 
HETATM   38  C23 UNL     1      19.065  19.454   7.846  1.00  0.00     0.045 C 
BRANCH  37  39
HETATM   39  C24 UNL     1      17.963  19.646   9.998  1.00  0.00     0.001 C 
BRANCH  39  40
HETATM   40  C25 UNL     1      17.614  19.029  11.092  1.00  0.00    -0.022 C 
BRANCH  40  41
HETATM   41  C26 UNL     1      17.807  17.527  11.277  1.00  0.00     0.008 C 
HETATM   42  C27 UNL     1      16.597  16.758  10.888  1.00  0.00     0.008 C 
HETATM   43  C28 UNL     1      15.803  16.201  12.018  1.00  0.00     0.001 C 
HETATM   44  C29 UNL     1      16.600  15.541  13.090  1.00  0.00     0.000 C 
HETATM   45  C30 UNL     1      18.089  15.743  12.925  1.00  0.00     0.001 C 
HETATM   46  C31 UNL     1      18.290  17.238  12.673  1.00  0.00     0.008 C 
ENDBRANCH  40  41
ENDBRANCH  39  40
ENDBRANCH  37  39
ENDBRANCH  11  37
TORSDOF 16
ENDMDL
MODEL 3
REMARK VINA RESULT: -9.572012480      1.413      2.031
REMARK  16 active torsions:
REMARK  status: ('A' for Active; 'I' for Inactive)
REMARK    1  A    between atoms: C2_2  and  C3_3 
REMARK    2  A    between atoms: C3_3  and  C4_4 
REMARK    3  A    between atoms: C4_4  and  O1_5 
REMARK    4  A    between atoms: C4_4  and  C5_7 
REMARK    5  A    between atoms: C5_7  and  O3_9 
REMARK    6  A    between atoms: O3_9  and  C6_10 
REMARK    7  A    between atoms: C9_13  and  C10_14 
REMARK    8  A    between atoms: C17_21  and  O4_22 
REMARK    9  A    between atoms: O4_22  and  C18_23 
REMARK   10  A    between atoms: C18_23  and  C19_24 
REMARK   11  A    between atoms: C19_24  and  C20_25 
REMARK   12  A    between atoms: C21_31  and  C22_32 
REMARK   13  A    between atoms: C22_32  and  C24_34 
REMARK   14  A    between atoms: C24_34  and  C25_35 
REMARK   15  A    between atoms: C25_35  and  C26_36 
REMARK   16  A    between atoms: C33_43  and  O5_44 
ROOT
HETATM    1  C10 UNL     1      14.473  23.506   5.734  1.00  0.00     0.004 C 
HETATM    2  C11 UNL     1      15.219  22.892   6.635  1.00  0.00    -0.067 C 
HETATM    3  C12 UNL     1      16.129  23.570   7.561  1.00  0.00     0.036 C 
HETATM    4  C13 UNL     1      16.980  22.463   8.112  1.00  0.00     0.017 C 
HETATM    5  C14 UNL     1      16.005  21.322   8.258  1.00  0.00    -0.005 C 
HETATM    6  C15 UNL     1      14.926  21.602   9.238  1.00  0.00     0.019 C 
HETATM    7  C16 UNL     1      15.276  21.452   6.877  1.00  0.00     0.099 C 
HETATM    8  C17 UNL     1      16.143  20.676   6.004  1.00  0.00     0.123 C 
HETATM    9  N1  UNL     1      16.844  19.876   6.667  1.00  0.00    -0.365 N 
ATOM     10  H1  UNL     1      17.523  19.232   6.263  1.00  0.00     0.162 HD
HETATM   11  C21 UNL     1      16.557  19.990   8.098  1.00  0.00     0.121 C 
ENDROOT
BRANCH   1  12
HETATM   12  C9  UNL     1      13.580  22.835   4.828  1.00  0.00     0.003 C 
HETATM   13  C8  UNL     1      12.623  23.424   4.153  1.00  0.00    -0.075 C 
HETATM   14  C7  UNL     1      12.288  24.855   4.194  1.00  0.00     0.066 C 
HETATM   15  C32 UNL     1      11.760  22.589   3.245  1.00  0.00     0.066 C 
HETATM   16  C6  UNL     1      10.969  24.972   4.938  1.00  0.00     0.138 C 
HETATM   17  C34 UNL     1      10.011  23.876   4.532  1.00  0.00     0.065 C 
HETATM   18  C33 UNL     1      10.403  23.208   3.238  1.00  0.00     0.124 C 
BRANCH  16  19
HETATM   19  O3  UNL     1      10.389  26.257   4.801  1.00  0.00    -0.314 OA
BRANCH  19  20
HETATM   20  C5  UNL     1       9.630  26.847   5.799  1.00  0.00     0.288 C 
HETATM   21  O2  UNL     1       8.991  27.890   5.508  1.00  0.00    -0.262 OA
BRANCH  20  22
HETATM   22  C4  UNL     1       9.525  26.330   7.180  1.00  0.00     0.217 C 
BRANCH  22  23
HETATM   23  C3  UNL     1      10.421  27.082   8.137  1.00  0.00     0.041 C 
BRANCH  23  24
HETATM   24  C2  UNL     1      11.310  26.166   8.947  1.00  0.00    -0.002 C 
HETATM   25  C1  UNL     1      12.200  25.344   8.072  1.00  0.00     0.005 C 
ENDBRANCH  23  24
ENDBRANCH  22  23
BRANCH  22  26
HETATM   26  O1  UNL     1       8.220  26.255   7.624  1.00  0.00    -0.386 OA
ATOM     27  H1  UNL     1       7.792  27.103   7.643  1.00  0.00     0.210 HD
ENDBRANCH  22  26
ENDBRANCH  20  22
ENDBRANCH  19  20
ENDBRANCH  16  19
BRANCH  18  28
HETATM   28  O5  UNL     1      10.180  24.063   2.163  1.00  0.00    -0.395 OA
ATOM     29  H5  UNL     1      10.090  24.976   2.410  1.00  0.00     0.210 HD
ENDBRANCH  18  28
ENDBRANCH   1  12
BRANCH   8  30
HETATM   30  O4  UNL     1      16.215  20.778   4.610  1.00  0.00    -0.338 OA
BRANCH  30  31
HETATM   31  C18 UNL     1      16.104  19.615   3.837  1.00  0.00     0.185 C 
BRANCH  31  32
HETATM   32  C19 UNL     1      14.716  19.553   3.244  1.00  0.00     0.144 C 
BRANCH  32  33
HETATM   33  C20 UNL     1      14.744  20.203   1.876  1.00  0.00     0.389 C 
HETATM   34  F1  UNL     1      14.681  21.579   1.991  1.00  0.00    -0.171 F 
HETATM   35  F2  UNL     1      15.937  19.870   1.271  1.00  0.00    -0.171 F 
HETATM   36  F3  UNL     1      13.696  19.769   1.105  1.00  0.00    -0.171 F 
ENDBRANCH  32  33
ENDBRANCH  31  32
ENDBRANCH  30  31
ENDBRANCH   8  30
BRANCH  11  37
HETATM   37  C22 UNL     1      17.674  19.461   8.851  1.00  0.00    -0.061 C 
HETATM   38  C23 UNL     1      17.445  19.229  10.330  1.00  0.00     0.045 C 
BRANCH  37  39
HETATM   39  C24 UNL     1      18.558  18.463   8.316  1.00  0.00     0.001 C 
BRANCH  39  40
HETATM   40  C25 UNL     1      18.690  17.173   8.457  1.00  0.00    -0.022 C 
BRANCH  40  41
HETATM   41  C26 UNL     1      18.638  16.215   7.272  1.00  0.00     0.008 C 
HETATM   42  C27 UNL     1      19.490  15.017   7.487  1.00  0.00     0.008 C 
HETATM   43  C28 UNL     1      20.757  14.984   6.706  1.00  0.00     0.001 C 
HETATM   44  C29 UNL     1      20.628  15.364   5.270  1.00  0.00     0.000 C 
HETATM   45  C30 UNL     1      19.260  15.911   4.927  1.00  0.00     0.001 C 
HETATM   46  C31 UNL     1      18.939  16.956   5.997  1.00  0.00     0.008 C 
ENDBRANCH  40  41
ENDBRANCH  39  40
ENDBRANCH  37  39
ENDBRANCH  11  37
TORSDOF 16
ENDMDL
MODEL 4
REMARK VINA RESULT: -9.554298229      0.723      1.183
REMARK  16 active torsions:
REMARK  status: ('A' for Active; 'I' for Inactive)
REMARK    1  A    between atoms: C2_2  and  C3_3 
REMARK    2  A    between atoms: C3_3  and  C4_4 
REMARK    3  A    between atoms: C4_4  and  O1_5 
REMARK    4  A    between atoms: C4_4  and  C5_7 
REMARK    5  A    between atoms: C5_7  and  O3_9 
REMARK    6  A    between atoms: O3_9  and  C6_10 
REMARK    7  A    between atoms: C9_13  and  C10_14 
REMARK    8  A    between atoms: C17_21  and  O4_22 
REMARK    9  A    between atoms: O4_22  and  C18_23 
REMARK   10  A    between atoms: C18_23  and  C19_24 
REMARK   11  A    between atoms: C19_24  and  C20_25 
REMARK   12  A    between atoms: C21_31  and  C22_32 
REMARK   13  A    between atoms: C22_32  and  C24_34 
REMARK   14  A    between atoms: C24_34  and  C25_35 
REMARK   15  A    between atoms: C25_35  and  C26_36 
REMARK   16  A    between atoms: C33_43  and  O5_44 
ROOT
HETATM    1  C10 UNL     1      14.432  23.511   5.745  1.00  0.00     0.004 C 
HETATM    2  C11 UNL     1      15.201  22.874   6.610  1.00  0.00    -0.067 C 
HETATM    3  C12 UNL     1      16.130  23.528   7.534  1.00  0.00     0.036 C 
HETATM    4  C13 UNL     1      16.998  22.409   8.031  1.00  0.00     0.017 C 
HETATM    5  C14 UNL     1      16.031  21.260   8.166  1.00  0.00    -0.005 C 
HETATM    6  C15 UNL     1      14.975  21.506   9.179  1.00  0.00     0.019 C 
HETATM    7  C16 UNL     1      15.269  21.428   6.807  1.00  0.00     0.099 C 
HETATM    8  C17 UNL     1      16.118  20.682   5.891  1.00  0.00     0.123 C 
HETATM    9  N1  UNL     1      16.837  19.866   6.513  1.00  0.00    -0.365 N 
ATOM     10  H1  UNL     1      17.510  19.237   6.074  1.00  0.00     0.162 HD
HETATM   11  C21 UNL     1      16.584  19.936   7.953  1.00  0.00     0.121 C 
ENDROOT
BRANCH   1  12
HETATM   12  C9  UNL     1      13.520  22.864   4.841  1.00  0.00     0.003 C 
HETATM   13  C8  UNL     1      12.563  23.473   4.184  1.00  0.00    -0.075 C 
HETATM   14  C7  UNL     1      12.249  24.908   4.246  1.00  0.00     0.066 C 
HETATM   15  C32 UNL     1      11.680  22.662   3.275  1.00  0.00     0.066 C 
HETATM   16  C6  UNL     1      10.939  25.035   5.005  1.00  0.00     0.138 C 
HETATM   17  C34 UNL     1       9.962  23.957   4.596  1.00  0.00     0.065 C 
HETATM   18  C33 UNL     1      10.332  23.299   3.290  1.00  0.00     0.124 C 
BRANCH  16  19
HETATM   19  O3  UNL     1      10.376  26.328   4.890  1.00  0.00    -0.314 OA
BRANCH  19  20
HETATM   20  C5  UNL     1       9.595  26.898   5.883  1.00  0.00     0.288 C 
HETATM   21  O2  UNL     1       8.919  27.915   5.585  1.00  0.00    -0.262 OA
BRANCH  20  22
HETATM   22  C4  UNL     1       9.507  26.386   7.268  1.00  0.00     0.217 C 
BRANCH  22  23
HETATM   23  C3  UNL     1      10.400  27.155   8.214  1.00  0.00     0.041 C 
BRANCH  23  24
HETATM   24  C2  UNL     1      11.315  26.256   9.013  1.00  0.00    -0.002 C 
HETATM   25  C1  UNL     1      12.076  25.319   8.132  1.00  0.00     0.005 C 
ENDBRANCH  23  24
ENDBRANCH  22  23
BRANCH  22  26
HETATM   26  O1  UNL     1       8.207  26.295   7.721  1.00  0.00    -0.386 OA
ATOM     27  H1  UNL     1       7.885  25.401   7.731  1.00  0.00     0.210 HD
ENDBRANCH  22  26
ENDBRANCH  20  22
ENDBRANCH  19  20
ENDBRANCH  16  19
BRANCH  18  28
HETATM   28  O5  UNL     1      10.108  24.170   2.228  1.00  0.00    -0.395 OA
ATOM     29  H5  UNL     1      10.106  23.746   1.377  1.00  0.00     0.210 HD
ENDBRANCH  18  28
ENDBRANCH   1  12
BRANCH   8  30
HETATM   30  O4  UNL     1      16.157  20.826   4.499  1.00  0.00    -0.338 OA
BRANCH  30  31
HETATM   31  C18 UNL     1      16.100  19.679   3.696  1.00  0.00     0.185 C 
BRANCH  31  32
HETATM   32  C19 UNL     1      14.710  19.553   3.120  1.00  0.00     0.144 C 
BRANCH  32  33
HETATM   33  C20 UNL     1      14.692  20.202   1.752  1.00  0.00     0.389 C 
HETATM   34  F1  UNL     1      13.639  19.719   0.998  1.00  0.00    -0.171 F 
HETATM   35  F2  UNL     1      14.518  21.558   1.926  1.00  0.00    -0.171 F 
HETATM   36  F3  UNL     1      15.866  19.967   1.082  1.00  0.00    -0.171 F 
ENDBRANCH  32  33
ENDBRANCH  31  32
ENDBRANCH  30  31
ENDBRANCH   8  30
BRANCH  11  37
HETATM   37  C22 UNL     1      17.721  19.390   8.664  1.00  0.00    -0.061 C 
HETATM   38  C23 UNL     1      18.747  18.648   7.833  1.00  0.00     0.045 C 
BRANCH  37  39
HETATM   39  C24 UNL     1      18.359  20.089   9.745  1.00  0.00     0.001 C 
BRANCH  39  40
HETATM   40  C25 UNL     1      19.545  20.069  10.286  1.00  0.00    -0.022 C 
BRANCH  40  41
HETATM   41  C26 UNL     1      19.879  19.186  11.484  1.00  0.00     0.008 C 
HETATM   42  C27 UNL     1      20.147  17.782  11.082  1.00  0.00     0.008 C 
HETATM   43  C28 UNL     1      19.070  16.807  11.409  1.00  0.00     0.001 C 
HETATM   44  C29 UNL     1      18.498  16.928  12.780  1.00  0.00     0.000 C 
HETATM   45  C30 UNL     1      18.983  18.159  13.513  1.00  0.00     0.001 C 
HETATM   46  C31 UNL     1      18.817  19.327  12.540  1.00  0.00     0.008 C 
ENDBRANCH  40  41
ENDBRANCH  39  40
ENDBRANCH  37  39
ENDBRANCH  11  37
TORSDOF 16
ENDMDL
MODEL 5
REMARK VINA RESULT: -9.525594322      4.359     11.144
REMARK  16 active torsions:
REMARK  status: ('A' for Active; 'I' for Inactive)
REMARK    1  A    between atoms: C2_2  and  C3_3 
REMARK    2  A    between atoms: C3_3  and  C4_4 
REMARK    3  A    between atoms: C4_4  and  O1_5 
REMARK    4  A    between atoms: C4_4  and  C5_7 
REMARK    5  A    between atoms: C5_7  and  O3_9 
REMARK    6  A    between atoms: O3_9  and  C6_10 
REMARK    7  A    between atoms: C9_13  and  C10_14 
REMARK    8  A    between atoms: C17_21  and  O4_22 
REMARK    9  A    between atoms: O4_22  and  C18_23 
REMARK   10  A    between atoms: C18_23  and  C19_24 
REMARK   11  A    between atoms: C19_24  and  C20_25 
REMARK   12  A    between atoms: C21_31  and  C22_32 
REMARK   13  A    between atoms: C22_32  and  C24_34 
REMARK   14  A    between atoms: C24_34  and  C25_35 
REMARK   15  A    between atoms: C25_35  and  C26_36 
REMARK   16  A    between atoms: C33_43  and  O5_44 
ROOT
HETATM    1  C10 UNL     1      12.665  24.392   4.466  1.00  0.00     0.004 C 
HETATM    2  C11 UNL     1      11.517  24.481   3.820  1.00  0.00    -0.067 C 
HETATM    3  C12 UNL     1      11.385  24.838   2.406  1.00  0.00     0.036 C 
HETATM    4  C13 UNL     1       9.925  25.145   2.241  1.00  0.00     0.017 C 
HETATM    5  C14 UNL     1       9.259  24.118   3.122  1.00  0.00    -0.005 C 
HETATM    6  C15 UNL     1       9.489  22.724   2.667  1.00  0.00     0.019 C 
HETATM    7  C16 UNL     1      10.187  24.242   4.378  1.00  0.00     0.099 C 
HETATM    8  C17 UNL     1       9.573  25.346   5.100  1.00  0.00     0.123 C 
HETATM    9  N1  UNL     1       8.380  25.500   4.748  1.00  0.00    -0.365 N 
ATOM     10  H1  UNL     1       7.756  26.214   5.123  1.00  0.00     0.162 HD
HETATM   11  C21 UNL     1       8.003  24.520   3.729  1.00  0.00     0.121 C 
ENDROOT
BRANCH   1  12
HETATM   12  C9  UNL     1      12.788  24.039   5.855  1.00  0.00     0.003 C 
HETATM   13  C8  UNL     1      13.858  23.511   6.397  1.00  0.00    -0.075 C 
HETATM   14  C7  UNL     1      15.111  23.185   5.700  1.00  0.00     0.066 C 
HETATM   15  C32 UNL     1      13.839  23.187   7.867  1.00  0.00     0.066 C 
HETATM   16  C6  UNL     1      15.182  21.670   5.616  1.00  0.00     0.138 C 
HETATM   17  C34 UNL     1      14.722  21.028   6.904  1.00  0.00     0.065 C 
HETATM   18  C33 UNL     1      14.707  21.991   8.064  1.00  0.00     0.124 C 
BRANCH  16  19
HETATM   19  O3  UNL     1      16.465  21.214   5.228  1.00  0.00    -0.314 OA
BRANCH  19  20
HETATM   20  C5  UNL     1      16.659  20.060   4.487  1.00  0.00     0.288 C 
HETATM   21  O2  UNL     1      17.829  19.608   4.402  1.00  0.00    -0.262 OA
BRANCH  20  22
HETATM   22  C4  UNL     1      15.579  19.328   3.790  1.00  0.00     0.217 C 
BRANCH  22  23
HETATM   23  C3  UNL     1      15.658  19.493   2.290  1.00  0.00     0.041 C 
BRANCH  23  24
HETATM   24  C2  UNL     1      14.407  20.104   1.703  1.00  0.00    -0.002 C 
HETATM   25  C1  UNL     1      14.107  21.438   2.307  1.00  0.00     0.005 C 
ENDBRANCH  23  24
ENDBRANCH  22  23
BRANCH  22  26
HETATM   26  O1  UNL     1      15.497  18.005   4.175  1.00  0.00    -0.386 OA
ATOM     27  H1  UNL     1      14.713  17.819   4.677  1.00  0.00     0.210 HD
ENDBRANCH  22  26
ENDBRANCH  20  22
ENDBRANCH  19  20
ENDBRANCH  16  19
BRANCH  18  28
HETATM   28  O5  UNL     1      16.006  22.296   8.459  1.00  0.00    -0.395 OA
ATOM     29  H5  UNL     1      16.526  22.712   7.781  1.00  0.00     0.210 HD
ENDBRANCH  18  28
ENDBRANCH   1  12
BRANCH   8  30
HETATM   30  O4  UNL     1      10.195  26.149   6.063  1.00  0.00    -0.338 OA
BRANCH  30  31
HETATM   31  C18 UNL     1       9.557  26.350   7.294  1.00  0.00     0.185 C 
BRANCH  31  32
HETATM   32  C19 UNL     1      10.320  25.608   8.366  1.00  0.00     0.144 C 
BRANCH  32  33
HETATM   33  C20 UNL     1      11.435  26.499   8.872  1.00  0.00     0.389 C 
HETATM   34  F1  UNL     1      12.552  26.382   8.067  1.00  0.00    -0.171 F 
HETATM   35  F2  UNL     1      10.994  27.804   8.821  1.00  0.00    -0.171 F 
HETATM   36  F3  UNL     1      11.776  26.175  10.160  1.00  0.00    -0.171 F 
ENDBRANCH  32  33
ENDBRANCH  31  32
ENDBRANCH  30  31
ENDBRANCH   8  30
BRANCH  11  37
HETATM   37  C22 UNL     1       6.852  25.008   3.001  1.00  0.00    -0.061 C 
HETATM   38  C23 UNL     1       5.661  24.077   2.912  1.00  0.00     0.045 C 
BRANCH  37  39
HETATM   39  C24 UNL     1       6.417  26.376   3.079  1.00  0.00     0.001 C 
BRANCH  39  40
HETATM   40  C25 UNL     1       5.446  27.004   3.682  1.00  0.00    -0.022 C 
BRANCH  40  41
HETATM   41  C26 UNL     1       5.202  26.879   5.182  1.00  0.00     0.008 C 
HETATM   42  C27 UNL     1       3.756  26.771   5.505  1.00  0.00     0.008 C 
HETATM   43  C28 UNL     1       3.141  27.989   6.101  1.00  0.00     0.001 C 
HETATM   44  C29 UNL     1       3.938  28.639   7.180  1.00  0.00     0.000 C 
HETATM   45  C30 UNL     1       5.323  28.051   7.324  1.00  0.00     0.001 C 
HETATM   46  C31 UNL     1       5.909  27.989   5.912  1.00  0.00     0.008 C 
ENDBRANCH  40  41
ENDBRANCH  39  40
ENDBRANCH  37  39
ENDBRANCH  11  37
TORSDOF 16
ENDMDL
