MODEL 1
REMARK VINA RESULT: -9.492204768      0.000      0.000
REMARK  11 active torsions:
REMARK  status: ('A' for Active; 'I' for Inactive)
REMARK    1  A    between atoms: O1_2  and  C2_3 
REMARK    2  A    between atoms: C4_5  and  O2_6 
REMARK    3  A    between atoms: O2_6  and  C5_7 
REMARK    4  A    between atoms: C6_8  and  C7_9 
REMARK    5  A    between atoms: C7_9  and  C8_10 
REMARK    6  A    between atoms: C11_16  and  S1_17 
REMARK    7  A    between atoms: C18_24  and  C19_25 
REMARK       I    between atoms: C19_25  and  N1_27 
REMARK    8  A    between atoms: N1_27  and  C20_29 
REMARK    9  A    between atoms: C20_29  and  C21_30 
REMARK   10  A    between atoms: C21_30  and  C22_31 
REMARK   11  A    between atoms: C21_30  and  N2_39 
ROOT
HETATM    1  C2  UNL     1      10.930  24.227   6.137  1.00  0.00     0.086 A 
HETATM    2  C3  UNL     1      10.059  25.055   5.482  1.00  0.00     0.075 A 
HETATM    3  C4  UNL     1       9.654  24.858   4.145  1.00  0.00     0.084 A 
HETATM    4  C15 UNL     1      10.193  23.761   3.519  1.00  0.00    -0.027 A 
HETATM    5  C16 UNL     1       9.807  23.424   2.098  1.00  0.00     0.051 C 
HETATM    6  C17 UNL     1      11.055  22.955   4.193  1.00  0.00     0.029 A 
HETATM    7  C18 UNL     1      11.481  23.121   5.521  1.00  0.00     0.066 A 
ENDROOT
BRANCH   7   8
HETATM    8  C19 UNL     1      12.400  22.189   6.102  1.00  0.00     0.254 C 
HETATM    9  O5  UNL     1      12.034  20.966   6.150  1.00  0.00    -0.268 OA
HETATM   10  N1  UNL     1      13.657  22.465   6.626  1.00  0.00    -0.355 N 
ATOM     11  H1  UNL     1      13.991  23.428   6.613  1.00  0.00     0.162 HD
BRANCH  10  12
HETATM   12  C20 UNL     1      14.520  21.434   7.195  1.00  0.00     0.152 C 
BRANCH  12  13
HETATM   13  C21 UNL     1      15.960  21.526   6.844  1.00  0.00     0.129 C 
BRANCH  13  14
HETATM   14  C22 UNL     1      16.253  20.685   5.619  1.00  0.00    -0.032 A 
HETATM   15  C23 UNL     1      17.418  19.957   5.583  1.00  0.00     0.011 A 
HETATM   16  C24 UNL     1      17.737  19.165   4.480  1.00  0.00     0.026 A 
HETATM   17  C25 UNL     1      16.877  19.102   3.399  1.00  0.00     0.055 A 
HETATM   18 CL1  UNL     1      17.291  18.096   2.010  1.00  0.00    -0.083 Cl
HETATM   19  C26 UNL     1      15.716  19.831   3.439  1.00  0.00     0.056 A 
HETATM   20 CL2  UNL     1      14.630  19.754   2.076  1.00  0.00    -0.083 Cl
HETATM   21  C27 UNL     1      15.398  20.628   4.551  1.00  0.00     0.035 A 
ENDBRANCH  13  14
BRANCH  13  22
HETATM   22  N2  UNL     1      16.892  21.070   7.817  1.00  0.00    -0.411 N 
HETATM   23  C28 UNL     1      17.814  21.996   8.340  1.00  0.00     0.143 C 
HETATM   24  C29 UNL     1      16.341  20.151   8.778  1.00  0.00     0.143 C 
ENDBRANCH  13  22
ENDBRANCH  12  13
ENDBRANCH  10  12
ENDBRANCH   7   8
BRANCH   1  25
HETATM   25  O1  UNL     1      11.258  24.519   7.452  1.00  0.00    -0.355 OA
HETATM   26  C1  UNL     1      11.769  25.781   7.785  1.00  0.00     0.210 C 
ENDBRANCH   1  25
BRANCH   3  27
HETATM   27  O2  UNL     1       8.789  25.742   3.608  1.00  0.00    -0.309 OA
BRANCH  27  28
HETATM   28  C5  UNL     1       7.571  26.232   3.916  1.00  0.00     0.090 A 
HETATM   29  C6  UNL     1       7.417  27.348   4.710  1.00  0.00    -0.011 A 
HETATM   30  C9  UNL     1       6.120  27.796   4.984  1.00  0.00     0.054 A 
HETATM   31  C10 UNL     1       4.993  27.176   4.497  1.00  0.00     0.134 A 
HETATM   32  F1  UNL     1       3.763  27.686   4.819  1.00  0.00    -0.205 F 
HETATM   33  C11 UNL     1       5.128  26.061   3.699  1.00  0.00     0.047 A 
HETATM   34  C13 UNL     1       6.394  25.627   3.433  1.00  0.00    -0.008 A 
HETATM   35  C14 UNL     1       6.541  24.454   2.494  1.00  0.00     0.052 C 
BRANCH  29  36
HETATM   36  C7  UNL     1       8.571  28.110   5.263  1.00  0.00     0.154 C 
BRANCH  36  37
HETATM   37  C8  UNL     1       8.450  28.161   6.720  1.00  0.00     0.177 C 
HETATM   38  O3  UNL     1       8.592  29.249   7.322  1.00  0.00    -0.648 OA
HETATM   39  O4  UNL     1       8.175  27.032   7.502  1.00  0.00    -0.648 OA
ENDBRANCH  36  37
ENDBRANCH  29  36
BRANCH  33  40
HETATM   40  S1  UNL     1       3.698  25.214   3.044  1.00  0.00    -0.131 SA
HETATM   41  C12 UNL     1       3.201  23.834   4.072  1.00  0.00     0.095 C 
ENDBRANCH  33  40
ENDBRANCH  27  28
ENDBRANCH   3  27
TORSDOF 11
ENDMDL
MODEL 2
REMARK VINA RESULT: -9.458633735      5.881     11.530
REMARK  11 active torsions:
REMARK  status: ('A' for Active; 'I' for Inactive)
REMARK    1  A    between atoms: O1_2  and  C2_3 
REMARK    2  A    between atoms: C4_5  and  O2_6 
REMARK    3  A    between atoms: O2_6  and  C5_7 
REMARK    4  A    between atoms: C6_8  and  C7_9 
REMARK    5  A    between atoms: C7_9  and  C8_10 
REMARK    6  A    between atoms: C11_16  and  S1_17 
REMARK    7  A    between atoms: C18_24  and  C19_25 
REMARK       I    between atoms: C19_25  and  N1_27 
REMARK    8  A    between atoms: N1_27  and  C20_29 
REMARK    9  A    between atoms: C20_29  and  C21_30 
REMARK   10  A    between atoms: C21_30  and  C22_31 
REMARK   11  A    between atoms: C21_30  and  N2_39 
ROOT
HETATM    1  C2  UNL     1      14.472  20.654   5.187  1.00  0.00     0.086 A 
HETATM    2  C3  UNL     1      15.669  20.255   5.715  1.00  0.00     0.075 A 
HETATM    3  C4  UNL     1      16.133  20.657   6.984  1.00  0.00     0.084 A 
HETATM    4  C15 UNL     1      15.297  21.492   7.683  1.00  0.00    -0.027 A 
HETATM    5  C16 UNL     1      15.668  21.961   9.070  1.00  0.00     0.051 C 
HETATM    6  C17 UNL     1      14.112  21.873   7.137  1.00  0.00     0.029 A 
HETATM    7  C18 UNL     1      13.620  21.494   5.878  1.00  0.00     0.066 A 
ENDROOT
BRANCH   7   8
HETATM    8  C19 UNL     1      12.349  21.978   5.428  1.00  0.00     0.254 C 
HETATM    9  O5  UNL     1      11.363  21.852   6.232  1.00  0.00    -0.268 OA
HETATM   10  N1  UNL     1      12.062  22.575   4.207  1.00  0.00    -0.355 N 
ATOM     11  H1  UNL     1      12.817  22.694   3.532  1.00  0.00     0.162 HD
BRANCH  10  12
HETATM   12  C20 UNL     1      10.725  23.039   3.849  1.00  0.00     0.152 C 
BRANCH  12  13
HETATM   13  C21 UNL     1      10.525  24.510   3.851  1.00  0.00     0.129 C 
BRANCH  13  14
HETATM   14  C22 UNL     1      10.756  25.066   5.241  1.00  0.00    -0.032 A 
HETATM   15  C23 UNL     1      12.012  25.517   5.570  1.00  0.00     0.011 A 
HETATM   16  C24 UNL     1      12.279  26.040   6.836  1.00  0.00     0.026 A 
HETATM   17  C25 UNL     1      11.275  26.110   7.784  1.00  0.00     0.055 A 
HETATM   18 CL1  UNL     1      11.625  26.773   9.381  1.00  0.00    -0.083 Cl
HETATM   19  C26 UNL     1      10.023  25.658   7.451  1.00  0.00     0.056 A 
HETATM   20 CL2  UNL     1       8.755  25.745   8.646  1.00  0.00    -0.083 Cl
HETATM   21  C27 UNL     1       9.758  25.132   6.176  1.00  0.00     0.035 A 
ENDBRANCH  13  14
BRANCH  13  22
HETATM   22  N2  UNL     1       9.236  24.988   3.490  1.00  0.00    -0.411 N 
HETATM   23  C28 UNL     1       9.154  26.139   2.684  1.00  0.00     0.143 C 
HETATM   24  C29 UNL     1       8.290  23.952   3.167  1.00  0.00     0.143 C 
ENDBRANCH  13  22
ENDBRANCH  12  13
ENDBRANCH  10  12
ENDBRANCH   7   8
BRANCH   1  25
HETATM   25  O1  UNL     1      14.117  20.196   3.928  1.00  0.00    -0.355 OA
HETATM   26  C1  UNL     1      15.076  20.135   2.907  1.00  0.00     0.210 C 
ENDBRANCH   1  25
BRANCH   3  27
HETATM   27  O2  UNL     1      17.332  20.196   7.397  1.00  0.00    -0.309 OA
BRANCH  27  28
HETATM   28  C5  UNL     1      17.928  18.992   7.524  1.00  0.00     0.090 A 
HETATM   29  C6  UNL     1      18.648  18.426   6.494  1.00  0.00    -0.011 A 
HETATM   30  C9  UNL     1      19.237  17.174   6.704  1.00  0.00     0.054 A 
HETATM   31  C10 UNL     1      19.133  16.485   7.890  1.00  0.00     0.134 A 
HETATM   32  F1  UNL     1      19.743  15.264   8.004  1.00  0.00    -0.205 F 
HETATM   33  C11 UNL     1      18.419  17.037   8.931  1.00  0.00     0.047 A 
HETATM   34  C13 UNL     1      17.846  18.258   8.723  1.00  0.00    -0.008 A 
HETATM   35  C14 UNL     1      17.133  18.896   9.892  1.00  0.00     0.052 C 
BRANCH  29  36
HETATM   36  C7  UNL     1      18.847  19.102   5.183  1.00  0.00     0.154 C 
BRANCH  36  37
HETATM   37  C8  UNL     1      18.313  18.245   4.123  1.00  0.00     0.177 C 
HETATM   38  O3  UNL     1      18.857  18.231   2.996  1.00  0.00    -0.648 OA
HETATM   39  O4  UNL     1      17.198  17.417   4.302  1.00  0.00    -0.648 OA
ENDBRANCH  36  37
ENDBRANCH  29  36
BRANCH  33  40
HETATM   40  S1  UNL     1      18.248  16.182  10.490  1.00  0.00    -0.131 SA
HETATM   41  C12 UNL     1      19.782  16.154  11.416  1.00  0.00     0.095 C 
ENDBRANCH  33  40
ENDBRANCH  27  28
ENDBRANCH   3  27
TORSDOF 11
ENDMDL
MODEL 3
REMARK VINA RESULT: -9.456312192      1.158      1.407
REMARK  11 active torsions:
REMARK  status: ('A' for Active; 'I' for Inactive)
REMARK    1  A    between atoms: O1_2  and  C2_3 
REMARK    2  A    between atoms: C4_5  and  O2_6 
REMARK    3  A    between atoms: O2_6  and  C5_7 
REMARK    4  A    between atoms: C6_8  and  C7_9 
REMARK    5  A    between atoms: C7_9  and  C8_10 
REMARK    6  A    between atoms: C11_16  and  S1_17 
REMARK    7  A    between atoms: C18_24  and  C19_25 
REMARK       I    between atoms: C19_25  and  N1_27 
REMARK    8  A    between atoms: N1_27  and  C20_29 
REMARK    9  A    between atoms: C20_29  and  C21_30 
REMARK   10  A    between atoms: C21_30  and  C22_31 
REMARK   11  A    between atoms: C21_30  and  N2_39 
ROOT
HETATM    1  C2  UNL     1      10.433  24.600   6.384  1.00  0.00     0.086 A 
HETATM    2  C3  UNL     1       9.529  25.306   5.638  1.00  0.00     0.075 A 
HETATM    3  C4  UNL     1       9.224  25.006   4.295  1.00  0.00     0.084 A 
HETATM    4  C15 UNL     1       9.899  23.938   3.759  1.00  0.00    -0.027 A 
HETATM    5  C16 UNL     1       9.631  23.497   2.339  1.00  0.00     0.051 C 
HETATM    6  C17 UNL     1      10.792  23.252   4.521  1.00  0.00     0.029 A 
HETATM    7  C18 UNL     1      11.121  23.523   5.859  1.00  0.00     0.066 A 
ENDROOT
BRANCH   7   8
HETATM    8  C19 UNL     1      12.087  22.714   6.539  1.00  0.00     0.254 C 
HETATM    9  O5  UNL     1      11.921  21.447   6.490  1.00  0.00    -0.268 OA
HETATM   10  N1  UNL     1      13.195  23.152   7.253  1.00  0.00    -0.355 N 
ATOM     11  H1  UNL     1      13.367  24.154   7.322  1.00  0.00     0.162 HD
BRANCH  10  12
HETATM   12  C20 UNL     1      14.125  22.237   7.909  1.00  0.00     0.152 C 
BRANCH  12  13
HETATM   13  C21 UNL     1      15.443  22.065   7.247  1.00  0.00     0.129 C 
BRANCH  13  14
HETATM   14  C22 UNL     1      15.254  21.575   5.826  1.00  0.00    -0.032 A 
HETATM   15  C23 UNL     1      15.273  22.494   4.804  1.00  0.00     0.011 A 
HETATM   16  C24 UNL     1      15.105  22.097   3.478  1.00  0.00     0.026 A 
HETATM   17  C25 UNL     1      14.915  20.763   3.170  1.00  0.00     0.055 A 
HETATM   18 CL1  UNL     1      14.704  20.273   1.489  1.00  0.00    -0.083 Cl
HETATM   19  C26 UNL     1      14.896  19.849   4.195  1.00  0.00     0.056 A 
HETATM   20 CL2  UNL     1      14.656  18.165   3.810  1.00  0.00    -0.083 Cl
HETATM   21  C27 UNL     1      15.066  20.252   5.529  1.00  0.00     0.035 A 
ENDBRANCH  13  14
BRANCH  13  22
HETATM   22  N2  UNL     1      16.340  21.126   7.827  1.00  0.00    -0.411 N 
HETATM   23  C28 UNL     1      17.710  21.448   7.862  1.00  0.00     0.143 C 
HETATM   24  C29 UNL     1      15.836  20.482   9.012  1.00  0.00     0.143 C 
ENDBRANCH  13  22
ENDBRANCH  12  13
ENDBRANCH  10  12
ENDBRANCH   7   8
BRANCH   1  25
HETATM   25  O1  UNL     1      10.654  24.985   7.697  1.00  0.00    -0.355 OA
HETATM   26  C1  UNL     1      10.931  26.326   7.998  1.00  0.00     0.210 C 
ENDBRANCH   1  25
BRANCH   3  27
HETATM   27  O2  UNL     1       8.313  25.776   3.664  1.00  0.00    -0.309 OA
BRANCH  27  28
HETATM   28  C5  UNL     1       7.080  26.254   3.932  1.00  0.00     0.090 A 
HETATM   29  C6  UNL     1       6.894  27.424   4.637  1.00  0.00    -0.011 A 
HETATM   30  C9  UNL     1       5.583  27.855   4.874  1.00  0.00     0.054 A 
HETATM   31  C10 UNL     1       4.476  27.168   4.435  1.00  0.00     0.134 A 
HETATM   32  F1  UNL     1       3.231  27.667   4.715  1.00  0.00    -0.205 F 
HETATM   33  C11 UNL     1       4.644  25.999   3.726  1.00  0.00     0.047 A 
HETATM   34  C13 UNL     1       5.923  25.581   3.496  1.00  0.00    -0.008 A 
HETATM   35  C14 UNL     1       6.105  24.343   2.651  1.00  0.00     0.052 C 
BRANCH  29  36
HETATM   36  C7  UNL     1       8.024  28.258   5.130  1.00  0.00     0.154 C 
BRANCH  36  37
HETATM   37  C8  UNL     1       7.976  28.303   6.592  1.00  0.00     0.177 C 
HETATM   38  O3  UNL     1       8.449  29.287   7.203  1.00  0.00    -0.648 OA
HETATM   39  O4  UNL     1       7.415  27.281   7.368  1.00  0.00    -0.648 OA
ENDBRANCH  36  37
ENDBRANCH  29  36
BRANCH  33  40
HETATM   40  S1  UNL     1       3.240  25.065   3.137  1.00  0.00    -0.131 SA
HETATM   41  C12 UNL     1       2.538  25.770   1.647  1.00  0.00     0.095 C 
ENDBRANCH  33  40
ENDBRANCH  27  28
ENDBRANCH   3  27
TORSDOF 11
ENDMDL
MODEL 4
REMARK VINA RESULT: -9.323657411      1.654      3.127
REMARK  11 active torsions:
REMARK  status: ('A' for Active; 'I' for Inactive)
REMARK    1  A    between atoms: O1_2  and  C2_3 
REMARK    2  A    between atoms: C4_5  and  O2_6 
REMARK    3  A    between atoms: O2_6  and  C5_7 
REMARK    4  A    between atoms: C6_8  and  C7_9 
REMARK    5  A    between atoms: C7_9  and  C8_10 
REMARK    6  A    between atoms: C11_16  and  S1_17 
REMARK    7  A    between atoms: C18_24  and  C19_25 
REMARK       I    between atoms: C19_25  and  N1_27 
REMARK    8  A    between atoms: N1_27  and  C20_29 
REMARK    9  A    between atoms: C20_29  and  C21_30 
REMARK   10  A    between atoms: C21_30  and  C22_31 
REMARK   11  A    between atoms: C21_30  and  N2_39 
ROOT
HETATM    1  C2  UNL     1      10.901  23.903   5.125  1.00  0.00     0.086 A 
HETATM    2  C3  UNL     1      10.130  25.022   4.969  1.00  0.00     0.075 A 
HETATM    3  C4  UNL     1      10.005  26.025   5.953  1.00  0.00     0.084 A 
HETATM    4  C15 UNL     1      10.718  25.814   7.106  1.00  0.00    -0.027 A 
HETATM    5  C16 UNL     1      10.693  26.835   8.220  1.00  0.00     0.051 C 
HETATM    6  C17 UNL     1      11.477  24.694   7.236  1.00  0.00     0.029 A 
HETATM    7  C18 UNL     1      11.624  23.676   6.280  1.00  0.00     0.066 A 
ENDROOT
BRANCH   7   8
HETATM    8  C19 UNL     1      12.459  22.546   6.556  1.00  0.00     0.254 C 
HETATM    9  O5  UNL     1      11.937  21.389   6.408  1.00  0.00    -0.268 OA
HETATM   10  N1  UNL     1      13.785  22.563   6.969  1.00  0.00    -0.355 N 
ATOM     11  H1  UNL     1      14.244  23.464   7.102  1.00  0.00     0.162 HD
BRANCH  10  12
HETATM   12  C20 UNL     1      14.551  21.345   7.219  1.00  0.00     0.152 C 
BRANCH  12  13
HETATM   13  C21 UNL     1      15.997  21.407   6.886  1.00  0.00     0.129 C 
BRANCH  13  14
HETATM   14  C22 UNL     1      16.280  20.597   5.638  1.00  0.00    -0.032 A 
HETATM   15  C23 UNL     1      17.436  19.856   5.581  1.00  0.00     0.011 A 
HETATM   16  C24 UNL     1      17.745  19.091   4.456  1.00  0.00     0.026 A 
HETATM   17  C25 UNL     1      16.884  19.068   3.374  1.00  0.00     0.055 A 
HETATM   18 CL1  UNL     1      17.285  18.096   1.958  1.00  0.00    -0.083 Cl
HETATM   19  C26 UNL     1      15.731  19.809   3.436  1.00  0.00     0.056 A 
HETATM   20 CL2  UNL     1      14.643  19.782   2.072  1.00  0.00    -0.083 Cl
HETATM   21  C27 UNL     1      15.423  20.578   4.570  1.00  0.00     0.035 A 
ENDBRANCH  13  14
BRANCH  13  22
HETATM   22  N2  UNL     1      16.905  20.894   7.853  1.00  0.00    -0.411 N 
HETATM   23  C28 UNL     1      17.909  21.750   8.342  1.00  0.00     0.143 C 
HETATM   24  C29 UNL     1      16.297  20.043   8.842  1.00  0.00     0.143 C 
ENDBRANCH  13  22
ENDBRANCH  12  13
ENDBRANCH  10  12
ENDBRANCH   7   8
BRANCH   1  25
HETATM   25  O1  UNL     1      10.949  22.982   4.089  1.00  0.00    -0.355 OA
HETATM   26  C1  UNL     1       9.988  23.020   3.070  1.00  0.00     0.210 C 
ENDBRANCH   1  25
BRANCH   3  27
HETATM   27  O2  UNL     1       9.214  27.084   5.682  1.00  0.00    -0.309 OA
BRANCH  27  28
HETATM   28  C5  UNL     1       7.935  27.280   5.300  1.00  0.00     0.090 A 
HETATM   29  C6  UNL     1       7.540  27.138   3.987  1.00  0.00    -0.011 A 
HETATM   30  C9  UNL     1       6.195  27.358   3.671  1.00  0.00     0.054 A 
HETATM   31  C10 UNL     1       5.250  27.706   4.607  1.00  0.00     0.134 A 
HETATM   32  F1  UNL     1       3.956  27.901   4.204  1.00  0.00    -0.205 F 
HETATM   33  C11 UNL     1       5.627  27.849   5.924  1.00  0.00     0.047 A 
HETATM   34  C13 UNL     1       6.939  27.634   6.231  1.00  0.00    -0.008 A 
HETATM   35  C14 UNL     1       7.333  27.712   7.687  1.00  0.00     0.052 C 
BRANCH  29  36
HETATM   36  C7  UNL     1       8.476  26.735   2.902  1.00  0.00     0.154 C 
BRANCH  36  37
HETATM   37  C8  UNL     1       8.194  27.538   1.712  1.00  0.00     0.177 C 
HETATM   38  O3  UNL     1       8.552  28.737   1.666  1.00  0.00    -0.648 OA
HETATM   39  O4  UNL     1       7.530  27.029   0.589  1.00  0.00    -0.648 OA
ENDBRANCH  36  37
ENDBRANCH  29  36
BRANCH  33  40
HETATM   40  S1  UNL     1       4.442  28.304   7.181  1.00  0.00    -0.131 SA
HETATM   41  C12 UNL     1       3.672  29.886   6.842  1.00  0.00     0.095 C 
ENDBRANCH  33  40
ENDBRANCH  27  28
ENDBRANCH   3  27
TORSDOF 11
ENDMDL
MODEL 5
REMARK VINA RESULT: -9.296870856      1.889      3.352
REMARK  11 active torsions:
REMARK  status: ('A' for Active; 'I' for Inactive)
REMARK    1  A    between atoms: O1_2  and  C2_3 
REMARK    2  A    between atoms: C4_5  and  O2_6 
REMARK    3  A    between atoms: O2_6  and  C5_7 
REMARK    4  A    between atoms: C6_8  and  C7_9 
REMARK    5  A    between atoms: C7_9  and  C8_10 
REMARK    6  A    between atoms: C11_16  and  S1_17 
REMARK    7  A    between atoms: C18_24  and  C19_25 
REMARK       I    between atoms: C19_25  and  N1_27 
REMARK    8  A    between atoms: N1_27  and  C20_29 
REMARK    9  A    between atoms: C20_29  and  C21_30 
REMARK   10  A    between atoms: C21_30  and  C22_31 
REMARK   11  A    between atoms: C21_30  and  N2_39 
ROOT
HETATM    1  C2  UNL     1      10.971  24.128   5.493  1.00  0.00     0.086 A 
HETATM    2  C3  UNL     1      10.144  25.182   5.221  1.00  0.00     0.075 A 
HETATM    3  C4  UNL     1       9.923  26.249   6.116  1.00  0.00     0.084 A 
HETATM    4  C15 UNL     1      10.600  26.173   7.307  1.00  0.00    -0.027 A 
HETATM    5  C16 UNL     1      10.472  27.275   8.333  1.00  0.00     0.051 C 
HETATM    6  C17 UNL     1      11.416  25.114   7.553  1.00  0.00     0.029 A 
HETATM    7  C18 UNL     1      11.659  24.035   6.688  1.00  0.00     0.066 A 
ENDROOT
BRANCH   7   8
HETATM    8  C19 UNL     1      12.546  22.983   7.082  1.00  0.00     0.254 C 
HETATM    9  O5  UNL     1      12.202  21.790   6.778  1.00  0.00    -0.268 OA
HETATM   10  N1  UNL     1      13.749  23.110   7.765  1.00  0.00    -0.355 N 
ATOM     11  H1  UNL     1      14.063  24.043   8.032  1.00  0.00     0.162 HD
BRANCH  10  12
HETATM   12  C20 UNL     1      14.583  21.965   8.117  1.00  0.00     0.152 C 
BRANCH  12  13
HETATM   13  C21 UNL     1      15.834  21.806   7.332  1.00  0.00     0.129 C 
BRANCH  13  14
HETATM   14  C22 UNL     1      15.508  21.418   5.904  1.00  0.00    -0.032 A 
HETATM   15  C23 UNL     1      15.451  22.405   4.950  1.00  0.00     0.011 A 
HETATM   16  C24 UNL     1      15.157  22.104   3.620  1.00  0.00     0.026 A 
HETATM   17  C25 UNL     1      14.915  20.795   3.242  1.00  0.00     0.055 A 
HETATM   18 CL1  UNL     1      14.544  20.426   1.558  1.00  0.00    -0.083 Cl
HETATM   19  C26 UNL     1      14.972  19.814   4.199  1.00  0.00     0.056 A 
HETATM   20 CL2  UNL     1      14.668  18.163   3.724  1.00  0.00    -0.083 Cl
HETATM   21  C27 UNL     1      15.269  20.121   5.537  1.00  0.00     0.035 A 
ENDBRANCH  13  14
BRANCH  13  22
HETATM   22  N2  UNL     1      16.749  20.809   7.768  1.00  0.00    -0.411 N 
HETATM   23  C28 UNL     1      18.126  21.080   7.669  1.00  0.00     0.143 C 
HETATM   24  C29 UNL     1      16.349  20.126   8.970  1.00  0.00     0.143 C 
ENDBRANCH  13  22
ENDBRANCH  12  13
ENDBRANCH  10  12
ENDBRANCH   7   8
BRANCH   1  25
HETATM   25  O1  UNL     1      11.113  23.133   4.537  1.00  0.00    -0.355 OA
HETATM   26  C1  UNL     1      11.768  23.408   3.329  1.00  0.00     0.210 C 
ENDBRANCH   1  25
BRANCH   3  27
HETATM   27  O2  UNL     1       9.084  27.235   5.733  1.00  0.00    -0.309 OA
BRANCH  27  28
HETATM   28  C5  UNL     1       7.803  27.326   5.321  1.00  0.00     0.090 A 
HETATM   29  C6  UNL     1       7.444  27.100   4.010  1.00  0.00    -0.011 A 
HETATM   30  C9  UNL     1       6.093  27.214   3.661  1.00  0.00     0.054 A 
HETATM   31  C10 UNL     1       5.109  27.537   4.566  1.00  0.00     0.134 A 
HETATM   32  F1  UNL     1       3.813  27.626   4.133  1.00  0.00    -0.205 F 
HETATM   33  C11 UNL     1       5.449  27.763   5.881  1.00  0.00     0.047 A 
HETATM   34  C13 UNL     1       6.767  27.652   6.219  1.00  0.00    -0.008 A 
HETATM   35  C14 UNL     1       7.125  27.821   7.676  1.00  0.00     0.052 C 
BRANCH  29  36
HETATM   36  C7  UNL     1       8.426  26.715   2.960  1.00  0.00     0.154 C 
BRANCH  36  37
HETATM   37  C8  UNL     1       8.195  27.537   1.772  1.00  0.00     0.177 C 
HETATM   38  O3  UNL     1       8.488  28.754   1.785  1.00  0.00    -0.648 OA
HETATM   39  O4  UNL     1       7.651  27.027   0.586  1.00  0.00    -0.648 OA
ENDBRANCH  36  37
ENDBRANCH  29  36
BRANCH  33  40
HETATM   40  S1  UNL     1       4.212  28.191   7.096  1.00  0.00    -0.131 SA
HETATM   41  C12 UNL     1       3.537  29.829   6.824  1.00  0.00     0.095 C 
ENDBRANCH  33  40
ENDBRANCH  27  28
ENDBRANCH   3  27
TORSDOF 11
ENDMDL
