MODEL 1
REMARK VINA RESULT: -8.810108316      0.000      0.000
REMARK  11 active torsions:
REMARK  status: ('A' for Active; 'I' for Inactive)
REMARK    1  A    between atoms: O1_2  and  C2_3 
REMARK    2  A    between atoms: C7_9  and  N1_10 
REMARK       I    between atoms: C8_12  and  N2_13 
REMARK       I    between atoms: C8_12  and  N4_17 
REMARK    3  A    between atoms: N4_17  and  C10_19 
REMARK    4  A    between atoms: C14_24  and  O2_25 
REMARK    5  A    between atoms: O2_25  and  C15_26 
REMARK    6  A    between atoms: C15_26  and  C16_27 
REMARK    7  A    between atoms: C16_27  and  C17_28 
REMARK    8  A    between atoms: C17_28  and  C18_29 
REMARK    9  A    between atoms: C18_29  and  C19_30 
REMARK   10  A    between atoms: C19_30  and  N5_31 
REMARK   11  A    between atoms: C25_37  and  S1_38 
ROOT
HETATM    1  N1  UNL     1      18.511  18.889   6.912  1.00  0.00    -0.188 N 
ATOM      2  H1  UNL     1      19.110  19.104   6.116  1.00  0.00     0.184 HD
HETATM    3  C8  UNL     1      17.533  19.654   7.141  1.00  0.00     0.692 C 
HETATM    4  N2  UNL     1      16.599  19.508   8.193  1.00  0.00    -0.126 N 
ATOM      5  H2  UNL     1      16.415  18.587   8.591  1.00  0.00     0.197 HD
HETATM    6  C9  UNL     1      15.920  20.647   8.689  1.00  0.00     0.196 C 
HETATM    7  N3  UNL     1      15.348  21.573   9.085  1.00  0.00    -0.171 NA
HETATM    8  N4  UNL     1      17.381  20.774   6.219  1.00  0.00    -0.190 N 
ATOM      9  H4  UNL     1      17.848  21.662   6.402  1.00  0.00     0.184 HD
ENDROOT
BRANCH   1  10
HETATM   10  C7  UNL     1      18.823  17.760   7.686  1.00  0.00     0.082 A 
HETATM   11  C2  UNL     1      19.259  17.871   8.999  1.00  0.00     0.096 A 
HETATM   12  C3  UNL     1      19.518  16.731   9.747  1.00  0.00     0.058 A 
HETATM   13  C4  UNL     1      19.337  15.500   9.158  1.00  0.00     0.013 A 
HETATM   14 BR1  UNL     1      19.696  13.926  10.188  1.00  0.00    -0.051 Br
HETATM   15  C5  UNL     1      18.909  15.351   7.863  1.00  0.00     0.021 A 
HETATM   16  C6  UNL     1      18.656  16.480   7.136  1.00  0.00     0.034 A 
BRANCH  11  17
HETATM   17  O1  UNL     1      19.440  19.112   9.561  1.00  0.00    -0.354 OA
HETATM   18  C1  UNL     1      19.429  19.436  10.922  1.00  0.00     0.210 C 
ENDBRANCH  11  17
ENDBRANCH   1  10
BRANCH   8  19
HETATM   19  C10 UNL     1      16.574  20.606   5.064  1.00  0.00     0.069 A 
HETATM   20  C11 UNL     1      16.742  19.452   4.324  1.00  0.00     0.033 A 
HETATM   21  C12 UNL     1      15.990  19.243   3.203  1.00  0.00     0.029 A 
HETATM   22  C13 UNL     1      15.048  20.192   2.792  1.00  0.00     0.068 A 
HETATM   23 CL1  UNL     1      14.200  19.799   1.307  1.00  0.00    -0.081 Cl
HETATM   24  C14 UNL     1      14.887  21.324   3.523  1.00  0.00     0.109 A 
HETATM   25  C25 UNL     1      15.653  21.556   4.684  1.00  0.00     0.062 A 
BRANCH  24  26
HETATM   26  O2  UNL     1      14.011  22.310   3.223  1.00  0.00    -0.348 OA
BRANCH  26  27
HETATM   27  C15 UNL     1      12.692  22.410   2.996  1.00  0.00     0.176 C 
BRANCH  27  28
HETATM   28  C16 UNL     1      11.732  23.233   3.748  1.00  0.00     0.027 C 
BRANCH  28  29
HETATM   29  C17 UNL     1      11.519  24.632   3.248  1.00  0.00     0.004 C 
BRANCH  29  30
HETATM   30  C18 UNL     1      11.608  25.653   4.330  1.00  0.00     0.030 C 
BRANCH  30  31
HETATM   31  C19 UNL     1      10.294  26.040   4.896  1.00  0.00     0.272 C 
BRANCH  31  32
HETATM   32  N5  UNL     1      10.315  26.120   6.341  1.00  0.00     0.088 N 
HETATM   33  C20 UNL     1      11.603  26.003   6.937  1.00  0.00     0.272 C 
HETATM   34  C21 UNL     1      11.508  25.533   8.378  1.00  0.00     0.030 C 
HETATM   35  C22 UNL     1      10.351  26.251   9.047  1.00  0.00     0.003 C 
HETATM   36  C23 UNL     1      10.007  27.508   8.266  1.00  0.00     0.030 C 
HETATM   37  C24 UNL     1       9.505  27.163   6.887  1.00  0.00     0.272 C 
ENDBRANCH  31  32
ENDBRANCH  30  31
ENDBRANCH  29  30
ENDBRANCH  28  29
ENDBRANCH  27  28
ENDBRANCH  26  27
ENDBRANCH  24  26
BRANCH  25  38
HETATM   38  S1  UNL     1      15.505  23.055   5.600  1.00  0.00    -0.129 SA
HETATM   39  C26 UNL     1      13.992  23.229   6.535  1.00  0.00     0.095 C 
ENDBRANCH  25  38
ENDBRANCH   8  19
TORSDOF 11
ENDMDL
MODEL 2
REMARK VINA RESULT: -8.794714691      1.048      1.846
REMARK  11 active torsions:
REMARK  status: ('A' for Active; 'I' for Inactive)
REMARK    1  A    between atoms: O1_2  and  C2_3 
REMARK    2  A    between atoms: C7_9  and  N1_10 
REMARK       I    between atoms: C8_12  and  N2_13 
REMARK       I    between atoms: C8_12  and  N4_17 
REMARK    3  A    between atoms: N4_17  and  C10_19 
REMARK    4  A    between atoms: C14_24  and  O2_25 
REMARK    5  A    between atoms: O2_25  and  C15_26 
REMARK    6  A    between atoms: C15_26  and  C16_27 
REMARK    7  A    between atoms: C16_27  and  C17_28 
REMARK    8  A    between atoms: C17_28  and  C18_29 
REMARK    9  A    between atoms: C18_29  and  C19_30 
REMARK   10  A    between atoms: C19_30  and  N5_31 
REMARK   11  A    between atoms: C25_37  and  S1_38 
ROOT
HETATM    1  N1  UNL     1      18.440  18.859   7.193  1.00  0.00    -0.188 N 
ATOM      2  H1  UNL     1      19.076  19.050   6.419  1.00  0.00     0.184 HD
HETATM    3  C8  UNL     1      17.468  19.646   7.368  1.00  0.00     0.692 C 
HETATM    4  N2  UNL     1      16.488  19.535   8.382  1.00  0.00    -0.126 N 
ATOM      5  H2  UNL     1      16.271  18.624   8.788  1.00  0.00     0.197 HD
HETATM    6  C9  UNL     1      15.811  20.694   8.831  1.00  0.00     0.196 C 
HETATM    7  N3  UNL     1      15.241  21.637   9.188  1.00  0.00    -0.171 NA
HETATM    8  N4  UNL     1      17.375  20.752   6.423  1.00  0.00    -0.190 N 
ATOM      9  H4  UNL     1      17.850  21.635   6.610  1.00  0.00     0.184 HD
ENDROOT
BRANCH   1  10
HETATM   10  C7  UNL     1      18.698  17.739   7.997  1.00  0.00     0.082 A 
HETATM   11  C2  UNL     1      18.619  16.446   7.499  1.00  0.00     0.096 A 
HETATM   12  C3  UNL     1      18.924  15.365   8.315  1.00  0.00     0.058 A 
HETATM   13  C4  UNL     1      19.298  15.604   9.617  1.00  0.00     0.013 A 
HETATM   14 BR1  UNL     1      19.716  14.113  10.743  1.00  0.00    -0.051 Br
HETATM   15  C5  UNL     1      19.386  16.867  10.145  1.00  0.00     0.021 A 
HETATM   16  C6  UNL     1      19.086  17.925   9.334  1.00  0.00     0.034 A 
BRANCH  11  17
HETATM   17  O1  UNL     1      18.235  16.233   6.197  1.00  0.00    -0.354 OA
HETATM   18  C1  UNL     1      19.066  16.084   5.082  1.00  0.00     0.210 C 
ENDBRANCH  11  17
ENDBRANCH   1  10
BRANCH   8  19
HETATM   19  C10 UNL     1      16.613  20.579   5.237  1.00  0.00     0.069 A 
HETATM   20  C11 UNL     1      16.822  19.430   4.500  1.00  0.00     0.033 A 
HETATM   21  C12 UNL     1      16.115  19.216   3.352  1.00  0.00     0.029 A 
HETATM   22  C13 UNL     1      15.178  20.156   2.909  1.00  0.00     0.068 A 
HETATM   23 CL1  UNL     1      14.390  19.758   1.392  1.00  0.00    -0.081 Cl
HETATM   24  C14 UNL     1      14.976  21.283   3.637  1.00  0.00     0.109 A 
HETATM   25  C25 UNL     1      15.697  21.520   4.826  1.00  0.00     0.062 A 
BRANCH  24  26
HETATM   26  O2  UNL     1      14.101  22.260   3.307  1.00  0.00    -0.348 OA
BRANCH  26  27
HETATM   27  C15 UNL     1      12.779  22.359   3.100  1.00  0.00     0.176 C 
BRANCH  27  28
HETATM   28  C16 UNL     1      11.940  23.543   3.337  1.00  0.00     0.027 C 
BRANCH  28  29
HETATM   29  C17 UNL     1      10.558  23.286   3.867  1.00  0.00     0.004 C 
BRANCH  29  30
HETATM   30  C18 UNL     1       9.939  24.497   4.477  1.00  0.00     0.030 C 
BRANCH  30  31
HETATM   31  C19 UNL     1      10.924  25.501   4.945  1.00  0.00     0.272 C 
BRANCH  31  32
HETATM   32  N5  UNL     1      10.748  25.842   6.340  1.00  0.00     0.088 N 
HETATM   33  C20 UNL     1       9.786  25.059   7.040  1.00  0.00     0.272 C 
HETATM   34  C21 UNL     1       9.250  25.794   8.256  1.00  0.00     0.030 C 
HETATM   35  C22 UNL     1      10.405  26.494   8.947  1.00  0.00     0.003 C 
HETATM   36  C23 UNL     1      11.718  25.853   8.527  1.00  0.00     0.030 C 
HETATM   37  C24 UNL     1      11.967  26.054   7.054  1.00  0.00     0.272 C 
ENDBRANCH  31  32
ENDBRANCH  30  31
ENDBRANCH  29  30
ENDBRANCH  28  29
ENDBRANCH  27  28
ENDBRANCH  26  27
ENDBRANCH  24  26
BRANCH  25  38
HETATM   38  S1  UNL     1      15.498  23.014   5.740  1.00  0.00    -0.129 SA
HETATM   39  C26 UNL     1      13.910  23.214   6.536  1.00  0.00     0.095 C 
ENDBRANCH  25  38
ENDBRANCH   8  19
TORSDOF 11
ENDMDL
MODEL 3
REMARK VINA RESULT: -8.617245269      5.733     12.233
REMARK  11 active torsions:
REMARK  status: ('A' for Active; 'I' for Inactive)
REMARK    1  A    between atoms: O1_2  and  C2_3 
REMARK    2  A    between atoms: C7_9  and  N1_10 
REMARK       I    between atoms: C8_12  and  N2_13 
REMARK       I    between atoms: C8_12  and  N4_17 
REMARK    3  A    between atoms: N4_17  and  C10_19 
REMARK    4  A    between atoms: C14_24  and  O2_25 
REMARK    5  A    between atoms: O2_25  and  C15_26 
REMARK    6  A    between atoms: C15_26  and  C16_27 
REMARK    7  A    between atoms: C16_27  and  C17_28 
REMARK    8  A    between atoms: C17_28  and  C18_29 
REMARK    9  A    between atoms: C18_29  and  C19_30 
REMARK   10  A    between atoms: C19_30  and  N5_31 
REMARK   11  A    between atoms: C25_37  and  S1_38 
ROOT
HETATM    1  N1  UNL     1       6.792  27.070   4.273  1.00  0.00    -0.188 N 
ATOM      2  H1  UNL     1       7.139  28.006   4.480  1.00  0.00     0.184 HD
HETATM    3  C8  UNL     1       7.639  26.156   4.071  1.00  0.00     0.692 C 
HETATM    4  N2  UNL     1       7.342  24.805   3.776  1.00  0.00    -0.126 N 
ATOM      5  H2  UNL     1       6.461  24.394   4.086  1.00  0.00     0.197 HD
HETATM    6  C9  UNL     1       8.274  24.026   3.048  1.00  0.00     0.196 C 
HETATM    7  N3  UNL     1       9.041  23.379   2.471  1.00  0.00    -0.171 NA
HETATM    8  N4  UNL     1       9.036  26.563   4.159  1.00  0.00    -0.190 N 
ATOM      9  H4  UNL     1       9.528  26.911   3.336  1.00  0.00     0.184 HD
ENDROOT
BRANCH   1  10
HETATM   10  C7  UNL     1       5.402  26.876   4.231  1.00  0.00     0.082 A 
HETATM   11  C2  UNL     1       4.726  26.683   3.034  1.00  0.00     0.096 A 
HETATM   12  C3  UNL     1       3.358  26.452   3.036  1.00  0.00     0.058 A 
HETATM   13  C4  UNL     1       2.694  26.424   4.241  1.00  0.00     0.013 A 
HETATM   14 BR1  UNL     1       0.806  26.109   4.244  1.00  0.00    -0.051 Br
HETATM   15  C5  UNL     1       3.327  26.613   5.443  1.00  0.00     0.021 A 
HETATM   16  C6  UNL     1       4.675  26.838   5.431  1.00  0.00     0.034 A 
BRANCH  11  17
HETATM   17  O1  UNL     1       5.412  26.723   1.843  1.00  0.00    -0.354 OA
HETATM   18  C1  UNL     1       5.341  25.801   0.794  1.00  0.00     0.210 C 
ENDBRANCH  11  17
ENDBRANCH   1  10
BRANCH   8  19
HETATM   19  C10 UNL     1       9.701  26.467   5.410  1.00  0.00     0.069 A 
HETATM   20  C11 UNL     1       9.100  27.057   6.504  1.00  0.00     0.033 A 
HETATM   21  C12 UNL     1       9.698  26.995   7.730  1.00  0.00     0.029 A 
HETATM   22  C13 UNL     1      10.923  26.338   7.890  1.00  0.00     0.068 A 
HETATM   23 CL1  UNL     1      11.584  26.388   9.515  1.00  0.00    -0.081 Cl
HETATM   24  C14 UNL     1      11.509  25.759   6.812  1.00  0.00     0.109 A 
HETATM   25  C25 UNL     1      10.905  25.813   5.539  1.00  0.00     0.062 A 
BRANCH  24  26
HETATM   26  O2  UNL     1      12.690  25.100   6.845  1.00  0.00    -0.348 OA
BRANCH  26  27
HETATM   27  C15 UNL     1      13.178  23.999   7.438  1.00  0.00     0.176 C 
BRANCH  27  28
HETATM   28  C16 UNL     1      14.442  23.319   7.117  1.00  0.00     0.027 C 
BRANCH  28  29
HETATM   29  C17 UNL     1      14.608  21.930   7.665  1.00  0.00     0.004 C 
BRANCH  29  30
HETATM   30  C18 UNL     1      15.345  21.027   6.737  1.00  0.00     0.030 C 
BRANCH  30  31
HETATM   31  C19 UNL     1      15.862  21.707   5.526  1.00  0.00     0.272 C 
BRANCH  31  32
HETATM   32  N5  UNL     1      15.502  21.017   4.306  1.00  0.00     0.088 N 
HETATM   33  C20 UNL     1      14.775  19.805   4.486  1.00  0.00     0.272 C 
HETATM   34  C21 UNL     1      14.927  18.883   3.289  1.00  0.00     0.030 C 
HETATM   35  C22 UNL     1      14.844  19.715   2.022  1.00  0.00     0.003 C 
HETATM   36  C23 UNL     1      14.163  21.039   2.323  1.00  0.00     0.030 C 
HETATM   37  C24 UNL     1      14.988  21.864   3.277  1.00  0.00     0.272 C 
ENDBRANCH  31  32
ENDBRANCH  30  31
ENDBRANCH  29  30
ENDBRANCH  28  29
ENDBRANCH  27  28
ENDBRANCH  26  27
ENDBRANCH  24  26
BRANCH  25  38
HETATM   38  S1  UNL     1      11.692  25.130   4.116  1.00  0.00    -0.129 SA
HETATM   39  C26 UNL     1      11.834  23.348   4.108  1.00  0.00     0.095 C 
ENDBRANCH  25  38
ENDBRANCH   8  19
TORSDOF 11
ENDMDL
MODEL 4
REMARK VINA RESULT: -8.509835295      5.793     12.161
REMARK  11 active torsions:
REMARK  status: ('A' for Active; 'I' for Inactive)
REMARK    1  A    between atoms: O1_2  and  C2_3 
REMARK    2  A    between atoms: C7_9  and  N1_10 
REMARK       I    between atoms: C8_12  and  N2_13 
REMARK       I    between atoms: C8_12  and  N4_17 
REMARK    3  A    between atoms: N4_17  and  C10_19 
REMARK    4  A    between atoms: C14_24  and  O2_25 
REMARK    5  A    between atoms: O2_25  and  C15_26 
REMARK    6  A    between atoms: C15_26  and  C16_27 
REMARK    7  A    between atoms: C16_27  and  C17_28 
REMARK    8  A    between atoms: C17_28  and  C18_29 
REMARK    9  A    between atoms: C18_29  and  C19_30 
REMARK   10  A    between atoms: C19_30  and  N5_31 
REMARK   11  A    between atoms: C25_37  and  S1_38 
ROOT
HETATM    1  N1  UNL     1       6.670  27.022   4.217  1.00  0.00    -0.188 N 
ATOM      2  H1  UNL     1       6.991  27.970   4.410  1.00  0.00     0.184 HD
HETATM    3  C8  UNL     1       7.542  26.127   4.034  1.00  0.00     0.692 C 
HETATM    4  N2  UNL     1       7.282  24.764   3.760  1.00  0.00    -0.126 N 
ATOM      5  H2  UNL     1       6.410  24.336   4.072  1.00  0.00     0.197 HD
HETATM    6  C9  UNL     1       8.237  23.999   3.049  1.00  0.00     0.196 C 
HETATM    7  N3  UNL     1       9.024  23.363   2.485  1.00  0.00    -0.171 NA
HETATM    8  N4  UNL     1       8.927  26.572   4.121  1.00  0.00    -0.190 N 
ATOM      9  H4  UNL     1       9.414  26.920   3.295  1.00  0.00     0.184 HD
ENDROOT
BRANCH   1  10
HETATM   10  C7  UNL     1       5.286  26.791   4.171  1.00  0.00     0.082 A 
HETATM   11  C2  UNL     1       4.508  26.776   5.321  1.00  0.00     0.096 A 
HETATM   12  C3  UNL     1       3.136  26.586   5.232  1.00  0.00     0.058 A 
HETATM   13  C4  UNL     1       2.573  26.411   3.989  1.00  0.00     0.013 A 
HETATM   14 BR1  UNL     1       0.681  26.147   3.865  1.00  0.00    -0.051 Br
HETATM   15  C5  UNL     1       3.309  26.417   2.831  1.00  0.00     0.021 A 
HETATM   16  C6  UNL     1       4.659  26.606   2.929  1.00  0.00     0.034 A 
BRANCH  11  17
HETATM   17  O1  UNL     1       5.096  26.946   6.551  1.00  0.00    -0.354 OA
HETATM   18  C1  UNL     1       5.123  28.111   7.324  1.00  0.00     0.210 C 
ENDBRANCH  11  17
ENDBRANCH   1  10
BRANCH   8  19
HETATM   19  C10 UNL     1       9.588  26.514   5.377  1.00  0.00     0.069 A 
HETATM   20  C11 UNL     1       8.978  27.128   6.453  1.00  0.00     0.033 A 
HETATM   21  C12 UNL     1       9.572  27.102   7.682  1.00  0.00     0.029 A 
HETATM   22  C13 UNL     1      10.801  26.459   7.864  1.00  0.00     0.068 A 
HETATM   23 CL1  UNL     1      11.456  26.557   9.489  1.00  0.00    -0.081 Cl
HETATM   24  C14 UNL     1      11.396  25.857   6.803  1.00  0.00     0.109 A 
HETATM   25  C25 UNL     1      10.796  25.873   5.527  1.00  0.00     0.062 A 
BRANCH  24  26
HETATM   26  O2  UNL     1      12.582  25.209   6.858  1.00  0.00    -0.348 OA
BRANCH  26  27
HETATM   27  C15 UNL     1      13.051  24.073   7.398  1.00  0.00     0.176 C 
BRANCH  27  28
HETATM   28  C16 UNL     1      14.240  23.323   6.967  1.00  0.00     0.027 C 
BRANCH  28  29
HETATM   29  C17 UNL     1      14.421  21.958   7.567  1.00  0.00     0.004 C 
BRANCH  29  30
HETATM   30  C18 UNL     1      15.377  21.111   6.800  1.00  0.00     0.030 C 
BRANCH  30  31
HETATM   31  C19 UNL     1      15.930  21.775   5.596  1.00  0.00     0.272 C 
BRANCH  31  32
HETATM   32  N5  UNL     1      15.532  21.120   4.369  1.00  0.00     0.088 N 
HETATM   33  C20 UNL     1      14.841  19.886   4.536  1.00  0.00     0.272 C 
HETATM   34  C21 UNL     1      14.959  19.010   3.301  1.00  0.00     0.030 C 
HETATM   35  C22 UNL     1      14.802  19.884   2.070  1.00  0.00     0.003 C 
HETATM   36  C23 UNL     1      14.106  21.181   2.448  1.00  0.00     0.030 C 
HETATM   37  C24 UNL     1      14.955  21.991   3.394  1.00  0.00     0.272 C 
ENDBRANCH  31  32
ENDBRANCH  30  31
ENDBRANCH  29  30
ENDBRANCH  28  29
ENDBRANCH  27  28
ENDBRANCH  26  27
ENDBRANCH  24  26
BRANCH  25  38
HETATM   38  S1  UNL     1      11.594  25.160   4.126  1.00  0.00    -0.129 SA
HETATM   39  C26 UNL     1      11.745  23.379   4.161  1.00  0.00     0.095 C 
ENDBRANCH  25  38
ENDBRANCH   8  19
TORSDOF 11
ENDMDL
MODEL 5
REMARK VINA RESULT: -8.471913865      5.980     12.317
REMARK  11 active torsions:
REMARK  status: ('A' for Active; 'I' for Inactive)
REMARK    1  A    between atoms: O1_2  and  C2_3 
REMARK    2  A    between atoms: C7_9  and  N1_10 
REMARK       I    between atoms: C8_12  and  N2_13 
REMARK       I    between atoms: C8_12  and  N4_17 
REMARK    3  A    between atoms: N4_17  and  C10_19 
REMARK    4  A    between atoms: C14_24  and  O2_25 
REMARK    5  A    between atoms: O2_25  and  C15_26 
REMARK    6  A    between atoms: C15_26  and  C16_27 
REMARK    7  A    between atoms: C16_27  and  C17_28 
REMARK    8  A    between atoms: C17_28  and  C18_29 
REMARK    9  A    between atoms: C18_29  and  C19_30 
REMARK   10  A    between atoms: C19_30  and  N5_31 
REMARK   11  A    between atoms: C25_37  and  S1_38 
ROOT
HETATM    1  N1  UNL     1       6.007  26.174   4.513  1.00  0.00    -0.188 N 
ATOM      2  H1  UNL     1       6.193  26.141   5.515  1.00  0.00     0.184 HD
HETATM    3  C8  UNL     1       6.966  26.458   3.743  1.00  0.00     0.692 C 
HETATM    4  N2  UNL     1       6.895  26.546   2.333  1.00  0.00    -0.126 N 
ATOM      5  H2  UNL     1       6.188  26.017   1.821  1.00  0.00     0.197 HD
HETATM    6  C9  UNL     1       7.809  27.373   1.636  1.00  0.00     0.196 C 
HETATM    7  N3  UNL     1       8.566  28.032   1.060  1.00  0.00    -0.171 NA
HETATM    8  N4  UNL     1       8.245  26.710   4.397  1.00  0.00    -0.190 N 
ATOM      9  H4  UNL     1       8.492  27.649   4.708  1.00  0.00     0.184 HD
ENDROOT
BRANCH   1  10
HETATM   10  C7  UNL     1       4.702  25.901   4.075  1.00  0.00     0.082 A 
HETATM   11  C2  UNL     1       3.795  26.915   3.799  1.00  0.00     0.096 A 
HETATM   12  C3  UNL     1       2.527  26.607   3.326  1.00  0.00     0.058 A 
HETATM   13  C4  UNL     1       2.193  25.285   3.145  1.00  0.00     0.013 A 
HETATM   14 BR1  UNL     1       0.443  24.859   2.496  1.00  0.00    -0.051 Br
HETATM   15  C5  UNL     1       3.060  24.256   3.409  1.00  0.00     0.021 A 
HETATM   16  C6  UNL     1       4.307  24.569   3.872  1.00  0.00     0.034 A 
BRANCH  11  17
HETATM   17  O1  UNL     1       4.152  28.228   3.996  1.00  0.00    -0.354 OA
HETATM   18  C1  UNL     1       3.846  29.032   5.099  1.00  0.00     0.210 C 
ENDBRANCH  11  17
ENDBRANCH   1  10
BRANCH   8  19
HETATM   19  C10 UNL     1       9.139  25.625   4.594  1.00  0.00     0.069 A 
HETATM   20  C11 UNL     1       9.214  24.665   3.603  1.00  0.00     0.033 A 
HETATM   21  C12 UNL     1      10.058  23.602   3.744  1.00  0.00     0.029 A 
HETATM   22  C13 UNL     1      10.851  23.470   4.889  1.00  0.00     0.068 A 
HETATM   23 CL1  UNL     1      11.844  22.024   4.941  1.00  0.00    -0.081 Cl
HETATM   24  C14 UNL     1      10.774  24.416   5.859  1.00  0.00     0.109 A 
HETATM   25  C25 UNL     1       9.909  25.522   5.730  1.00  0.00     0.062 A 
BRANCH  24  26
HETATM   26  O2  UNL     1      11.488  24.394   7.008  1.00  0.00    -0.348 OA
BRANCH  26  27
HETATM   27  C15 UNL     1      12.785  24.375   7.351  1.00  0.00     0.176 C 
BRANCH  27  28
HETATM   28  C16 UNL     1      13.587  23.189   7.686  1.00  0.00     0.027 C 
BRANCH  28  29
HETATM   29  C17 UNL     1      15.033  23.226   7.283  1.00  0.00     0.004 C 
BRANCH  29  30
HETATM   30  C18 UNL     1      15.243  22.874   5.850  1.00  0.00     0.030 C 
BRANCH  30  31
HETATM   31  C19 UNL     1      15.804  21.519   5.643  1.00  0.00     0.272 C 
BRANCH  31  32
HETATM   32  N5  UNL     1      15.472  20.974   4.344  1.00  0.00     0.088 N 
HETATM   33  C20 UNL     1      14.724  19.762   4.367  1.00  0.00     0.272 C 
HETATM   34  C21 UNL     1      14.900  18.975   3.080  1.00  0.00     0.030 C 
HETATM   35  C22 UNL     1      14.868  19.943   1.912  1.00  0.00     0.003 C 
HETATM   36  C23 UNL     1      14.195  21.237   2.337  1.00  0.00     0.030 C 
HETATM   37  C24 UNL     1      15.002  21.938   3.400  1.00  0.00     0.272 C 
ENDBRANCH  31  32
ENDBRANCH  30  31
ENDBRANCH  29  30
ENDBRANCH  28  29
ENDBRANCH  27  28
ENDBRANCH  26  27
ENDBRANCH  24  26
BRANCH  25  38
HETATM   38  S1  UNL     1       9.745  26.718   7.016  1.00  0.00    -0.129 SA
HETATM   39  C26 UNL     1       8.817  26.176   8.444  1.00  0.00     0.095 C 
ENDBRANCH  25  38
ENDBRANCH   8  19
TORSDOF 11
ENDMDL
