MODEL 1
REMARK VINA RESULT: -9.353894919      0.000      0.000
REMARK  15 active torsions:
REMARK  status: ('A' for Active; 'I' for Inactive)
REMARK    1  A    between atoms: C2_2  and  O2_4 
REMARK    2  A    between atoms: O2_4  and  C3_5 
REMARK    3  A    between atoms: C3_5  and  C11_16 
REMARK    4  A    between atoms: C4_6  and  C5_7 
REMARK    5  A    between atoms: C14_19  and  C15_20 
REMARK    6  A    between atoms: C15_20  and  C17_22 
REMARK    7  A    between atoms: C17_22  and  C18_23 
REMARK    8  A    between atoms: C18_23  and  C19_24 
REMARK    9  A    between atoms: C20_25  and  C22_27 
REMARK   10  A    between atoms: C22_27  and  C23_28 
REMARK   11  A    between atoms: C23_28  and  C24_29 
REMARK   12  A    between atoms: C29_35  and  C30_36 
REMARK       I    between atoms: C30_36  and  N1_38 
REMARK   13  A    between atoms: N1_38  and  C31_40 
REMARK   14  A    between atoms: C31_40  and  C32_41 
REMARK   15  A    between atoms: C32_41  and  N2_42 
ROOT
HETATM    1  C11 UNL     1      14.010  22.559   5.102  1.00  0.00     0.083 A 
HETATM    2  C12 UNL     1      14.605  22.614   6.306  1.00  0.00     0.002 A 
HETATM    3  C13 UNL     1      14.088  23.577   7.295  1.00  0.00     0.054 C 
HETATM    4  C14 UNL     1      15.699  21.769   6.730  1.00  0.00     0.088 A 
HETATM    5  O3  UNL     1      16.122  20.845   5.735  1.00  0.00    -0.291 OA
HETATM    6  C28 UNL     1      15.553  20.746   4.487  1.00  0.00     0.171 A 
HETATM    7  C29 UNL     1      15.886  19.886   3.462  1.00  0.00     0.085 A 
HETATM    8  C33 UNL     1      15.014  20.187   2.453  1.00  0.00     0.039 A 
HETATM    9  C34 UNL     1      14.201  21.217   2.921  1.00  0.00     0.101 A 
HETATM   10  N3  UNL     1      14.526  21.570   4.166  1.00  0.00    -0.298 N 
ENDROOT
BRANCH   1  11
HETATM   11  C3  UNL     1      12.868  23.364   4.736  1.00  0.00     0.107 C 
HETATM   12  C4  UNL     1      12.779  24.586   4.319  1.00  0.00     0.054 C 
BRANCH  11  13
HETATM   13  O2  UNL     1      11.554  22.767   4.774  1.00  0.00    -0.277 OA
BRANCH  13  14
HETATM   14  C2  UNL     1      11.164  22.475   6.114  1.00  0.00     0.260 C 
HETATM   15  C1  UNL     1      10.513  23.513   6.921  1.00  0.00     0.126 C 
HETATM   16  O1  UNL     1      11.390  21.350   6.558  1.00  0.00    -0.265 OA
ENDBRANCH  13  14
ENDBRANCH  11  13
BRANCH  12  17
HETATM   17  C5  UNL     1      11.494  25.245   3.939  1.00  0.00     0.008 A 
HETATM   18  C6  UNL     1      10.907  25.044   2.729  1.00  0.00     0.060 A 
HETATM   19  C7  UNL     1       9.702  25.672   2.385  1.00  0.00     0.155 A 
HETATM   20  F1  UNL     1       9.129  25.469   1.193  1.00  0.00    -0.203 F 
HETATM   21  C8  UNL     1       9.079  26.519   3.291  1.00  0.00     0.157 A 
HETATM   22  F2  UNL     1       7.908  27.138   2.982  1.00  0.00    -0.203 F 
HETATM   23  C9  UNL     1       9.690  26.707   4.510  1.00  0.00     0.088 A 
HETATM   24  C10 UNL     1      10.875  26.092   4.848  1.00  0.00     0.129 A 
HETATM   25  F3  UNL     1      11.410  26.326   6.066  1.00  0.00    -0.205 F 
ENDBRANCH  12  17
ENDBRANCH   1  11
BRANCH   4  26
HETATM   26  C15 UNL     1      16.340  21.714   7.861  1.00  0.00    -0.049 C 
HETATM   27  C16 UNL     1      17.553  22.438   8.245  1.00  0.00     0.046 C 
BRANCH  26  28
HETATM   28  C17 UNL     1      15.737  20.863   8.994  1.00  0.00     0.040 C 
BRANCH  28  29
HETATM   29  C18 UNL     1      16.874  20.145   9.646  1.00  0.00     0.032 C 
BRANCH  29  30
HETATM   30  C19 UNL     1      16.656  18.699   9.749  1.00  0.00    -0.024 C 
HETATM   31  C20 UNL     1      17.295  17.910  10.645  1.00  0.00    -0.087 C 
HETATM   32  C21 UNL     1      18.250  18.645  11.526  1.00  0.00     0.043 C 
BRANCH  31  33
HETATM   33  C22 UNL     1      16.987  16.491  10.753  1.00  0.00     0.037 C 
BRANCH  33  34
HETATM   34  C23 UNL     1      16.229  16.037  11.944  1.00  0.00     0.031 C 
BRANCH  34  35
HETATM   35  C24 UNL     1      14.777  16.129  11.915  1.00  0.00    -0.024 C 
HETATM   36  C25 UNL     1      14.015  15.843  12.963  1.00  0.00    -0.091 C 
HETATM   37  C26 UNL     1      14.557  15.401  14.261  1.00  0.00     0.042 C 
HETATM   38  C27 UNL     1      12.513  15.977  12.847  1.00  0.00     0.042 C 
ENDBRANCH  34  35
ENDBRANCH  33  34
ENDBRANCH  31  33
ENDBRANCH  29  30
ENDBRANCH  28  29
ENDBRANCH  26  28
ENDBRANCH   4  26
BRANCH   7  39
HETATM   39  C30 UNL     1      16.907  18.862   3.333  1.00  0.00     0.256 C 
HETATM   40  O4  UNL     1      17.600  18.776   2.266  1.00  0.00    -0.268 OA
HETATM   41  N1  UNL     1      17.199  17.925   4.332  1.00  0.00    -0.355 N 
ATOM     42  H1  UNL     1      16.675  17.953   5.207  1.00  0.00     0.162 HD
BRANCH  41  43
HETATM   43  C31 UNL     1      18.237  16.905   4.152  1.00  0.00     0.150 C 
BRANCH  43  44
HETATM   44  C32 UNL     1      18.624  16.262   5.449  1.00  0.00     0.249 C 
BRANCH  44  45
HETATM   45  N2  UNL     1      18.255  17.107   6.585  1.00  0.00    -0.078 N 
ATOM     46  H23 UNL     1      17.697  17.909   6.292  1.00  0.00     0.274 HD
ATOM     47  H22 UNL     1      17.568  16.651   7.185  1.00  0.00     0.274 HD
ATOM     48  H21 UNL     1      19.080  17.394   7.111  1.00  0.00     0.274 HD
ENDBRANCH  44  45
ENDBRANCH  43  44
ENDBRANCH  41  43
ENDBRANCH   7  39
TORSDOF 15
ENDMDL
MODEL 2
REMARK VINA RESULT: -9.229246634      1.065      1.720
REMARK  15 active torsions:
REMARK  status: ('A' for Active; 'I' for Inactive)
REMARK    1  A    between atoms: C2_2  and  O2_4 
REMARK    2  A    between atoms: O2_4  and  C3_5 
REMARK    3  A    between atoms: C3_5  and  C11_16 
REMARK    4  A    between atoms: C4_6  and  C5_7 
REMARK    5  A    between atoms: C14_19  and  C15_20 
REMARK    6  A    between atoms: C15_20  and  C17_22 
REMARK    7  A    between atoms: C17_22  and  C18_23 
REMARK    8  A    between atoms: C18_23  and  C19_24 
REMARK    9  A    between atoms: C20_25  and  C22_27 
REMARK   10  A    between atoms: C22_27  and  C23_28 
REMARK   11  A    between atoms: C23_28  and  C24_29 
REMARK   12  A    between atoms: C29_35  and  C30_36 
REMARK       I    between atoms: C30_36  and  N1_38 
REMARK   13  A    between atoms: N1_38  and  C31_40 
REMARK   14  A    between atoms: C31_40  and  C32_41 
REMARK   15  A    between atoms: C32_41  and  N2_42 
ROOT
HETATM    1  C11 UNL     1      14.074  22.571   5.156  1.00  0.00     0.083 A 
HETATM    2  C12 UNL     1      14.652  22.632   6.368  1.00  0.00     0.002 A 
HETATM    3  C13 UNL     1      14.111  23.591   7.349  1.00  0.00     0.054 C 
HETATM    4  C14 UNL     1      15.750  21.800   6.808  1.00  0.00     0.088 A 
HETATM    5  O3  UNL     1      16.196  20.880   5.819  1.00  0.00    -0.291 OA
HETATM    6  C28 UNL     1      15.645  20.775   4.564  1.00  0.00     0.171 A 
HETATM    7  C29 UNL     1      16.002  19.918   3.544  1.00  0.00     0.085 A 
HETATM    8  C33 UNL     1      15.141  20.209   2.523  1.00  0.00     0.039 A 
HETATM    9  C34 UNL     1      14.310  21.230   2.978  1.00  0.00     0.101 A 
HETATM   10  N3  UNL     1      14.614  21.587   4.228  1.00  0.00    -0.298 N 
ENDROOT
BRANCH   1  11
HETATM   11  C3  UNL     1      12.929  23.363   4.773  1.00  0.00     0.107 C 
HETATM   12  C4  UNL     1      12.832  24.585   4.359  1.00  0.00     0.054 C 
BRANCH  11  13
HETATM   13  O2  UNL     1      11.622  22.750   4.788  1.00  0.00    -0.277 OA
BRANCH  13  14
HETATM   14  C2  UNL     1      11.216  22.445   6.120  1.00  0.00     0.260 C 
HETATM   15  C1  UNL     1      10.574  23.481   6.937  1.00  0.00     0.126 C 
HETATM   16  O1  UNL     1      11.420  21.310   6.549  1.00  0.00    -0.265 OA
ENDBRANCH  13  14
ENDBRANCH  11  13
BRANCH  12  17
HETATM   17  C5  UNL     1      11.546  25.230   3.959  1.00  0.00     0.008 A 
HETATM   18  C6  UNL     1      10.977  25.019   2.742  1.00  0.00     0.060 A 
HETATM   19  C7  UNL     1       9.770  25.633   2.381  1.00  0.00     0.155 A 
HETATM   20  F1  UNL     1       9.216  25.421   1.182  1.00  0.00    -0.203 F 
HETATM   21  C8  UNL     1       9.127  26.477   3.276  1.00  0.00     0.157 A 
HETATM   22  F2  UNL     1       7.954  27.083   2.948  1.00  0.00    -0.203 F 
HETATM   23  C9  UNL     1       9.720  26.676   4.502  1.00  0.00     0.088 A 
HETATM   24  C10 UNL     1      10.906  26.074   4.857  1.00  0.00     0.129 A 
HETATM   25  F3  UNL     1      11.423  26.317   6.082  1.00  0.00    -0.205 F 
ENDBRANCH  12  17
ENDBRANCH   1  11
BRANCH   4  26
HETATM   26  C15 UNL     1      16.374  21.752   7.948  1.00  0.00    -0.049 C 
HETATM   27  C16 UNL     1      17.541  22.532   8.369  1.00  0.00     0.046 C 
BRANCH  26  28
HETATM   28  C17 UNL     1      15.802  20.843   9.051  1.00  0.00     0.040 C 
BRANCH  28  29
HETATM   29  C18 UNL     1      16.746  19.694   9.195  1.00  0.00     0.032 C 
BRANCH  29  30
HETATM   30  C19 UNL     1      17.170  19.470  10.581  1.00  0.00    -0.024 C 
HETATM   31  C20 UNL     1      18.462  19.513  10.982  1.00  0.00    -0.087 C 
HETATM   32  C21 UNL     1      19.428  19.808   9.883  1.00  0.00     0.043 C 
BRANCH  31  33
HETATM   33  C22 UNL     1      18.820  19.356  12.385  1.00  0.00     0.037 C 
BRANCH  33  34
HETATM   34  C23 UNL     1      18.721  18.000  12.976  1.00  0.00     0.031 C 
BRANCH  34  35
HETATM   35  C24 UNL     1      19.099  16.859  12.155  1.00  0.00    -0.024 C 
HETATM   36  C25 UNL     1      18.216  15.989  11.680  1.00  0.00    -0.091 C 
HETATM   37  C26 UNL     1      16.769  16.084  11.935  1.00  0.00     0.042 C 
HETATM   38  C27 UNL     1      18.698  14.838  10.824  1.00  0.00     0.042 C 
ENDBRANCH  34  35
ENDBRANCH  33  34
ENDBRANCH  31  33
ENDBRANCH  29  30
ENDBRANCH  28  29
ENDBRANCH  26  28
ENDBRANCH   4  26
BRANCH   7  39
HETATM   39  C30 UNL     1      17.036  18.904   3.430  1.00  0.00     0.256 C 
HETATM   40  O4  UNL     1      17.804  18.881   2.412  1.00  0.00    -0.268 OA
HETATM   41  N1  UNL     1      17.261  17.912   4.392  1.00  0.00    -0.355 N 
ATOM     42  H1  UNL     1      16.677  17.889   5.228  1.00  0.00     0.162 HD
BRANCH  41  43
HETATM   43  C31 UNL     1      18.316  16.907   4.229  1.00  0.00     0.150 C 
BRANCH  43  44
HETATM   44  C32 UNL     1      18.641  16.218   5.520  1.00  0.00     0.249 C 
BRANCH  44  45
HETATM   45  N2  UNL     1      18.227  17.028   6.666  1.00  0.00    -0.078 N 
ATOM     46  H23 UNL     1      19.030  17.405   7.169  1.00  0.00     0.274 HD
ATOM     47  H22 UNL     1      17.801  17.907   6.371  1.00  0.00     0.274 HD
ATOM     48  H21 UNL     1      17.610  16.500   7.283  1.00  0.00     0.274 HD
ENDBRANCH  44  45
ENDBRANCH  43  44
ENDBRANCH  41  43
ENDBRANCH   7  39
TORSDOF 15
ENDMDL
MODEL 3
REMARK VINA RESULT: -9.197772026      1.382      2.194
REMARK  15 active torsions:
REMARK  status: ('A' for Active; 'I' for Inactive)
REMARK    1  A    between atoms: C2_2  and  O2_4 
REMARK    2  A    between atoms: O2_4  and  C3_5 
REMARK    3  A    between atoms: C3_5  and  C11_16 
REMARK    4  A    between atoms: C4_6  and  C5_7 
REMARK    5  A    between atoms: C14_19  and  C15_20 
REMARK    6  A    between atoms: C15_20  and  C17_22 
REMARK    7  A    between atoms: C17_22  and  C18_23 
REMARK    8  A    between atoms: C18_23  and  C19_24 
REMARK    9  A    between atoms: C20_25  and  C22_27 
REMARK   10  A    between atoms: C22_27  and  C23_28 
REMARK   11  A    between atoms: C23_28  and  C24_29 
REMARK   12  A    between atoms: C29_35  and  C30_36 
REMARK       I    between atoms: C30_36  and  N1_38 
REMARK   13  A    between atoms: N1_38  and  C31_40 
REMARK   14  A    between atoms: C31_40  and  C32_41 
REMARK   15  A    between atoms: C32_41  and  N2_42 
ROOT
HETATM    1  C11 UNL     1      13.605  22.879   5.052  1.00  0.00     0.083 A 
HETATM    2  C12 UNL     1      14.243  22.922   6.234  1.00  0.00     0.002 A 
HETATM    3  C13 UNL     1      13.770  23.887   7.244  1.00  0.00     0.054 C 
HETATM    4  C14 UNL     1      15.342  22.065   6.617  1.00  0.00     0.088 A 
HETATM    5  O3  UNL     1      15.720  21.139   5.604  1.00  0.00    -0.291 OA
HETATM    6  C28 UNL     1      15.106  21.052   4.376  1.00  0.00     0.171 A 
HETATM    7  C29 UNL     1      15.394  20.192   3.337  1.00  0.00     0.085 A 
HETATM    8  C33 UNL     1      14.490  20.506   2.361  1.00  0.00     0.039 A 
HETATM    9  C34 UNL     1      13.705  21.543   2.860  1.00  0.00     0.101 A 
HETATM   10  N3  UNL     1      14.077  21.888   4.094  1.00  0.00    -0.298 N 
ENDROOT
BRANCH   1  11
HETATM   11  C3  UNL     1      12.460  23.697   4.728  1.00  0.00     0.107 C 
HETATM   12  C4  UNL     1      12.370  24.898   4.256  1.00  0.00     0.054 C 
BRANCH  11  13
HETATM   13  O2  UNL     1      11.138  23.140   4.893  1.00  0.00    -0.277 OA
BRANCH  13  14
HETATM   14  C2  UNL     1      10.843  22.922   6.271  1.00  0.00     0.260 C 
HETATM   15  C1  UNL     1      10.323  24.028   7.084  1.00  0.00     0.126 C 
HETATM   16  O1  UNL     1      11.038  21.803   6.741  1.00  0.00    -0.265 OA
ENDBRANCH  13  14
ENDBRANCH  11  13
BRANCH  12  17
HETATM   17  C5  UNL     1      11.078  25.575   3.937  1.00  0.00     0.008 A 
HETATM   18  C6  UNL     1      10.467  26.420   4.810  1.00  0.00     0.060 A 
HETATM   19  C7  UNL     1       9.253  27.046   4.496  1.00  0.00     0.155 A 
HETATM   20  F1  UNL     1       8.658  27.877   5.360  1.00  0.00    -0.203 F 
HETATM   21  C8  UNL     1       8.648  26.811   3.269  1.00  0.00     0.157 A 
HETATM   22  F2  UNL     1       7.471  27.408   2.942  1.00  0.00    -0.203 F 
HETATM   23  C9  UNL     1       9.284  25.952   2.401  1.00  0.00     0.088 A 
HETATM   24  C10 UNL     1      10.476  25.335   2.709  1.00  0.00     0.129 A 
HETATM   25  F3  UNL     1      11.039  24.509   1.801  1.00  0.00    -0.205 F 
ENDBRANCH  12  17
ENDBRANCH   1  11
BRANCH   4  26
HETATM   26  C15 UNL     1      16.020  21.998   7.724  1.00  0.00    -0.049 C 
HETATM   27  C16 UNL     1      17.213  22.763   8.097  1.00  0.00     0.046 C 
BRANCH  26  28
HETATM   28  C17 UNL     1      15.493  21.081   8.843  1.00  0.00     0.040 C 
BRANCH  28  29
HETATM   29  C18 UNL     1      16.399  19.893   8.889  1.00  0.00     0.032 C 
BRANCH  29  30
HETATM   30  C19 UNL     1      16.860  19.576  10.245  1.00  0.00    -0.024 C 
HETATM   31  C20 UNL     1      18.165  19.568  10.606  1.00  0.00    -0.087 C 
HETATM   32  C21 UNL     1      19.102  19.911   9.497  1.00  0.00     0.043 C 
BRANCH  31  33
HETATM   33  C22 UNL     1      18.562  19.316  11.985  1.00  0.00     0.037 C 
BRANCH  33  34
HETATM   34  C23 UNL     1      18.584  17.910  12.452  1.00  0.00     0.031 C 
BRANCH  34  35
HETATM   35  C24 UNL     1      18.878  16.864  11.483  1.00  0.00    -0.024 C 
HETATM   36  C25 UNL     1      17.945  16.069  10.976  1.00  0.00    -0.091 C 
HETATM   37  C26 UNL     1      16.520  16.158  11.339  1.00  0.00     0.042 C 
HETATM   38  C27 UNL     1      18.340  15.016   9.964  1.00  0.00     0.042 C 
ENDBRANCH  34  35
ENDBRANCH  33  34
ENDBRANCH  31  33
ENDBRANCH  29  30
ENDBRANCH  28  29
ENDBRANCH  26  28
ENDBRANCH   4  26
BRANCH   7  39
HETATM   39  C30 UNL     1      16.399  19.157   3.170  1.00  0.00     0.256 C 
HETATM   40  O4  UNL     1      16.967  18.990   2.040  1.00  0.00    -0.268 OA
HETATM   41  N1  UNL     1      16.806  18.295   4.195  1.00  0.00    -0.355 N 
ATOM     42  H1  UNL     1      16.385  18.389   5.119  1.00  0.00     0.162 HD
BRANCH  41  43
HETATM   43  C31 UNL     1      17.822  17.262   3.974  1.00  0.00     0.150 C 
BRANCH  43  44
HETATM   44  C32 UNL     1      19.025  17.461   4.845  1.00  0.00     0.249 C 
BRANCH  44  45
HETATM   45  N2  UNL     1      20.007  16.396   4.637  1.00  0.00    -0.078 N 
ATOM     46  H23 UNL     1      20.293  15.971   5.519  1.00  0.00     0.274 HD
ATOM     47  H22 UNL     1      19.585  15.577   4.199  1.00  0.00     0.274 HD
ATOM     48  H21 UNL     1      20.808  16.736   4.104  1.00  0.00     0.274 HD
ENDBRANCH  44  45
ENDBRANCH  43  44
ENDBRANCH  41  43
ENDBRANCH   7  39
TORSDOF 15
ENDMDL
MODEL 4
REMARK VINA RESULT: -9.075737104      1.850      3.014
REMARK  15 active torsions:
REMARK  status: ('A' for Active; 'I' for Inactive)
REMARK    1  A    between atoms: C2_2  and  O2_4 
REMARK    2  A    between atoms: O2_4  and  C3_5 
REMARK    3  A    between atoms: C3_5  and  C11_16 
REMARK    4  A    between atoms: C4_6  and  C5_7 
REMARK    5  A    between atoms: C14_19  and  C15_20 
REMARK    6  A    between atoms: C15_20  and  C17_22 
REMARK    7  A    between atoms: C17_22  and  C18_23 
REMARK    8  A    between atoms: C18_23  and  C19_24 
REMARK    9  A    between atoms: C20_25  and  C22_27 
REMARK   10  A    between atoms: C22_27  and  C23_28 
REMARK   11  A    between atoms: C23_28  and  C24_29 
REMARK   12  A    between atoms: C29_35  and  C30_36 
REMARK       I    between atoms: C30_36  and  N1_38 
REMARK   13  A    between atoms: N1_38  and  C31_40 
REMARK   14  A    between atoms: C31_40  and  C32_41 
REMARK   15  A    between atoms: C32_41  and  N2_42 
ROOT
HETATM    1  C11 UNL     1      14.049  22.602   5.146  1.00  0.00     0.083 A 
HETATM    2  C12 UNL     1      14.647  22.682   6.347  1.00  0.00     0.002 A 
HETATM    3  C13 UNL     1      14.124  23.656   7.322  1.00  0.00     0.054 C 
HETATM    4  C14 UNL     1      15.751  21.855   6.782  1.00  0.00     0.088 A 
HETATM    5  O3  UNL     1      16.180  20.918   5.800  1.00  0.00    -0.291 OA
HETATM    6  C28 UNL     1      15.607  20.794   4.556  1.00  0.00     0.171 A 
HETATM    7  C29 UNL     1      15.946  19.921   3.543  1.00  0.00     0.085 A 
HETATM    8  C33 UNL     1      15.068  20.197   2.533  1.00  0.00     0.039 A 
HETATM    9  C34 UNL     1      14.246  21.226   2.986  1.00  0.00     0.101 A 
HETATM   10  N3  UNL     1      14.572  21.603   4.224  1.00  0.00    -0.298 N 
ENDROOT
BRANCH   1  11
HETATM   11  C3  UNL     1      12.898  23.390   4.770  1.00  0.00     0.107 C 
HETATM   12  C4  UNL     1      12.793  24.613   4.362  1.00  0.00     0.054 C 
BRANCH  11  13
HETATM   13  O2  UNL     1      11.595  22.769   4.785  1.00  0.00    -0.277 OA
BRANCH  13  14
HETATM   14  C2  UNL     1      11.198  22.446   6.115  1.00  0.00     0.260 C 
HETATM   15  C1  UNL     1      10.539  23.464   6.942  1.00  0.00     0.126 C 
HETATM   16  O1  UNL     1      11.424  21.312   6.535  1.00  0.00    -0.265 OA
ENDBRANCH  13  14
ENDBRANCH  11  13
BRANCH  12  17
HETATM   17  C5  UNL     1      11.503  25.253   3.969  1.00  0.00     0.008 A 
HETATM   18  C6  UNL     1      10.936  25.053   2.749  1.00  0.00     0.060 A 
HETATM   19  C7  UNL     1       9.725  25.662   2.394  1.00  0.00     0.155 A 
HETATM   20  F1  UNL     1       9.173  25.460   1.192  1.00  0.00    -0.203 F 
HETATM   21  C8  UNL     1       9.074  26.490   3.298  1.00  0.00     0.157 A 
HETATM   22  F2  UNL     1       7.898  27.091   2.977  1.00  0.00    -0.203 F 
HETATM   23  C9  UNL     1       9.666  26.679   4.527  1.00  0.00     0.088 A 
HETATM   24  C10 UNL     1      10.856  26.081   4.877  1.00  0.00     0.129 A 
HETATM   25  F3  UNL     1      11.370  26.314   6.104  1.00  0.00    -0.205 F 
ENDBRANCH  12  17
ENDBRANCH   1  11
BRANCH   4  26
HETATM   26  C15 UNL     1      16.395  21.824   7.911  1.00  0.00    -0.049 C 
HETATM   27  C16 UNL     1      17.516  22.668   8.332  1.00  0.00     0.046 C 
BRANCH  26  28
HETATM   28  C17 UNL     1      15.897  20.858   9.003  1.00  0.00     0.040 C 
BRANCH  28  29
HETATM   29  C18 UNL     1      16.884  19.737   9.068  1.00  0.00     0.032 C 
BRANCH  29  30
HETATM   30  C19 UNL     1      17.230  19.357  10.442  1.00  0.00    -0.024 C 
HETATM   31  C20 UNL     1      18.475  19.482  10.958  1.00  0.00    -0.087 C 
HETATM   32  C21 UNL     1      19.475  20.042  10.002  1.00  0.00     0.043 C 
BRANCH  31  33
HETATM   33  C22 UNL     1      18.747  19.158  12.352  1.00  0.00     0.037 C 
BRANCH  33  34
HETATM   34  C23 UNL     1      20.150  19.252  12.822  1.00  0.00     0.031 C 
BRANCH  34  35
HETATM   35  C24 UNL     1      20.421  19.992  14.045  1.00  0.00    -0.024 C 
HETATM   36  C25 UNL     1      21.347  20.940  14.124  1.00  0.00    -0.091 C 
HETATM   37  C26 UNL     1      22.197  21.338  12.988  1.00  0.00     0.042 C 
HETATM   38  C27 UNL     1      21.552  21.667  15.434  1.00  0.00     0.042 C 
ENDBRANCH  34  35
ENDBRANCH  33  34
ENDBRANCH  31  33
ENDBRANCH  29  30
ENDBRANCH  28  29
ENDBRANCH  26  28
ENDBRANCH   4  26
BRANCH   7  39
HETATM   39  C30 UNL     1      16.976  18.904   3.429  1.00  0.00     0.256 C 
HETATM   40  O4  UNL     1      17.847  18.973   2.499  1.00  0.00    -0.268 OA
HETATM   41  N1  UNL     1      17.090  17.811   4.296  1.00  0.00    -0.355 N 
ATOM     42  H1  UNL     1      16.421  17.710   5.059  1.00  0.00     0.162 HD
BRANCH  41  43
HETATM   43  C31 UNL     1      18.147  16.807   4.135  1.00  0.00     0.150 C 
BRANCH  43  44
HETATM   44  C32 UNL     1      18.671  16.326   5.454  1.00  0.00     0.249 C 
BRANCH  44  45
HETATM   45  N2  UNL     1      18.280  17.231   6.535  1.00  0.00    -0.078 N 
ATOM     46  H23 UNL     1      18.794  18.111   6.493  1.00  0.00     0.274 HD
ATOM     47  H22 UNL     1      17.337  17.594   6.399  1.00  0.00     0.274 HD
ATOM     48  H21 UNL     1      18.381  16.780   7.444  1.00  0.00     0.274 HD
ENDBRANCH  44  45
ENDBRANCH  43  44
ENDBRANCH  41  43
ENDBRANCH   7  39
TORSDOF 15
ENDMDL
MODEL 5
REMARK VINA RESULT: -8.953539474      5.123     11.229
REMARK  15 active torsions:
REMARK  status: ('A' for Active; 'I' for Inactive)
REMARK    1  A    between atoms: C2_2  and  O2_4 
REMARK    2  A    between atoms: O2_4  and  C3_5 
REMARK    3  A    between atoms: C3_5  and  C11_16 
REMARK    4  A    between atoms: C4_6  and  C5_7 
REMARK    5  A    between atoms: C14_19  and  C15_20 
REMARK    6  A    between atoms: C15_20  and  C17_22 
REMARK    7  A    between atoms: C17_22  and  C18_23 
REMARK    8  A    between atoms: C18_23  and  C19_24 
REMARK    9  A    between atoms: C20_25  and  C22_27 
REMARK   10  A    between atoms: C22_27  and  C23_28 
REMARK   11  A    between atoms: C23_28  and  C24_29 
REMARK   12  A    between atoms: C29_35  and  C30_36 
REMARK       I    between atoms: C30_36  and  N1_38 
REMARK   13  A    between atoms: N1_38  and  C31_40 
REMARK   14  A    between atoms: C31_40  and  C32_41 
REMARK   15  A    between atoms: C32_41  and  N2_42 
ROOT
HETATM    1  C11 UNL     1      11.239  23.544   4.092  1.00  0.00     0.083 A 
HETATM    2  C12 UNL     1      10.158  23.482   3.296  1.00  0.00     0.002 A 
HETATM    3  C13 UNL     1      10.116  22.433   2.261  1.00  0.00     0.054 C 
HETATM    4  C14 UNL     1       9.002  24.344   3.396  1.00  0.00     0.088 A 
HETATM    5  O3  UNL     1       9.102  25.310   4.437  1.00  0.00    -0.291 OA
HETATM    6  C28 UNL     1      10.183  25.421   5.279  1.00  0.00     0.171 A 
HETATM    7  C29 UNL     1      10.372  26.314   6.313  1.00  0.00     0.085 A 
HETATM    8  C33 UNL     1      11.595  25.996   6.834  1.00  0.00     0.039 A 
HETATM    9  C34 UNL     1      12.084  24.929   6.084  1.00  0.00     0.101 A 
HETATM   10  N3  UNL     1      11.227  24.571   5.125  1.00  0.00    -0.298 N 
ENDROOT
BRANCH   1  11
HETATM   11  C3  UNL     1      12.345  22.619   4.016  1.00  0.00     0.107 C 
HETATM   12  C4  UNL     1      13.464  22.671   3.369  1.00  0.00     0.054 C 
BRANCH  11  13
HETATM   13  O2  UNL     1      12.294  21.409   4.801  1.00  0.00    -0.277 OA
BRANCH  13  14
HETATM   14  C2  UNL     1      12.194  21.705   6.192  1.00  0.00     0.260 C 
HETATM   15  C1  UNL     1      13.403  22.054   6.947  1.00  0.00     0.126 C 
HETATM   16  O1  UNL     1      11.086  21.656   6.723  1.00  0.00    -0.265 OA
ENDBRANCH  13  14
ENDBRANCH  11  13
BRANCH  12  17
HETATM   17  C5  UNL     1      14.524  21.623   3.450  1.00  0.00     0.008 A 
HETATM   18  C6  UNL     1      15.465  21.617   4.432  1.00  0.00     0.060 A 
HETATM   19  C7  UNL     1      16.455  20.627   4.494  1.00  0.00     0.155 A 
HETATM   20  F1  UNL     1      17.377  20.628   5.463  1.00  0.00    -0.203 F 
HETATM   21  C8  UNL     1      16.488  19.620   3.539  1.00  0.00     0.157 A 
HETATM   22  F2  UNL     1      17.438  18.648   3.579  1.00  0.00    -0.203 F 
HETATM   23  C9  UNL     1      15.526  19.645   2.555  1.00  0.00     0.088 A 
HETATM   24  C10 UNL     1      14.554  20.618   2.492  1.00  0.00     0.129 A 
HETATM   25  F3  UNL     1      13.643  20.570   1.496  1.00  0.00    -0.205 F 
ENDBRANCH  12  17
ENDBRANCH   1  11
BRANCH   4  26
HETATM   26  C15 UNL     1       7.900  24.370   2.706  1.00  0.00    -0.049 C 
HETATM   27  C16 UNL     1       7.684  24.941   1.374  1.00  0.00     0.046 C 
BRANCH  26  28
HETATM   28  C17 UNL     1       6.667  23.649   3.282  1.00  0.00     0.040 C 
BRANCH  28  29
HETATM   29  C18 UNL     1       5.531  24.617   3.215  1.00  0.00     0.032 C 
BRANCH  29  30
HETATM   30  C19 UNL     1       4.222  23.960   3.123  1.00  0.00    -0.024 C 
HETATM   31  C20 UNL     1       3.450  23.990   2.012  1.00  0.00    -0.087 C 
HETATM   32  C21 UNL     1       4.047  24.756   0.879  1.00  0.00     0.043 C 
BRANCH  31  33
HETATM   33  C22 UNL     1       2.191  23.260   1.951  1.00  0.00     0.037 C 
BRANCH  33  34
HETATM   34  C23 UNL     1       1.949  22.214   2.973  1.00  0.00     0.031 C 
BRANCH  34  35
HETATM   35  C24 UNL     1       2.308  20.840   2.655  1.00  0.00    -0.024 C 
HETATM   36  C25 UNL     1       3.194  20.145   3.358  1.00  0.00    -0.091 C 
HETATM   37  C26 UNL     1       3.906  20.689   4.527  1.00  0.00     0.042 C 
HETATM   38  C27 UNL     1       3.497  18.717   2.962  1.00  0.00     0.042 C 
ENDBRANCH  34  35
ENDBRANCH  33  34
ENDBRANCH  31  33
ENDBRANCH  29  30
ENDBRANCH  28  29
ENDBRANCH  26  28
ENDBRANCH   4  26
BRANCH   7  39
HETATM   39  C30 UNL     1       9.559  27.400   6.832  1.00  0.00     0.256 C 
HETATM   40  O4  UNL     1       9.961  28.082   7.833  1.00  0.00    -0.268 OA
HETATM   41  N1  UNL     1       8.320  27.769   6.296  1.00  0.00    -0.355 N 
ATOM     42  H1  UNL     1       7.954  27.258   5.492  1.00  0.00     0.162 HD
BRANCH  41  43
HETATM   43  C31 UNL     1       7.534  28.871   6.860  1.00  0.00     0.150 C 
BRANCH  43  44
HETATM   44  C32 UNL     1       6.061  28.653   6.695  1.00  0.00     0.249 C 
BRANCH  44  45
HETATM   45  N2  UNL     1       5.706  27.255   6.940  1.00  0.00    -0.078 N 
ATOM     46  H23 UNL     1       6.225  26.623   6.330  1.00  0.00     0.274 HD
ATOM     47  H22 UNL     1       6.062  26.929   7.839  1.00  0.00     0.274 HD
ATOM     48  H21 UNL     1       4.700  27.113   6.861  1.00  0.00     0.274 HD
ENDBRANCH  44  45
ENDBRANCH  43  44
ENDBRANCH  41  43
ENDBRANCH   7  39
TORSDOF 15
ENDMDL
