MODEL 1
REMARK VINA RESULT: -7.989407915      0.000      0.000
REMARK  11 active torsions:
REMARK  status: ('A' for Active; 'I' for Inactive)
REMARK    1  A    between atoms: C6_6  and  N1_7 
REMARK    2  A    between atoms: N1_7  and  C7_9 
REMARK    3  A    between atoms: C7_9  and  N2_11 
REMARK    4  A    between atoms: N2_11  and  C8_13 
REMARK    5  A    between atoms: C8_13  and  C9_14 
REMARK    6  A    between atoms: C9_14  and  O1_15 
REMARK    7  A    between atoms: C9_14  and  C10_17 
REMARK    8  A    between atoms: C10_17  and  N3_18 
REMARK       I    between atoms: N3_18  and  C12_20 
REMARK    9  A    between atoms: C12_20  and  O3_22 
REMARK   10  A    between atoms: O3_22  and  C13_23 
REMARK   11  A    between atoms: C13_23  and  C14_24 
ROOT
HETATM    1  N2  UNL     1       9.893  14.973  -6.266  1.00  0.00    -0.364 N 
ATOM      2  H2  UNL     1      10.762  14.774  -6.762  1.00  0.00     0.162 HD
ENDROOT
BRANCH   1   3
HETATM    3  C7  UNL     1       9.196  16.087  -6.736  1.00  0.00     0.172 C 
HETATM    4  S1  UNL     1       9.977  17.563  -6.617  1.00  0.00    -0.041 SA
BRANCH   3   5
HETATM    5  N1  UNL     1       7.911  16.122  -7.306  1.00  0.00    -0.332 N 
ATOM      6  H1  UNL     1       7.170  16.623  -6.816  1.00  0.00     0.168 HD
BRANCH   5   7
HETATM    7  C6  UNL     1       7.604  15.479  -8.553  1.00  0.00     0.046 A 
HETATM    8  C4  UNL     1       7.792  16.123  -9.769  1.00  0.00    -0.034 A 
HETATM    9  C3  UNL     1       7.501  15.503 -10.980  1.00  0.00     0.015 A 
HETATM   10  C5  UNL     1       8.306  17.502  -9.814  1.00  0.00     0.050 C 
HETATM   11  C2  UNL     1       7.014  14.220 -10.996  1.00  0.00    -0.061 A 
HETATM   12  C1  UNL     1       6.704  13.559 -12.293  1.00  0.00     0.048 C 
HETATM   13  C19 UNL     1       6.822  13.572  -9.811  1.00  0.00     0.015 A 
HETATM   14  C17 UNL     1       7.113  14.190  -8.598  1.00  0.00    -0.034 A 
HETATM   15  C18 UNL     1       6.875  13.419  -7.360  1.00  0.00     0.050 C 
ENDBRANCH   5   7
ENDBRANCH   3   5
ENDBRANCH   1   3
BRANCH   1  16
HETATM   16  C8  UNL     1       9.595  14.070  -5.209  1.00  0.00     0.155 C 
BRANCH  16  17
HETATM   17  C9  UNL     1      10.333  12.768  -5.225  1.00  0.00     0.153 C 
BRANCH  17  18
HETATM   18  O1  UNL     1      11.612  12.899  -5.666  1.00  0.00    -0.392 OA
ATOM     19  H1  UNL     1      11.781  12.388  -6.449  1.00  0.00     0.210 HD
ENDBRANCH  17  18
BRANCH  17  20
HETATM   20  C10 UNL     1      10.318  12.147  -3.810  1.00  0.00     0.161 C 
BRANCH  20  21
HETATM   21  N3  UNL     1       9.098  11.430  -3.560  1.00  0.00    -0.330 N 
HETATM   22  C11 UNL     1       7.998  11.575  -4.477  1.00  0.00     0.155 C 
HETATM   23  C12 UNL     1       8.974  10.568  -2.402  1.00  0.00     0.362 C 
HETATM   24  O2  UNL     1       7.893   9.966  -2.226  1.00  0.00    -0.238 OA
BRANCH  23  25
HETATM   25  O3  UNL     1       9.959  10.388  -1.508  1.00  0.00    -0.304 OA
BRANCH  25  26
HETATM   26  C13 UNL     1      10.796   9.385  -1.141  1.00  0.00     0.184 C 
BRANCH  26  27
HETATM   27  C14 UNL     1      10.412   8.377  -0.132  1.00  0.00     0.002 C 
HETATM   28  C15 UNL     1      10.354   6.951  -0.571  1.00  0.00     0.011 C 
HETATM   29  C16 UNL     1      11.213   8.494   1.158  1.00  0.00     0.011 C 
ENDBRANCH  26  27
ENDBRANCH  25  26
ENDBRANCH  23  25
ENDBRANCH  20  21
ENDBRANCH  17  20
ENDBRANCH  16  17
ENDBRANCH   1  16
TORSDOF 11
ENDMDL
MODEL 2
REMARK VINA RESULT: -7.986925420      0.014      1.661
REMARK  11 active torsions:
REMARK  status: ('A' for Active; 'I' for Inactive)
REMARK    1  A    between atoms: C6_6  and  N1_7 
REMARK    2  A    between atoms: N1_7  and  C7_9 
REMARK    3  A    between atoms: C7_9  and  N2_11 
REMARK    4  A    between atoms: N2_11  and  C8_13 
REMARK    5  A    between atoms: C8_13  and  C9_14 
REMARK    6  A    between atoms: C9_14  and  O1_15 
REMARK    7  A    between atoms: C9_14  and  C10_17 
REMARK    8  A    between atoms: C10_17  and  N3_18 
REMARK       I    between atoms: N3_18  and  C12_20 
REMARK    9  A    between atoms: C12_20  and  O3_22 
REMARK   10  A    between atoms: O3_22  and  C13_23 
REMARK   11  A    between atoms: C13_23  and  C14_24 
ROOT
HETATM    1  N2  UNL     1       9.885  14.970  -6.276  1.00  0.00    -0.364 N 
ATOM      2  H2  UNL     1      10.742  14.759  -6.788  1.00  0.00     0.162 HD
ENDROOT
BRANCH   1   3
HETATM    3  C7  UNL     1       9.189  16.087  -6.742  1.00  0.00     0.172 C 
HETATM    4  S1  UNL     1       9.967  17.564  -6.605  1.00  0.00    -0.041 SA
BRANCH   3   5
HETATM    5  N1  UNL     1       7.908  16.125  -7.321  1.00  0.00    -0.332 N 
ATOM      6  H1  UNL     1       7.165  16.628  -6.837  1.00  0.00     0.168 HD
BRANCH   5   7
HETATM    7  C6  UNL     1       7.608  15.482  -8.570  1.00  0.00     0.046 A 
HETATM    8  C4  UNL     1       7.105  14.189  -8.620  1.00  0.00    -0.034 A 
HETATM    9  C3  UNL     1       6.809  13.563  -9.826  1.00  0.00     0.015 A 
HETATM   10  C5  UNL     1       6.873  13.428  -7.381  1.00  0.00     0.050 C 
HETATM   11  C2  UNL     1       7.011  14.224 -11.012  1.00  0.00    -0.061 A 
HETATM   12  C1  UNL     1       6.691  13.553 -12.301  1.00  0.00     0.048 C 
HETATM   13  C19 UNL     1       7.504  15.496 -10.982  1.00  0.00     0.015 A 
HETATM   14  C17 UNL     1       7.802  16.124  -9.777  1.00  0.00    -0.034 A 
HETATM   15  C18 UNL     1       8.336  17.501  -9.832  1.00  0.00     0.050 C 
ENDBRANCH   5   7
ENDBRANCH   3   5
ENDBRANCH   1   3
BRANCH   1  16
HETATM   16  C8  UNL     1       9.598  14.078  -5.207  1.00  0.00     0.155 C 
BRANCH  16  17
HETATM   17  C9  UNL     1      10.330  12.773  -5.222  1.00  0.00     0.153 C 
BRANCH  17  18
HETATM   18  O1  UNL     1      11.608  12.896  -5.666  1.00  0.00    -0.392 OA
ATOM     19  H1  UNL     1      12.224  12.389  -5.149  1.00  0.00     0.210 HD
ENDBRANCH  17  18
BRANCH  17  20
HETATM   20  C10 UNL     1      10.314  12.154  -3.807  1.00  0.00     0.161 C 
BRANCH  20  21
HETATM   21  N3  UNL     1       9.096  11.433  -3.557  1.00  0.00    -0.330 N 
HETATM   22  C11 UNL     1       7.996  11.577  -4.474  1.00  0.00     0.155 C 
HETATM   23  C12 UNL     1       8.973  10.571  -2.399  1.00  0.00     0.362 C 
HETATM   24  O2  UNL     1       7.894   9.965  -2.225  1.00  0.00    -0.238 OA
BRANCH  23  25
HETATM   25  O3  UNL     1       9.959  10.392  -1.506  1.00  0.00    -0.304 OA
BRANCH  25  26
HETATM   26  C13 UNL     1      10.797   9.390  -1.138  1.00  0.00     0.184 C 
BRANCH  26  27
HETATM   27  C14 UNL     1      10.415   8.384  -0.128  1.00  0.00     0.002 C 
HETATM   28  C15 UNL     1      10.358   6.956  -0.565  1.00  0.00     0.011 C 
HETATM   29  C16 UNL     1      11.218   8.503   1.161  1.00  0.00     0.011 C 
ENDBRANCH  26  27
ENDBRANCH  25  26
ENDBRANCH  23  25
ENDBRANCH  20  21
ENDBRANCH  17  20
ENDBRANCH  16  17
ENDBRANCH   1  16
TORSDOF 11
ENDMDL
MODEL 3
REMARK VINA RESULT: -7.855234235      2.581      4.464
REMARK  11 active torsions:
REMARK  status: ('A' for Active; 'I' for Inactive)
REMARK    1  A    between atoms: C6_6  and  N1_7 
REMARK    2  A    between atoms: N1_7  and  C7_9 
REMARK    3  A    between atoms: C7_9  and  N2_11 
REMARK    4  A    between atoms: N2_11  and  C8_13 
REMARK    5  A    between atoms: C8_13  and  C9_14 
REMARK    6  A    between atoms: C9_14  and  O1_15 
REMARK    7  A    between atoms: C9_14  and  C10_17 
REMARK    8  A    between atoms: C10_17  and  N3_18 
REMARK       I    between atoms: N3_18  and  C12_20 
REMARK    9  A    between atoms: C12_20  and  O3_22 
REMARK   10  A    between atoms: O3_22  and  C13_23 
REMARK   11  A    between atoms: C13_23  and  C14_24 
ROOT
HETATM    1  N2  UNL     1      10.085  15.138  -6.238  1.00  0.00    -0.364 N 
ATOM      2  H2  UNL     1      11.092  15.300  -6.238  1.00  0.00     0.162 HD
ENDROOT
BRANCH   1   3
HETATM    3  C7  UNL     1       9.381  15.847  -7.212  1.00  0.00     0.172 C 
HETATM    4  S1  UNL     1       7.954  15.157  -7.754  1.00  0.00    -0.041 SA
BRANCH   3   5
HETATM    5  N1  UNL     1       9.722  17.079  -7.797  1.00  0.00    -0.332 N 
ATOM      6  H1  UNL     1       9.557  17.212  -8.795  1.00  0.00     0.168 HD
BRANCH   5   7
HETATM    7  C6  UNL     1      10.293  18.158  -7.040  1.00  0.00     0.046 A 
HETATM    8  C4  UNL     1      11.666  18.344  -6.961  1.00  0.00    -0.034 A 
HETATM    9  C3  UNL     1      12.224  19.390  -6.234  1.00  0.00     0.015 A 
HETATM   10  C5  UNL     1      12.587  17.424  -7.649  1.00  0.00     0.050 C 
HETATM   11  C2  UNL     1      11.413  20.275  -5.569  1.00  0.00    -0.061 A 
HETATM   12  C1  UNL     1      12.012  21.395  -4.792  1.00  0.00     0.048 C 
HETATM   13  C19 UNL     1      10.060  20.108  -5.635  1.00  0.00     0.015 A 
HETATM   14  C17 UNL     1       9.500  19.062  -6.362  1.00  0.00    -0.034 A 
HETATM   15  C18 UNL     1       8.026  18.950  -6.381  1.00  0.00     0.050 C 
ENDBRANCH   5   7
ENDBRANCH   3   5
ENDBRANCH   1   3
BRANCH   1  16
HETATM   16  C8  UNL     1       9.633  14.226  -5.246  1.00  0.00     0.155 C 
BRANCH  16  17
HETATM   17  C9  UNL     1      10.275  12.875  -5.247  1.00  0.00     0.153 C 
BRANCH  17  18
HETATM   18  O1  UNL     1      11.613  12.934  -5.479  1.00  0.00    -0.392 OA
ATOM     19  H1  UNL     1      12.076  12.179  -5.134  1.00  0.00     0.210 HD
ENDBRANCH  17  18
BRANCH  17  20
HETATM   20  C10 UNL     1       9.998  12.167  -3.902  1.00  0.00     0.161 C 
BRANCH  20  21
HETATM   21  N3  UNL     1       8.700  11.550  -3.887  1.00  0.00    -0.330 N 
HETATM   22  C11 UNL     1       7.753  11.881  -4.918  1.00  0.00     0.155 C 
HETATM   23  C12 UNL     1       8.346  10.603  -2.848  1.00  0.00     0.362 C 
HETATM   24  O2  UNL     1       7.205  10.093  -2.877  1.00  0.00    -0.238 OA
BRANCH  23  25
HETATM   25  O3  UNL     1       9.180  10.250  -1.858  1.00  0.00    -0.304 OA
BRANCH  25  26
HETATM   26  C13 UNL     1      10.200   9.371  -1.684  1.00  0.00     0.184 C 
BRANCH  26  27
HETATM   27  C14 UNL     1      10.425   8.680  -0.399  1.00  0.00     0.002 C 
HETATM   28  C15 UNL     1      10.385   7.187  -0.404  1.00  0.00     0.011 C 
HETATM   29  C16 UNL     1      11.673   9.167   0.325  1.00  0.00     0.011 C 
ENDBRANCH  26  27
ENDBRANCH  25  26
ENDBRANCH  23  25
ENDBRANCH  20  21
ENDBRANCH  17  20
ENDBRANCH  16  17
ENDBRANCH   1  16
TORSDOF 11
ENDMDL
MODEL 4
REMARK VINA RESULT: -7.829682753      2.622      4.541
REMARK  11 active torsions:
REMARK  status: ('A' for Active; 'I' for Inactive)
REMARK    1  A    between atoms: C6_6  and  N1_7 
REMARK    2  A    between atoms: N1_7  and  C7_9 
REMARK    3  A    between atoms: C7_9  and  N2_11 
REMARK    4  A    between atoms: N2_11  and  C8_13 
REMARK    5  A    between atoms: C8_13  and  C9_14 
REMARK    6  A    between atoms: C9_14  and  O1_15 
REMARK    7  A    between atoms: C9_14  and  C10_17 
REMARK    8  A    between atoms: C10_17  and  N3_18 
REMARK       I    between atoms: N3_18  and  C12_20 
REMARK    9  A    between atoms: C12_20  and  O3_22 
REMARK   10  A    between atoms: O3_22  and  C13_23 
REMARK   11  A    between atoms: C13_23  and  C14_24 
ROOT
HETATM    1  N2  UNL     1      10.089  15.215  -6.274  1.00  0.00    -0.364 N 
ATOM      2  H2  UNL     1      11.098  15.367  -6.271  1.00  0.00     0.162 HD
ENDROOT
BRANCH   1   3
HETATM    3  C7  UNL     1       9.395  15.941  -7.243  1.00  0.00     0.172 C 
HETATM    4  S1  UNL     1       7.954  15.279  -7.784  1.00  0.00    -0.041 SA
BRANCH   3   5
HETATM    5  N1  UNL     1       9.755  17.170  -7.823  1.00  0.00    -0.332 N 
ATOM      6  H1  UNL     1       9.602  17.306  -8.822  1.00  0.00     0.168 HD
BRANCH   5   7
HETATM    7  C6  UNL     1      10.332  18.241  -7.060  1.00  0.00     0.046 A 
HETATM    8  C4  UNL     1       9.542  19.155  -6.376  1.00  0.00    -0.034 A 
HETATM    9  C3  UNL     1      10.096  20.191  -5.632  1.00  0.00     0.015 A 
HETATM   10  C5  UNL     1       8.074  19.056  -6.422  1.00  0.00     0.050 C 
HETATM   11  C2  UNL     1      11.459  20.333  -5.558  1.00  0.00    -0.061 A 
HETATM   12  C1  UNL     1      12.049  21.442  -4.760  1.00  0.00     0.048 C 
HETATM   13  C19 UNL     1      12.252  19.445  -6.224  1.00  0.00     0.015 A 
HETATM   14  C17 UNL     1      11.700  18.407  -6.970  1.00  0.00    -0.034 A 
HETATM   15  C18 UNL     1      12.628  17.490  -7.663  1.00  0.00     0.050 C 
ENDBRANCH   5   7
ENDBRANCH   3   5
ENDBRANCH   1   3
BRANCH   1  16
HETATM   16  C8  UNL     1       9.625  14.299  -5.291  1.00  0.00     0.155 C 
BRANCH  16  17
HETATM   17  C9  UNL     1      10.278  12.953  -5.282  1.00  0.00     0.153 C 
BRANCH  17  18
HETATM   18  O1  UNL     1      11.617  13.021  -5.499  1.00  0.00    -0.392 OA
ATOM     19  H1  UNL     1      12.117  13.035  -4.692  1.00  0.00     0.210 HD
ENDBRANCH  17  18
BRANCH  17  20
HETATM   20  C10 UNL     1       9.991  12.247  -3.938  1.00  0.00     0.161 C 
BRANCH  20  21
HETATM   21  N3  UNL     1       8.724  11.569  -3.955  1.00  0.00    -0.330 N 
HETATM   22  C11 UNL     1       7.785  11.863  -5.006  1.00  0.00     0.155 C 
HETATM   23  C12 UNL     1       8.392  10.599  -2.932  1.00  0.00     0.362 C 
HETATM   24  O2  UNL     1       7.278  10.035  -2.989  1.00  0.00    -0.238 OA
BRANCH  23  25
HETATM   25  O3  UNL     1       9.220  10.278  -1.925  1.00  0.00    -0.304 OA
BRANCH  25  26
HETATM   26  C13 UNL     1      10.253   9.422  -1.723  1.00  0.00     0.184 C 
BRANCH  26  27
HETATM   27  C14 UNL     1      10.447   8.720  -0.439  1.00  0.00     0.002 C 
HETATM   28  C15 UNL     1      10.397   7.227  -0.455  1.00  0.00     0.011 C 
HETATM   29  C16 UNL     1      11.684   9.192   0.315  1.00  0.00     0.011 C 
ENDBRANCH  26  27
ENDBRANCH  25  26
ENDBRANCH  23  25
ENDBRANCH  20  21
ENDBRANCH  17  20
ENDBRANCH  16  17
ENDBRANCH   1  16
TORSDOF 11
ENDMDL
MODEL 5
REMARK VINA RESULT: -7.618332805      3.298      5.125
REMARK  11 active torsions:
REMARK  status: ('A' for Active; 'I' for Inactive)
REMARK    1  A    between atoms: C6_6  and  N1_7 
REMARK    2  A    between atoms: N1_7  and  C7_9 
REMARK    3  A    between atoms: C7_9  and  N2_11 
REMARK    4  A    between atoms: N2_11  and  C8_13 
REMARK    5  A    between atoms: C8_13  and  C9_14 
REMARK    6  A    between atoms: C9_14  and  O1_15 
REMARK    7  A    between atoms: C9_14  and  C10_17 
REMARK    8  A    between atoms: C10_17  and  N3_18 
REMARK       I    between atoms: N3_18  and  C12_20 
REMARK    9  A    between atoms: C12_20  and  O3_22 
REMARK   10  A    between atoms: O3_22  and  C13_23 
REMARK   11  A    between atoms: C13_23  and  C14_24 
ROOT
HETATM    1  N2  UNL     1       7.086  14.894 -10.318  1.00  0.00    -0.364 N 
ATOM      2  H2  UNL     1       7.483  15.745  -9.919  1.00  0.00     0.162 HD
ENDROOT
BRANCH   1   3
HETATM    3  C7  UNL     1       6.808  14.966 -11.684  1.00  0.00     0.172 C 
HETATM    4  S1  UNL     1       8.122  15.155 -12.705  1.00  0.00    -0.041 SA
BRANCH   3   5
HETATM    5  N1  UNL     1       5.553  14.896 -12.313  1.00  0.00    -0.332 N 
ATOM      6  H1  UNL     1       5.308  15.607 -13.003  1.00  0.00     0.168 HD
BRANCH   5   7
HETATM    7  C6  UNL     1       4.602  13.860 -12.021  1.00  0.00     0.046 A 
HETATM    8  C4  UNL     1       3.569  14.055 -11.114  1.00  0.00    -0.034 A 
HETATM    9  C3  UNL     1       2.643  13.056 -10.831  1.00  0.00     0.015 A 
HETATM   10  C5  UNL     1       3.425  15.339 -10.410  1.00  0.00     0.050 C 
HETATM   11  C2  UNL     1       2.734  11.837 -11.455  1.00  0.00    -0.061 A 
HETATM   12  C1  UNL     1       1.741  10.771 -11.152  1.00  0.00     0.048 C 
HETATM   13  C19 UNL     1       3.742  11.627 -12.350  1.00  0.00     0.015 A 
HETATM   14  C17 UNL     1       4.670  12.625 -12.635  1.00  0.00    -0.034 A 
HETATM   15  C18 UNL     1       5.733  12.316 -13.613  1.00  0.00     0.050 C 
ENDBRANCH   5   7
ENDBRANCH   3   5
ENDBRANCH   1   3
BRANCH   1  16
HETATM   16  C8  UNL     1       6.908  13.832  -9.390  1.00  0.00     0.155 C 
BRANCH  16  17
HETATM   17  C9  UNL     1       6.641  14.231  -7.973  1.00  0.00     0.153 C 
BRANCH  17  18
HETATM   18  O1  UNL     1       5.313  14.298  -7.691  1.00  0.00    -0.392 OA
ATOM     19  H1  UNL     1       4.856  13.490  -7.895  1.00  0.00     0.210 HD
ENDBRANCH  17  18
BRANCH  17  20
HETATM   20  C10 UNL     1       7.340  13.241  -7.015  1.00  0.00     0.161 C 
BRANCH  20  21
HETATM   21  N3  UNL     1       8.574  13.776  -6.507  1.00  0.00    -0.330 N 
HETATM   22  C11 UNL     1       8.858  15.175  -6.689  1.00  0.00     0.155 C 
HETATM   23  C12 UNL     1       9.520  12.923  -5.818  1.00  0.00     0.362 C 
HETATM   24  O2  UNL     1      10.578  13.434  -5.394  1.00  0.00    -0.238 OA
BRANCH  23  25
HETATM   25  O3  UNL     1       9.316  11.611  -5.614  1.00  0.00    -0.304 OA
BRANCH  25  26
HETATM   26  C13 UNL     1       9.141  10.787  -4.551  1.00  0.00     0.184 C 
BRANCH  26  27
HETATM   27  C14 UNL     1       8.588  11.270  -3.270  1.00  0.00     0.002 C 
HETATM   28  C15 UNL     1       7.630  10.376  -2.553  1.00  0.00     0.011 C 
HETATM   29  C16 UNL     1       9.662  11.761  -2.308  1.00  0.00     0.011 C 
ENDBRANCH  26  27
ENDBRANCH  25  26
ENDBRANCH  23  25
ENDBRANCH  20  21
ENDBRANCH  17  20
ENDBRANCH  16  17
ENDBRANCH   1  16
TORSDOF 11
ENDMDL
