MODEL 1
REMARK VINA RESULT: -8.568436452      0.000      0.000
REMARK  9 active torsions:
REMARK  status: ('A' for Active; 'I' for Inactive)
REMARK    1  A    between atoms: N1_3  and  C3_4 
REMARK    2  A    between atoms: N1_3  and  C5_6 
REMARK    3  A    between atoms: C5_6  and  C6_7 
REMARK    4  A    between atoms: C6_7  and  C7_8 
REMARK    5  A    between atoms: C7_8  and  N2_9 
REMARK    6  A    between atoms: N2_9  and  C8_11 
REMARK    7  A    between atoms: C8_11  and  N3_13 
REMARK    8  A    between atoms: N3_13  and  C9_15 
REMARK    9  A    between atoms: C12_20  and  C13_21 
ROOT
HETATM    1  C9  UNL     1       8.478  13.319  -6.316  1.00  0.00     0.685 A 
HETATM    2  N4  UNL     1       8.532  14.516  -6.723  1.00  0.00    -0.193 N 
ATOM      3  H4  UNL     1       9.322  15.067  -6.388  1.00  0.00     0.184 HD
HETATM    4  C10 UNL     1       7.691  15.139  -7.525  1.00  0.00     0.051 A 
HETATM    5  C11 UNL     1       7.701  16.566  -7.983  1.00  0.00     0.071 C 
HETATM    6  C12 UNL     1       6.791  14.187  -7.795  1.00  0.00     0.082 A 
HETATM    7  N5  UNL     1       7.145  13.136  -7.158  1.00  0.00    -0.189 N 
ATOM      8  H5  UNL     1       6.620  12.262  -7.188  1.00  0.00     0.184 HD
ENDROOT
BRANCH   1   9
HETATM    9  N3  UNL     1       8.419  12.112  -5.919  1.00  0.00    -0.166 N 
ATOM     10  H3  UNL     1       7.627  11.553  -6.238  1.00  0.00     0.186 HD
BRANCH   9  11
HETATM   11  C8  UNL     1       9.331  11.499  -5.098  1.00  0.00     0.186 C 
HETATM   12  S1  UNL     1      10.879  12.120  -5.127  1.00  0.00    -0.040 SA
BRANCH  11  13
HETATM   13  N2  UNL     1       9.000  10.491  -4.222  1.00  0.00    -0.367 N 
ATOM     14  H2  UNL     1       9.528   9.622  -4.292  1.00  0.00     0.161 HD
BRANCH  13  15
HETATM   15  C7  UNL     1       7.965  10.558  -3.209  1.00  0.00     0.123 C 
BRANCH  15  16
HETATM   16  C6  UNL     1       8.575  10.014  -1.881  1.00  0.00     0.039 C 
BRANCH  16  17
HETATM   17  C5  UNL     1      10.049  10.116  -1.959  1.00  0.00     0.123 C 
BRANCH  17  18
HETATM   18  N1  UNL     1      10.627   9.343  -0.851  1.00  0.00    -0.394 N 
HETATM   19  C2  UNL     1       9.921   8.248  -0.480  1.00  0.00     0.053 C 
HETATM   20  C1  UNL     1      10.511   6.917  -0.639  1.00  0.00     0.054 C 
BRANCH  18  21
HETATM   21  C3  UNL     1      11.764   9.850  -0.245  1.00  0.00     0.117 C 
HETATM   22  C4  UNL     1      11.783   9.538   1.282  1.00  0.00     0.026 C 
ENDBRANCH  18  21
ENDBRANCH  17  18
ENDBRANCH  16  17
ENDBRANCH  15  16
ENDBRANCH  13  15
ENDBRANCH  11  13
ENDBRANCH   9  11
ENDBRANCH   1   9
BRANCH   6  23
HETATM   23  C13 UNL     1       5.581  14.227  -8.643  1.00  0.00    -0.001 A 
HETATM   24  C14 UNL     1       4.339  14.417  -8.088  1.00  0.00     0.015 A 
HETATM   25  C15 UNL     1       3.192  14.298  -8.929  1.00  0.00     0.007 A 
HETATM   26  C16 UNL     1       3.391  14.004 -10.271  1.00  0.00    -0.061 A 
HETATM   27  C17 UNL     1       2.255  13.838 -11.199  1.00  0.00     0.048 C 
HETATM   28  C18 UNL     1       4.694  13.829 -10.751  1.00  0.00     0.014 A 
HETATM   29  C19 UNL     1       5.760  13.931  -9.983  1.00  0.00    -0.049 A 
HETATM   30  C20 UNL     1       7.160  13.695 -10.471  1.00  0.00     0.049 C 
ENDBRANCH   6  23
TORSDOF 9
ENDMDL
MODEL 2
REMARK VINA RESULT: -8.478478213      0.667      1.473
REMARK  9 active torsions:
REMARK  status: ('A' for Active; 'I' for Inactive)
REMARK    1  A    between atoms: N1_3  and  C3_4 
REMARK    2  A    between atoms: N1_3  and  C5_6 
REMARK    3  A    between atoms: C5_6  and  C6_7 
REMARK    4  A    between atoms: C6_7  and  C7_8 
REMARK    5  A    between atoms: C7_8  and  N2_9 
REMARK    6  A    between atoms: N2_9  and  C8_11 
REMARK    7  A    between atoms: C8_11  and  N3_13 
REMARK    8  A    between atoms: N3_13  and  C9_15 
REMARK    9  A    between atoms: C12_20  and  C13_21 
ROOT
HETATM    1  C9  UNL     1       8.375  13.379  -6.170  1.00  0.00     0.685 A 
HETATM    2  N4  UNL     1       8.592  14.485  -6.745  1.00  0.00    -0.193 N 
ATOM      3  H4  UNL     1       9.266  15.101  -6.290  1.00  0.00     0.184 HD
HETATM    4  C10 UNL     1       8.053  14.940  -7.858  1.00  0.00     0.051 A 
HETATM    5  C11 UNL     1       8.252  16.262  -8.535  1.00  0.00     0.071 C 
HETATM    6  C12 UNL     1       7.239  13.940  -8.215  1.00  0.00     0.082 A 
HETATM    7  N5  UNL     1       7.348  13.026  -7.328  1.00  0.00    -0.189 N 
ATOM      8  H5  UNL     1       6.823  12.151  -7.360  1.00  0.00     0.184 HD
ENDROOT
BRANCH   1   9
HETATM    9  N3  UNL     1       8.154  12.261  -5.604  1.00  0.00    -0.166 N 
ATOM     10  H3  UNL     1       7.196  11.910  -5.619  1.00  0.00     0.186 HD
BRANCH   9  11
HETATM   11  C8  UNL     1       9.098  11.487  -4.976  1.00  0.00     0.186 C 
HETATM   12  S1  UNL     1      10.683  11.978  -5.149  1.00  0.00    -0.040 SA
BRANCH  11  13
HETATM   13  N2  UNL     1       8.782  10.420  -4.168  1.00  0.00    -0.367 N 
ATOM     14  H2  UNL     1       9.308   9.558  -4.308  1.00  0.00     0.161 HD
BRANCH  13  15
HETATM   15  C7  UNL     1       7.765  10.414  -3.135  1.00  0.00     0.123 C 
BRANCH  15  16
HETATM   16  C6  UNL     1       8.455   9.986  -1.803  1.00  0.00     0.039 C 
BRANCH  16  17
HETATM   17  C5  UNL     1       9.922  10.052  -1.985  1.00  0.00     0.123 C 
BRANCH  17  18
HETATM   18  N1  UNL     1      10.560   9.320  -0.883  1.00  0.00    -0.394 N 
HETATM   19  C2  UNL     1       9.905   8.208  -0.472  1.00  0.00     0.053 C 
HETATM   20  C1  UNL     1      10.536   6.895  -0.625  1.00  0.00     0.054 C 
BRANCH  18  21
HETATM   21  C3  UNL     1      11.696   9.877  -0.321  1.00  0.00     0.117 C 
HETATM   22  C4  UNL     1      11.798   9.552   1.200  1.00  0.00     0.026 C 
ENDBRANCH  18  21
ENDBRANCH  17  18
ENDBRANCH  16  17
ENDBRANCH  15  16
ENDBRANCH  13  15
ENDBRANCH  11  13
ENDBRANCH   9  11
ENDBRANCH   1   9
BRANCH   6  23
HETATM   23  C13 UNL     1       6.340  13.807  -9.381  1.00  0.00    -0.001 A 
HETATM   24  C14 UNL     1       6.842  13.518 -10.626  1.00  0.00     0.015 A 
HETATM   25  C15 UNL     1       5.953  13.547 -11.743  1.00  0.00     0.007 A 
HETATM   26  C16 UNL     1       4.620  13.859 -11.510  1.00  0.00    -0.061 A 
HETATM   27  C17 UNL     1       3.645  13.937 -12.616  1.00  0.00     0.048 C 
HETATM   28  C18 UNL     1       4.196  14.138 -10.206  1.00  0.00     0.014 A 
HETATM   29  C19 UNL     1       5.008  14.119  -9.170  1.00  0.00    -0.049 A 
HETATM   30  C20 UNL     1       4.580  14.467  -7.773  1.00  0.00     0.049 C 
ENDBRANCH   6  23
TORSDOF 9
ENDMDL
MODEL 3
REMARK VINA RESULT: -7.940084873      2.657      4.774
REMARK  9 active torsions:
REMARK  status: ('A' for Active; 'I' for Inactive)
REMARK    1  A    between atoms: N1_3  and  C3_4 
REMARK    2  A    between atoms: N1_3  and  C5_6 
REMARK    3  A    between atoms: C5_6  and  C6_7 
REMARK    4  A    between atoms: C6_7  and  C7_8 
REMARK    5  A    between atoms: C7_8  and  N2_9 
REMARK    6  A    between atoms: N2_9  and  C8_11 
REMARK    7  A    between atoms: C8_11  and  N3_13 
REMARK    8  A    between atoms: N3_13  and  C9_15 
REMARK    9  A    between atoms: C12_20  and  C13_21 
ROOT
HETATM    1  C9  UNL     1       9.150  14.493  -6.275  1.00  0.00     0.685 A 
HETATM    2  N4  UNL     1       8.543  14.845  -7.328  1.00  0.00    -0.193 N 
ATOM      3  H4  UNL     1       8.218  14.089  -7.931  1.00  0.00     0.184 HD
HETATM    4  C10 UNL     1       8.279  16.068  -7.741  1.00  0.00     0.051 A 
HETATM    5  C11 UNL     1       7.608  16.516  -9.004  1.00  0.00     0.071 C 
HETATM    6  C12 UNL     1       8.806  16.821  -6.770  1.00  0.00     0.082 A 
HETATM    7  N5  UNL     1       9.320  16.028  -5.909  1.00  0.00    -0.189 N 
ATOM      8  H5  UNL     1       9.795  16.351  -5.066  1.00  0.00     0.184 HD
ENDROOT
BRANCH   1   9
HETATM    9  N3  UNL     1       9.755  14.149  -5.210  1.00  0.00    -0.166 N 
ATOM     10  H3  UNL     1      10.154  14.894  -4.638  1.00  0.00     0.186 HD
BRANCH   9  11
HETATM   11  C8  UNL     1       9.917  12.861  -4.767  1.00  0.00     0.186 C 
HETATM   12  S1  UNL     1      11.343  12.109  -5.197  1.00  0.00    -0.040 SA
BRANCH  11  13
HETATM   13  N2  UNL     1       9.019  12.231  -3.937  1.00  0.00    -0.367 N 
ATOM     14  H2  UNL     1       8.452  12.822  -3.331  1.00  0.00     0.161 HD
BRANCH  13  15
HETATM   15  C7  UNL     1       8.810  10.799  -3.849  1.00  0.00     0.123 C 
BRANCH  15  16
HETATM   16  C6  UNL     1       9.099  10.374  -2.376  1.00  0.00     0.039 C 
BRANCH  16  17
HETATM   17  C5  UNL     1      10.563  10.274  -2.190  1.00  0.00     0.123 C 
BRANCH  17  18
HETATM   18  N1  UNL     1      10.824   9.541  -0.943  1.00  0.00    -0.394 N 
HETATM   19  C2  UNL     1       9.968   8.524  -0.682  1.00  0.00     0.053 C 
HETATM   20  C1  UNL     1      10.469   7.148  -0.638  1.00  0.00     0.054 C 
BRANCH  18  21
HETATM   21  C3  UNL     1      11.840  10.010  -0.129  1.00  0.00     0.117 C 
HETATM   22  C4  UNL     1      11.703   9.464   1.325  1.00  0.00     0.026 C 
ENDBRANCH  18  21
ENDBRANCH  17  18
ENDBRANCH  16  17
ENDBRANCH  15  16
ENDBRANCH  13  15
ENDBRANCH  11  13
ENDBRANCH   9  11
ENDBRANCH   1   9
BRANCH   6  23
HETATM   23  C13 UNL     1       8.850  18.291  -6.615  1.00  0.00    -0.001 A 
HETATM   24  C14 UNL     1       7.748  18.984  -6.177  1.00  0.00     0.015 A 
HETATM   25  C15 UNL     1       7.793  20.411  -6.187  1.00  0.00     0.007 A 
HETATM   26  C16 UNL     1       8.956  21.026  -6.632  1.00  0.00    -0.061 A 
HETATM   27  C17 UNL     1       9.071  22.497  -6.699  1.00  0.00     0.048 C 
HETATM   28  C18 UNL     1      10.032  20.239  -7.058  1.00  0.00     0.014 A 
HETATM   29  C19 UNL     1       9.999  18.922  -7.058  1.00  0.00    -0.049 A 
HETATM   30  C20 UNL     1      11.124  18.064  -7.561  1.00  0.00     0.049 C 
ENDBRANCH   6  23
TORSDOF 9
ENDMDL
MODEL 4
REMARK VINA RESULT: -7.884408835      3.407      5.814
REMARK  9 active torsions:
REMARK  status: ('A' for Active; 'I' for Inactive)
REMARK    1  A    between atoms: N1_3  and  C3_4 
REMARK    2  A    between atoms: N1_3  and  C5_6 
REMARK    3  A    between atoms: C5_6  and  C6_7 
REMARK    4  A    between atoms: C6_7  and  C7_8 
REMARK    5  A    between atoms: C7_8  and  N2_9 
REMARK    6  A    between atoms: N2_9  and  C8_11 
REMARK    7  A    between atoms: C8_11  and  N3_13 
REMARK    8  A    between atoms: N3_13  and  C9_15 
REMARK    9  A    between atoms: C12_20  and  C13_21 
ROOT
HETATM    1  C9  UNL     1       9.232  14.815  -6.425  1.00  0.00     0.685 A 
HETATM    2  N4  UNL     1       8.853  15.325  -7.520  1.00  0.00    -0.193 N 
ATOM      3  H4  UNL     1       8.290  14.724  -8.122  1.00  0.00     0.184 HD
HETATM    4  C10 UNL     1       9.096  16.537  -7.977  1.00  0.00     0.051 A 
HETATM    5  C11 UNL     1       8.704  17.150  -9.287  1.00  0.00     0.071 C 
HETATM    6  C12 UNL     1       9.829  17.074  -6.995  1.00  0.00     0.082 A 
HETATM    7  N5  UNL     1       9.962  16.183  -6.087  1.00  0.00    -0.189 N 
ATOM      8  H5  UNL     1      10.487  16.338  -5.227  1.00  0.00     0.184 HD
ENDROOT
BRANCH   1   9
HETATM    9  N3  UNL     1       9.613  14.314  -5.319  1.00  0.00    -0.166 N 
ATOM     10  H3  UNL     1       9.932  14.962  -4.599  1.00  0.00     0.186 HD
BRANCH   9  11
HETATM   11  C8  UNL     1       9.628  12.976  -5.015  1.00  0.00     0.186 C 
HETATM   12  S1  UNL     1       8.262  12.113  -5.429  1.00  0.00    -0.040 SA
BRANCH  11  13
HETATM   13  N2  UNL     1      10.725  12.336  -4.488  1.00  0.00    -0.367 N 
ATOM     14  H2  UNL     1      11.612  12.839  -4.508  1.00  0.00     0.161 HD
BRANCH  13  15
HETATM   15  C7  UNL     1      10.730  11.008  -3.906  1.00  0.00     0.123 C 
BRANCH  15  16
HETATM   16  C6  UNL     1      10.571  11.172  -2.363  1.00  0.00     0.039 C 
BRANCH  16  17
HETATM   17  C5  UNL     1       9.932   9.953  -1.820  1.00  0.00     0.123 C 
BRANCH  17  18
HETATM   18  N1  UNL     1      10.948   9.183  -1.089  1.00  0.00    -0.394 N 
HETATM   19  C2  UNL     1      11.729   9.907  -0.251  1.00  0.00     0.053 C 
HETATM   20  C1  UNL     1      11.676   9.654   1.191  1.00  0.00     0.054 C 
BRANCH  18  21
HETATM   21  C3  UNL     1      11.068   7.837  -1.390  1.00  0.00     0.117 C 
HETATM   22  C4  UNL     1      10.244   6.957  -0.402  1.00  0.00     0.026 C 
ENDBRANCH  18  21
ENDBRANCH  17  18
ENDBRANCH  16  17
ENDBRANCH  15  16
ENDBRANCH  13  15
ENDBRANCH  11  13
ENDBRANCH   9  11
ENDBRANCH   1   9
BRANCH   6  23
HETATM   23  C13 UNL     1      10.426  18.422  -6.874  1.00  0.00    -0.001 A 
HETATM   24  C14 UNL     1      11.776  18.609  -7.045  1.00  0.00     0.015 A 
HETATM   25  C15 UNL     1      12.324  19.899  -6.771  1.00  0.00     0.007 A 
HETATM   26  C16 UNL     1      11.460  20.902  -6.353  1.00  0.00    -0.061 A 
HETATM   27  C17 UNL     1      11.954  22.255  -6.024  1.00  0.00     0.048 C 
HETATM   28  C18 UNL     1      10.096  20.621  -6.209  1.00  0.00     0.014 A 
HETATM   29  C19 UNL     1       9.581  19.433  -6.454  1.00  0.00    -0.049 A 
HETATM   30  C20 UNL     1       8.130  19.101  -6.254  1.00  0.00     0.049 C 
ENDBRANCH   6  23
TORSDOF 9
ENDMDL
MODEL 5
REMARK VINA RESULT: -7.840816372      2.164      3.256
REMARK  9 active torsions:
REMARK  status: ('A' for Active; 'I' for Inactive)
REMARK    1  A    between atoms: N1_3  and  C3_4 
REMARK    2  A    between atoms: N1_3  and  C5_6 
REMARK    3  A    between atoms: C5_6  and  C6_7 
REMARK    4  A    between atoms: C6_7  and  C7_8 
REMARK    5  A    between atoms: C7_8  and  N2_9 
REMARK    6  A    between atoms: N2_9  and  C8_11 
REMARK    7  A    between atoms: C8_11  and  N3_13 
REMARK    8  A    between atoms: N3_13  and  C9_15 
REMARK    9  A    between atoms: C12_20  and  C13_21 
ROOT
HETATM    1  C9  UNL     1       7.573  15.895  -8.214  1.00  0.00     0.685 A 
HETATM    2  N4  UNL     1       7.039  16.674  -9.056  1.00  0.00    -0.193 N 
ATOM      3  H4  UNL     1       7.446  17.607  -9.124  1.00  0.00     0.184 HD
HETATM    4  C10 UNL     1       6.020  16.428  -9.855  1.00  0.00     0.051 A 
HETATM    5  C11 UNL     1       5.335  17.344 -10.824  1.00  0.00     0.071 C 
HETATM    6  C12 UNL     1       5.712  15.163  -9.550  1.00  0.00     0.082 A 
HETATM    7  N5  UNL     1       6.524  14.782  -8.638  1.00  0.00    -0.189 N 
ATOM      8  H5  UNL     1       6.499  13.852  -8.222  1.00  0.00     0.184 HD
ENDROOT
BRANCH   1   9
HETATM    9  N3  UNL     1       8.108  15.102  -7.375  1.00  0.00    -0.166 N 
ATOM     10  H3  UNL     1       7.683  14.180  -7.267  1.00  0.00     0.186 HD
BRANCH   9  11
HETATM   11  C8  UNL     1       9.208  15.382  -6.604  1.00  0.00     0.186 C 
HETATM   12  S1  UNL     1      10.042  16.773  -6.993  1.00  0.00    -0.040 SA
BRANCH  11  13
HETATM   13  N2  UNL     1       9.573  14.633  -5.510  1.00  0.00    -0.367 N 
ATOM     14  H2  UNL     1       9.570  15.100  -4.604  1.00  0.00     0.161 HD
BRANCH  13  15
HETATM   15  C7  UNL     1       9.961  13.236  -5.533  1.00  0.00     0.123 C 
BRANCH  15  16
HETATM   16  C6  UNL     1       8.672  12.388  -5.301  1.00  0.00     0.039 C 
BRANCH  16  17
HETATM   17  C5  UNL     1       9.065  10.979  -5.081  1.00  0.00     0.123 C 
BRANCH  17  18
HETATM   18  N1  UNL     1       9.228  10.762  -3.636  1.00  0.00    -0.394 N 
HETATM   19  C2  UNL     1       8.143  11.063  -2.882  1.00  0.00     0.053 C 
HETATM   20  C1  UNL     1       7.461  10.002  -2.137  1.00  0.00     0.054 C 
BRANCH  18  21
HETATM   21  C3  UNL     1      10.477  10.368  -3.187  1.00  0.00     0.117 C 
HETATM   22  C4  UNL     1      10.864  11.101  -1.867  1.00  0.00     0.026 C 
ENDBRANCH  18  21
ENDBRANCH  17  18
ENDBRANCH  16  17
ENDBRANCH  15  16
ENDBRANCH  13  15
ENDBRANCH  11  13
ENDBRANCH   9  11
ENDBRANCH   1   9
BRANCH   6  23
HETATM   23  C13 UNL     1       4.660  14.276 -10.092  1.00  0.00    -0.001 A 
HETATM   24  C14 UNL     1       3.459  14.134  -9.441  1.00  0.00     0.015 A 
HETATM   25  C15 UNL     1       2.536  13.155  -9.922  1.00  0.00     0.007 A 
HETATM   26  C16 UNL     1       2.900  12.402 -11.031  1.00  0.00    -0.061 A 
HETATM   27  C17 UNL     1       2.013  11.352 -11.571  1.00  0.00     0.048 C 
HETATM   28  C18 UNL     1       4.145  12.618 -11.632  1.00  0.00     0.014 A 
HETATM   29  C19 UNL     1       5.005  13.514 -11.193  1.00  0.00    -0.049 A 
HETATM   30  C20 UNL     1       6.366  13.721 -11.794  1.00  0.00     0.049 C 
ENDBRANCH   6  23
TORSDOF 9
ENDMDL
