MODEL 1
REMARK VINA RESULT: -6.698824493      0.000      0.000
REMARK  8 active torsions:
REMARK  status: ('A' for Active; 'I' for Inactive)
REMARK    1  A    between atoms: C2_2  and  C3_3 
REMARK    2  A    between atoms: C3_3  and  N1_4 
REMARK    3  A    between atoms: N1_4  and  C4_7 
REMARK    4  A    between atoms: C4_7  and  C5_8 
REMARK    5  A    between atoms: C5_8  and  N2_9 
REMARK    6  A    between atoms: N2_9  and  C6_12 
REMARK    7  A    between atoms: C6_12  and  C7_13 
REMARK    8  A    between atoms: C7_13  and  O1_14 
ROOT
HETATM    1  C7  UNL     1       6.062  14.962  -9.268  1.00  0.00     0.089 C 
HETATM    2  C8  UNL     1       7.040  14.228 -10.197  1.00  0.00     0.041 C 
HETATM    3  C9  UNL     1       6.785  15.054 -11.467  1.00  0.00     0.009 C 
HETATM    4  C10 UNL     1       5.306  14.955 -11.580  1.00  0.00     0.001 C 
HETATM    5  C11 UNL     1       4.832  13.638 -12.159  1.00  0.00    -0.005 C 
HETATM    6  C12 UNL     1       5.379  13.480 -13.568  1.00  0.00     0.006 C 
HETATM    7  C13 UNL     1       4.934  12.121 -14.048  1.00  0.00     0.006 C 
HETATM    8  C14 UNL     1       3.471  11.922 -14.042  1.00  0.00    -0.006 C 
HETATM    9  C15 UNL     1       3.231  10.417 -13.837  1.00  0.00     0.005 C 
HETATM   10  C16 UNL     1       1.936  10.378 -13.087  1.00  0.00     0.001 C 
HETATM   11  C17 UNL     1       2.093  11.555 -12.139  1.00  0.00     0.010 C 
HETATM   12  C18 UNL     1       2.681  12.646 -13.045  1.00  0.00    -0.036 C 
HETATM   13  C19 UNL     1       1.453  13.248 -13.752  1.00  0.00     0.016 C 
HETATM   14  C20 UNL     1       3.330  13.736 -12.289  1.00  0.00    -0.002 C 
HETATM   15  C21 UNL     1       2.765  13.942 -10.905  1.00  0.00     0.007 C 
HETATM   16  C22 UNL     1       3.839  13.973  -9.838  1.00  0.00     0.013 C 
HETATM   17  C23 UNL     1       4.849  15.041 -10.118  1.00  0.00    -0.007 C 
HETATM   18  C24 UNL     1       4.184  16.394  -9.889  1.00  0.00     0.019 C 
ENDROOT
BRANCH   1  19
HETATM   19  C6  UNL     1       5.899  14.241  -7.963  1.00  0.00     0.270 C 
BRANCH  19  20
HETATM   20  N2  UNL     1       7.013  13.321  -7.835  1.00  0.00    -0.071 N 
ATOM     21  H22 UNL     1       7.562  13.291  -8.694  1.00  0.00     0.277 HD
ATOM     22  H21 UNL     1       6.688  12.355  -7.812  1.00  0.00     0.277 HD
BRANCH  20  23
HETATM   23  C5  UNL     1       7.849  13.608  -6.700  1.00  0.00     0.260 C 
BRANCH  23  24
HETATM   24  C4  UNL     1       8.149  12.364  -5.927  1.00  0.00     0.260 C 
BRANCH  24  25
HETATM   25  N1  UNL     1       9.355  12.423  -5.166  1.00  0.00    -0.070 N 
ATOM     26  H12 UNL     1       9.774  13.352  -5.218  1.00  0.00     0.277 HD
ATOM     27  H11 UNL     1      10.096  11.882  -5.612  1.00  0.00     0.277 HD
BRANCH  25  28
HETATM   28  C3  UNL     1       9.173  12.013  -3.787  1.00  0.00     0.259 C 
BRANCH  28  29
HETATM   29  C2  UNL     1       8.119  10.988  -3.645  1.00  0.00    -0.010 C 
HETATM   30  C1  UNL     1       7.795  10.549  -2.446  1.00  0.00     0.008 C 
ENDBRANCH  28  29
ENDBRANCH  25  28
ENDBRANCH  24  25
ENDBRANCH  23  24
ENDBRANCH  20  23
ENDBRANCH  19  20
ENDBRANCH   1  19
BRANCH   1  31
HETATM   31  O1  UNL     1       6.615  16.215  -9.063  1.00  0.00    -0.387 OA
ATOM     32  H1  UNL     1       7.542  16.141  -8.870  1.00  0.00     0.210 HD
ENDBRANCH   1  31
TORSDOF 8
ENDMDL
MODEL 2
REMARK VINA RESULT: -6.668850148      3.230      8.016
REMARK  8 active torsions:
REMARK  status: ('A' for Active; 'I' for Inactive)
REMARK    1  A    between atoms: C2_2  and  C3_3 
REMARK    2  A    between atoms: C3_3  and  N1_4 
REMARK    3  A    between atoms: N1_4  and  C4_7 
REMARK    4  A    between atoms: C4_7  and  C5_8 
REMARK    5  A    between atoms: C5_8  and  N2_9 
REMARK    6  A    between atoms: N2_9  and  C6_12 
REMARK    7  A    between atoms: C6_12  and  C7_13 
REMARK    8  A    between atoms: C7_13  and  O1_14 
ROOT
HETATM    1  C7  UNL     1       6.024  14.709 -11.127  1.00  0.00     0.089 C 
HETATM    2  C8  UNL     1       7.003  13.749 -10.436  1.00  0.00     0.041 C 
HETATM    3  C9  UNL     1       6.379  13.787  -9.032  1.00  0.00     0.009 C 
HETATM    4  C10 UNL     1       6.338  15.251  -8.777  1.00  0.00     0.001 C 
HETATM    5  C11 UNL     1       7.676  15.829  -8.364  1.00  0.00    -0.005 C 
HETATM    6  C12 UNL     1       8.126  15.182  -7.064  1.00  0.00     0.006 C 
HETATM    7  C13 UNL     1       9.491  15.745  -6.757  1.00  0.00     0.006 C 
HETATM    8  C14 UNL     1       9.530  17.216  -6.636  1.00  0.00    -0.006 C 
HETATM    9  C15 UNL     1      10.944  17.656  -7.048  1.00  0.00     0.005 C 
HETATM   10  C16 UNL     1      10.719  19.008  -7.650  1.00  0.00     0.001 C 
HETATM   11  C17 UNL     1       9.423  18.794  -8.413  1.00  0.00     0.010 C 
HETATM   12  C18 UNL     1       8.569  17.998  -7.417  1.00  0.00    -0.036 C 
HETATM   13  C19 UNL     1       7.967  19.074  -6.495  1.00  0.00     0.016 C 
HETATM   14  C20 UNL     1       7.442  17.290  -8.058  1.00  0.00    -0.002 C 
HETATM   15  C21 UNL     1       6.948  17.946  -9.323  1.00  0.00     0.007 C 
HETATM   16  C22 UNL     1       6.852  16.977 -10.482  1.00  0.00     0.013 C 
HETATM   17  C23 UNL     1       5.960  15.822 -10.150  1.00  0.00    -0.007 C 
HETATM   18  C24 UNL     1       4.525  16.334 -10.090  1.00  0.00     0.019 C 
ENDROOT
BRANCH   1  19
HETATM   19  C6  UNL     1       6.493  15.076 -12.503  1.00  0.00     0.270 C 
BRANCH  19  20
HETATM   20  N2  UNL     1       6.582  13.847 -13.271  1.00  0.00    -0.071 N 
ATOM     21  H22 UNL     1       6.319  13.042 -12.703  1.00  0.00     0.277 HD
ATOM     22  H21 UNL     1       7.554  13.606 -13.461  1.00  0.00     0.277 HD
BRANCH  20  23
HETATM   23  C5  UNL     1       5.816  13.891 -14.488  1.00  0.00     0.260 C 
BRANCH  23  24
HETATM   24  C4  UNL     1       4.726  12.868 -14.471  1.00  0.00     0.260 C 
BRANCH  24  25
HETATM   25  N1  UNL     1       4.814  11.935 -13.393  1.00  0.00    -0.070 N 
ATOM     26  H12 UNL     1       4.997  12.414 -12.510  1.00  0.00     0.277 HD
ATOM     27  H11 UNL     1       5.668  11.380 -13.460  1.00  0.00     0.277 HD
BRANCH  25  28
HETATM   28  C3  UNL     1       3.647  11.082 -13.289  1.00  0.00     0.259 C 
BRANCH  28  29
HETATM   29  C2  UNL     1       2.562  11.713 -12.510  1.00  0.00    -0.010 C 
HETATM   30  C1  UNL     1       2.466  11.476 -11.217  1.00  0.00     0.008 C 
ENDBRANCH  28  29
ENDBRANCH  25  28
ENDBRANCH  24  25
ENDBRANCH  23  24
ENDBRANCH  20  23
ENDBRANCH  19  20
ENDBRANCH   1  19
BRANCH   1  31
HETATM   31  O1  UNL     1       4.820  14.027 -11.192  1.00  0.00    -0.387 OA
ATOM     32  H1  UNL     1       4.807  13.316 -10.563  1.00  0.00     0.210 HD
ENDBRANCH   1  31
TORSDOF 8
ENDMDL
MODEL 3
REMARK VINA RESULT: -6.643962403      3.818      7.241
REMARK  8 active torsions:
REMARK  status: ('A' for Active; 'I' for Inactive)
REMARK    1  A    between atoms: C2_2  and  C3_3 
REMARK    2  A    between atoms: C3_3  and  N1_4 
REMARK    3  A    between atoms: N1_4  and  C4_7 
REMARK    4  A    between atoms: C4_7  and  C5_8 
REMARK    5  A    between atoms: C5_8  and  N2_9 
REMARK    6  A    between atoms: N2_9  and  C6_12 
REMARK    7  A    between atoms: C6_12  and  C7_13 
REMARK    8  A    between atoms: C7_13  and  O1_14 
ROOT
HETATM    1  C7  UNL     1       1.963  14.485 -11.398  1.00  0.00     0.089 C 
HETATM    2  C8  UNL     1       2.975  14.784 -12.514  1.00  0.00     0.041 C 
HETATM    3  C9  UNL     1       3.760  13.465 -12.446  1.00  0.00     0.009 C 
HETATM    4  C10 UNL     1       4.112  13.416 -11.004  1.00  0.00     0.001 C 
HETATM    5  C11 UNL     1       5.282  14.307 -10.638  1.00  0.00    -0.005 C 
HETATM    6  C12 UNL     1       6.519  13.853 -11.395  1.00  0.00     0.006 C 
HETATM    7  C13 UNL     1       7.616  14.827 -11.043  1.00  0.00     0.006 C 
HETATM    8  C14 UNL     1       7.906  14.921  -9.598  1.00  0.00    -0.006 C 
HETATM    9  C15 UNL     1       8.435  16.342  -9.347  1.00  0.00     0.005 C 
HETATM   10  C16 UNL     1       7.974  16.635  -7.953  1.00  0.00     0.001 C 
HETATM   11  C17 UNL     1       6.588  16.015  -7.950  1.00  0.00     0.010 C 
HETATM   12  C18 UNL     1       6.813  14.672  -8.658  1.00  0.00    -0.036 C 
HETATM   13  C19 UNL     1       7.340  13.746  -7.546  1.00  0.00     0.016 C 
HETATM   14  C20 UNL     1       5.565  14.073  -9.172  1.00  0.00    -0.002 C 
HETATM   15  C21 UNL     1       4.332  14.472  -8.401  1.00  0.00     0.007 C 
HETATM   16  C22 UNL     1       3.225  14.983  -9.298  1.00  0.00     0.013 C 
HETATM   17  C23 UNL     1       2.849  13.964 -10.328  1.00  0.00    -0.007 C 
HETATM   18  C24 UNL     1       2.133  12.818  -9.621  1.00  0.00     0.019 C 
ENDROOT
BRANCH   1  19
HETATM   19  C6  UNL     1       1.159  15.700 -11.045  1.00  0.00     0.270 C 
BRANCH  19  20
HETATM   20  N2  UNL     1       0.929  16.438 -12.273  1.00  0.00    -0.071 N 
ATOM     21  H22 UNL     1       0.109  16.081 -12.764  1.00  0.00     0.277 HD
ATOM     22  H21 UNL     1       1.645  16.223 -12.967  1.00  0.00     0.277 HD
BRANCH  20  23
HETATM   23  C5  UNL     1       0.826  17.857 -12.063  1.00  0.00     0.260 C 
BRANCH  23  24
HETATM   24  C4  UNL     1       1.609  18.278 -10.861  1.00  0.00     0.260 C 
BRANCH  24  25
HETATM   25  N1  UNL     1       2.598  19.274 -11.125  1.00  0.00    -0.070 N 
ATOM     26  H12 UNL     1       2.981  19.647 -10.256  1.00  0.00     0.277 HD
ATOM     27  H11 UNL     1       2.171  20.122 -11.496  1.00  0.00     0.277 HD
BRANCH  25  28
HETATM   28  C3  UNL     1       3.655  18.800 -11.997  1.00  0.00     0.259 C 
BRANCH  28  29
HETATM   29  C2  UNL     1       4.495  17.772 -11.348  1.00  0.00    -0.010 C 
HETATM   30  C1  UNL     1       5.779  18.002 -11.164  1.00  0.00     0.008 C 
ENDBRANCH  28  29
ENDBRANCH  25  28
ENDBRANCH  24  25
ENDBRANCH  23  24
ENDBRANCH  20  23
ENDBRANCH  19  20
ENDBRANCH   1  19
BRANCH   1  31
HETATM   31  O1  UNL     1       1.142  13.489 -11.899  1.00  0.00    -0.387 OA
ATOM     32  H1  UNL     1       1.084  12.766 -11.285  1.00  0.00     0.210 HD
ENDBRANCH   1  31
TORSDOF 8
ENDMDL
MODEL 4
REMARK VINA RESULT: -6.640753272      5.245      6.911
REMARK  8 active torsions:
REMARK  status: ('A' for Active; 'I' for Inactive)
REMARK    1  A    between atoms: C2_2  and  C3_3 
REMARK    2  A    between atoms: C3_3  and  N1_4 
REMARK    3  A    between atoms: N1_4  and  C4_7 
REMARK    4  A    between atoms: C4_7  and  C5_8 
REMARK    5  A    between atoms: C5_8  and  N2_9 
REMARK    6  A    between atoms: N2_9  and  C6_12 
REMARK    7  A    between atoms: C6_12  and  C7_13 
REMARK    8  A    between atoms: C7_13  and  O1_14 
ROOT
HETATM    1  C7  UNL     1       8.484  19.012  -7.378  1.00  0.00     0.089 C 
HETATM    2  C8  UNL     1       7.960  18.065  -6.288  1.00  0.00     0.041 C 
HETATM    3  C9  UNL     1       8.742  16.810  -6.706  1.00  0.00     0.009 C 
HETATM    4  C10 UNL     1       8.368  16.705  -8.140  1.00  0.00     0.001 C 
HETATM    5  C11 UNL     1       6.993  16.108  -8.363  1.00  0.00    -0.005 C 
HETATM    6  C12 UNL     1       6.961  14.693  -7.809  1.00  0.00     0.006 C 
HETATM    7  C13 UNL     1       5.549  14.194  -7.994  1.00  0.00     0.006 C 
HETATM    8  C14 UNL     1       5.078  14.206  -9.393  1.00  0.00    -0.006 C 
HETATM    9  C15 UNL     1       3.553  14.389  -9.344  1.00  0.00     0.005 C 
HETATM   10  C16 UNL     1       3.260  15.146 -10.601  1.00  0.00     0.001 C 
HETATM   11  C17 UNL     1       4.431  16.111 -10.661  1.00  0.00     0.010 C 
HETATM   12  C18 UNL     1       5.626  15.219 -10.297  1.00  0.00    -0.036 C 
HETATM   13  C19 UNL     1       5.996  14.529 -11.622  1.00  0.00     0.016 C 
HETATM   14  C20 UNL     1       6.809  15.988  -9.858  1.00  0.00    -0.002 C 
HETATM   15  C21 UNL     1       6.884  17.378 -10.438  1.00  0.00     0.007 C 
HETATM   16  C22 UNL     1       7.102  18.439  -9.381  1.00  0.00     0.013 C 
HETATM   17  C23 UNL     1       8.345  18.171  -8.592  1.00  0.00    -0.007 C 
HETATM   18  C24 UNL     1       9.545  18.425  -9.498  1.00  0.00     0.019 C 
ENDROOT
BRANCH   1  19
HETATM   19  C6  UNL     1       7.727  20.306  -7.392  1.00  0.00     0.270 C 
BRANCH  19  20
HETATM   20  N2  UNL     1       8.215  21.104  -6.282  1.00  0.00    -0.071 N 
ATOM     21  H22 UNL     1       9.052  20.687  -5.874  1.00  0.00     0.277 HD
ATOM     22  H21 UNL     1       7.588  21.036  -5.481  1.00  0.00     0.277 HD
BRANCH  20  23
HETATM   23  C5  UNL     1       8.446  22.478  -6.639  1.00  0.00     0.260 C 
BRANCH  23  24
HETATM   24  C4  UNL     1       9.886  22.841  -6.468  1.00  0.00     0.260 C 
BRANCH  24  25
HETATM   25  N1  UNL     1      10.695  21.791  -5.935  1.00  0.00    -0.070 N 
ATOM     26  H12 UNL     1      10.984  21.145  -6.670  1.00  0.00     0.277 HD
ATOM     27  H11 UNL     1      10.138  21.156  -5.364  1.00  0.00     0.277 HD
BRANCH  25  28
HETATM   28  C3  UNL     1      11.842  22.283  -5.196  1.00  0.00     0.259 C 
BRANCH  28  29
HETATM   29  C2  UNL     1      12.215  21.387  -4.083  1.00  0.00    -0.010 C 
HETATM   30  C1  UNL     1      11.838  20.124  -4.110  1.00  0.00     0.008 C 
ENDBRANCH  28  29
ENDBRANCH  25  28
ENDBRANCH  24  25
ENDBRANCH  23  24
ENDBRANCH  20  23
ENDBRANCH  19  20
ENDBRANCH   1  19
BRANCH   1  31
HETATM   31  O1  UNL     1       9.815  19.232  -7.069  1.00  0.00    -0.387 OA
ATOM     32  H1  UNL     1      10.348  19.205  -7.856  1.00  0.00     0.210 HD
ENDBRANCH   1  31
TORSDOF 8
ENDMDL
MODEL 5
REMARK VINA RESULT: -6.616400886      3.377      7.917
REMARK  8 active torsions:
REMARK  status: ('A' for Active; 'I' for Inactive)
REMARK    1  A    between atoms: C2_2  and  C3_3 
REMARK    2  A    between atoms: C3_3  and  N1_4 
REMARK    3  A    between atoms: N1_4  and  C4_7 
REMARK    4  A    between atoms: C4_7  and  C5_8 
REMARK    5  A    between atoms: C5_8  and  N2_9 
REMARK    6  A    between atoms: N2_9  and  C6_12 
REMARK    7  A    between atoms: C6_12  and  C7_13 
REMARK    8  A    between atoms: C7_13  and  O1_14 
ROOT
HETATM    1  C7  UNL     1       4.744  14.662 -10.254  1.00  0.00     0.089 C 
HETATM    2  C8  UNL     1       4.443  16.017 -10.911  1.00  0.00     0.041 C 
HETATM    3  C9  UNL     1       5.790  16.209 -11.624  1.00  0.00     0.009 C 
HETATM    4  C10 UNL     1       6.739  16.032 -10.494  1.00  0.00     0.001 C 
HETATM    5  C11 UNL     1       6.859  17.257  -9.609  1.00  0.00    -0.005 C 
HETATM    6  C12 UNL     1       7.385  18.423 -10.430  1.00  0.00     0.006 C 
HETATM    7  C13 UNL     1       7.404  19.618  -9.510  1.00  0.00     0.006 C 
HETATM    8  C14 UNL     1       8.223  19.438  -8.295  1.00  0.00    -0.006 C 
HETATM    9  C15 UNL     1       7.600  20.328  -7.207  1.00  0.00     0.005 C 
HETATM   10  C16 UNL     1       7.890  19.577  -5.945  1.00  0.00     0.001 C 
HETATM   11  C17 UNL     1       7.663  18.140  -6.382  1.00  0.00     0.010 C 
HETATM   12  C18 UNL     1       8.359  18.086  -7.749  1.00  0.00    -0.036 C 
HETATM   13  C19 UNL     1       9.842  17.855  -7.407  1.00  0.00     0.016 C 
HETATM   14  C20 UNL     1       7.917  16.945  -8.577  1.00  0.00    -0.002 C 
HETATM   15  C21 UNL     1       7.439  15.759  -7.779  1.00  0.00     0.007 C 
HETATM   16  C22 UNL     1       6.082  15.263  -8.230  1.00  0.00     0.013 C 
HETATM   17  C23 UNL     1       6.091  14.903  -9.682  1.00  0.00    -0.007 C 
HETATM   18  C24 UNL     1       6.924  13.637  -9.850  1.00  0.00     0.019 C 
ENDROOT
BRANCH   1  19
HETATM   19  C6  UNL     1       3.678  14.278  -9.271  1.00  0.00     0.270 C 
BRANCH  19  20
HETATM   20  N2  UNL     1       2.559  13.754 -10.031  1.00  0.00    -0.071 N 
ATOM     21  H22 UNL     1       2.789  13.691 -11.023  1.00  0.00     0.277 HD
ATOM     22  H21 UNL     1       1.801  14.434 -10.079  1.00  0.00     0.277 HD
BRANCH  20  23
HETATM   23  C5  UNL     1       2.085  12.491  -9.531  1.00  0.00     0.260 C 
BRANCH  23  24
HETATM   24  C4  UNL     1       1.964  11.490 -10.635  1.00  0.00     0.260 C 
BRANCH  24  25
HETATM   25  N1  UNL     1       3.078  11.464 -11.528  1.00  0.00    -0.070 N 
ATOM     26  H12 UNL     1       3.677  10.660 -11.340  1.00  0.00     0.277 HD
ATOM     27  H11 UNL     1       3.735  12.215 -11.313  1.00  0.00     0.277 HD
BRANCH  25  28
HETATM   28  C3  UNL     1       2.684  11.504 -12.922  1.00  0.00     0.259 C 
BRANCH  28  29
HETATM   29  C2  UNL     1       3.629  10.772 -13.790  1.00  0.00    -0.010 C 
HETATM   30  C1  UNL     1       3.192   9.780 -14.539  1.00  0.00     0.008 C 
ENDBRANCH  28  29
ENDBRANCH  25  28
ENDBRANCH  24  25
ENDBRANCH  23  24
ENDBRANCH  20  23
ENDBRANCH  19  20
ENDBRANCH   1  19
BRANCH   1  31
HETATM   31  O1  UNL     1       4.796  13.748 -11.293  1.00  0.00    -0.387 OA
ATOM     32  H1  UNL     1       4.285  12.976 -11.082  1.00  0.00     0.210 HD
ENDBRANCH   1  31
TORSDOF 8
ENDMDL
