MODEL 1
REMARK VINA RESULT: -10.437136838      0.000      0.000
REMARK  9 active torsions:
REMARK  status: ('A' for Active; 'I' for Inactive)
REMARK    1  A    between atoms: C2_2  and  C3_3 
REMARK    2  A    between atoms: C5_5  and  N1_6 
REMARK    3  A    between atoms: N1_6  and  C6_8 
REMARK    4  A    between atoms: C6_8  and  C7_9 
REMARK    5  A    between atoms: C7_9  and  C8_10 
REMARK    6  A    between atoms: C11_13  and  C12_14 
REMARK    7  A    between atoms: C14_16  and  C15_17 
REMARK    8  A    between atoms: C19_21  and  O1_22 
REMARK    9  A    between atoms: C24_29  and  N3_30 
ROOT
HETATM    1  C8  UNL     1       9.008  13.716  -5.926  1.00  0.00    -0.057 A 
HETATM    2  C9  UNL     1       8.042  12.813  -6.262  1.00  0.00     0.008 A 
HETATM    3  C10 UNL     1       7.117  13.003  -7.284  1.00  0.00     0.013 A 
HETATM    4  C11 UNL     1       7.203  14.188  -7.988  1.00  0.00    -0.026 A 
HETATM    5  C22 UNL     1       8.161  15.139  -7.692  1.00  0.00     0.013 A 
HETATM    6  C23 UNL     1       9.049  14.894  -6.667  1.00  0.00     0.008 A 
ENDROOT
BRANCH   1   7
HETATM    7  C7  UNL     1       9.991  13.496  -4.828  1.00  0.00     0.058 C 
BRANCH   7   8
HETATM    8  C6  UNL     1      10.580  12.106  -4.988  1.00  0.00     0.126 C 
BRANCH   8   9
HETATM    9  N1  UNL     1      10.931  11.502  -3.748  1.00  0.00    -0.376 N 
ATOM     10  H1  UNL     1      11.879  11.682  -3.418  1.00  0.00     0.161 HD
BRANCH   9  11
HETATM   11  C5  UNL     1      10.211  10.766  -2.996  1.00  0.00     0.119 A 
HETATM   12  C4  UNL     1      10.747   9.975  -2.026  1.00  0.00     0.078 A 
HETATM   13  C3  UNL     1       9.947   9.172  -1.209  1.00  0.00     0.052 A 
HETATM   14  N4  UNL     1       8.621   9.215  -1.426  1.00  0.00    -0.192 N 
HETATM   15  C24 UNL     1       8.103  10.014  -2.404  1.00  0.00     0.677 A 
ATOM     16  H4  UNL     1       7.997   8.646  -0.855  1.00  0.00     0.184 HD
HETATM   17  N2  UNL     1       8.865  10.790  -3.193  1.00  0.00    -0.177 N 
ATOM     18  H2  UNL     1       8.449  11.378  -3.914  1.00  0.00     0.185 HD
BRANCH  13  19
HETATM   19  C2  UNL     1      10.593   8.367  -0.203  1.00  0.00     0.020 C 
HETATM   20  C1  UNL     1      11.498   8.881   0.591  1.00  0.00     0.013 C 
ENDBRANCH  13  19
BRANCH  15  21
HETATM   21  N3  UNL     1       6.825  10.003  -2.551  1.00  0.00    -0.234 N 
ATOM     22  H32 UNL     1       6.358   9.100  -2.471  1.00  0.00     0.174 HD
ATOM     23  H31 UNL     1       6.324  10.871  -2.738  1.00  0.00     0.174 HD
ENDBRANCH  15  21
ENDBRANCH   9  11
ENDBRANCH   8   9
ENDBRANCH   7   8
ENDBRANCH   1   7
BRANCH   4  24
HETATM   24  C12 UNL     1       6.229  14.395  -9.071  1.00  0.00    -0.023 A 
HETATM   25  C13 UNL     1       4.874  14.310  -8.852  1.00  0.00     0.020 A 
HETATM   26  C14 UNL     1       3.999  14.516  -9.904  1.00  0.00    -0.049 A 
HETATM   27  C17 UNL     1       4.450  14.803 -11.173  1.00  0.00    -0.022 A 
HETATM   28  C18 UNL     1       3.479  15.016 -12.272  1.00  0.00     0.052 C 
HETATM   29  C19 UNL     1       5.804  14.891 -11.406  1.00  0.00     0.075 A 
HETATM   30  C21 UNL     1       6.665  14.685 -10.348  1.00  0.00     0.049 A 
BRANCH  26  31
HETATM   31  C15 UNL     1       2.530  14.419  -9.648  1.00  0.00     0.035 C 
HETATM   32  C16 UNL     1       2.123  13.003  -9.301  1.00  0.00     0.010 C 
ENDBRANCH  26  31
BRANCH  29  33
HETATM   33  O1  UNL     1       6.277  15.185 -12.699  1.00  0.00    -0.355 OA
HETATM   34  C20 UNL     1       7.670  15.133 -12.900  1.00  0.00     0.210 C 
ENDBRANCH  29  33
ENDBRANCH   4  24
TORSDOF 9
ENDMDL
MODEL 2
REMARK VINA RESULT: -10.368729135      1.257      1.298
REMARK  9 active torsions:
REMARK  status: ('A' for Active; 'I' for Inactive)
REMARK    1  A    between atoms: C2_2  and  C3_3 
REMARK    2  A    between atoms: C5_5  and  N1_6 
REMARK    3  A    between atoms: N1_6  and  C6_8 
REMARK    4  A    between atoms: C6_8  and  C7_9 
REMARK    5  A    between atoms: C7_9  and  C8_10 
REMARK    6  A    between atoms: C11_13  and  C12_14 
REMARK    7  A    between atoms: C14_16  and  C15_17 
REMARK    8  A    between atoms: C19_21  and  O1_22 
REMARK    9  A    between atoms: C24_29  and  N3_30 
ROOT
HETATM    1  C8  UNL     1       9.134  13.658  -5.825  1.00  0.00    -0.057 A 
HETATM    2  C9  UNL     1       8.101  12.879  -6.258  1.00  0.00     0.008 A 
HETATM    3  C10 UNL     1       7.157  13.286  -7.195  1.00  0.00     0.013 A 
HETATM    4  C11 UNL     1       7.294  14.563  -7.703  1.00  0.00    -0.026 A 
HETATM    5  C22 UNL     1       8.321  15.396  -7.301  1.00  0.00     0.013 A 
HETATM    6  C23 UNL     1       9.226  14.937  -6.368  1.00  0.00     0.008 A 
ENDROOT
BRANCH   1   7
HETATM    7  C7  UNL     1      10.138  13.206  -4.821  1.00  0.00     0.058 C 
BRANCH   7   8
HETATM    8  C6  UNL     1      10.551  11.786  -5.166  1.00  0.00     0.126 C 
BRANCH   8   9
HETATM    9  N1  UNL     1      10.934  11.024  -4.028  1.00  0.00    -0.376 N 
ATOM     10  H1  UNL     1      11.938  10.939  -3.867  1.00  0.00     0.161 HD
BRANCH   9  11
HETATM   11  C5  UNL     1      10.184  10.433  -3.183  1.00  0.00     0.119 A 
HETATM   12  C4  UNL     1      10.688   9.708  -2.146  1.00  0.00     0.078 A 
HETATM   13  C3  UNL     1       9.854   9.065  -1.228  1.00  0.00     0.052 A 
HETATM   14  N4  UNL     1       8.530   9.194  -1.415  1.00  0.00    -0.192 N 
HETATM   15  C24 UNL     1       8.044   9.925  -2.460  1.00  0.00     0.677 A 
ATOM     16  H4  UNL     1       7.882   8.742  -0.770  1.00  0.00     0.184 HD
HETATM   17  N2  UNL     1       8.839  10.547  -3.347  1.00  0.00    -0.177 N 
ATOM     18  H2  UNL     1       8.447  11.087  -4.118  1.00  0.00     0.185 HD
BRANCH  13  19
HETATM   19  C2  UNL     1      10.468   8.320  -0.157  1.00  0.00     0.020 C 
HETATM   20  C1  UNL     1      11.395   8.860   0.593  1.00  0.00     0.013 C 
ENDBRANCH  13  19
BRANCH  15  21
HETATM   21  N3  UNL     1       6.766  10.003  -2.574  1.00  0.00    -0.234 N 
ATOM     22  H32 UNL     1       6.383  10.892  -2.893  1.00  0.00     0.174 HD
ATOM     23  H31 UNL     1       6.182   9.197  -2.350  1.00  0.00     0.174 HD
ENDBRANCH  15  21
ENDBRANCH   9  11
ENDBRANCH   8   9
ENDBRANCH   7   8
ENDBRANCH   1   7
BRANCH   4  24
HETATM   24  C12 UNL     1       6.299  15.000  -8.694  1.00  0.00    -0.023 A 
HETATM   25  C13 UNL     1       5.304  14.161  -9.141  1.00  0.00     0.020 A 
HETATM   26  C14 UNL     1       4.392  14.622 -10.073  1.00  0.00    -0.049 A 
HETATM   27  C17 UNL     1       4.452  15.904 -10.571  1.00  0.00    -0.022 A 
HETATM   28  C18 UNL     1       3.454  16.357 -11.569  1.00  0.00     0.052 C 
HETATM   29  C19 UNL     1       5.443  16.754 -10.133  1.00  0.00     0.075 A 
HETATM   30  C21 UNL     1       6.345  16.282  -9.203  1.00  0.00     0.049 A 
BRANCH  26  31
HETATM   31  C15 UNL     1       3.318  13.696 -10.548  1.00  0.00     0.035 C 
HETATM   32  C16 UNL     1       2.377  13.321  -9.423  1.00  0.00     0.010 C 
ENDBRANCH  26  31
BRANCH  29  33
HETATM   33  O1  UNL     1       5.514  18.068 -10.635  1.00  0.00    -0.355 OA
HETATM   34  C20 UNL     1       6.793  18.651 -10.726  1.00  0.00     0.210 C 
ENDBRANCH  29  33
ENDBRANCH   4  24
TORSDOF 9
ENDMDL
MODEL 3
REMARK VINA RESULT: -10.334277939      1.203      1.502
REMARK  9 active torsions:
REMARK  status: ('A' for Active; 'I' for Inactive)
REMARK    1  A    between atoms: C2_2  and  C3_3 
REMARK    2  A    between atoms: C5_5  and  N1_6 
REMARK    3  A    between atoms: N1_6  and  C6_8 
REMARK    4  A    between atoms: C6_8  and  C7_9 
REMARK    5  A    between atoms: C7_9  and  C8_10 
REMARK    6  A    between atoms: C11_13  and  C12_14 
REMARK    7  A    between atoms: C14_16  and  C15_17 
REMARK    8  A    between atoms: C19_21  and  O1_22 
REMARK    9  A    between atoms: C24_29  and  N3_30 
ROOT
HETATM    1  C8  UNL     1       9.152  13.785  -6.038  1.00  0.00    -0.057 A 
HETATM    2  C9  UNL     1       9.052  15.035  -6.577  1.00  0.00     0.008 A 
HETATM    3  C10 UNL     1       8.007  15.449  -7.398  1.00  0.00     0.013 A 
HETATM    4  C11 UNL     1       7.022  14.519  -7.668  1.00  0.00    -0.026 A 
HETATM    5  C22 UNL     1       7.071  13.239  -7.148  1.00  0.00     0.013 A 
HETATM    6  C23 UNL     1       8.132  12.887  -6.342  1.00  0.00     0.008 A 
ENDROOT
BRANCH   1   7
HETATM    7  C7  UNL     1      10.277  13.358  -5.160  1.00  0.00     0.058 C 
BRANCH   7   8
HETATM    8  C6  UNL     1      10.414  11.849  -5.260  1.00  0.00     0.126 C 
BRANCH   8   9
HETATM    9  N1  UNL     1      10.832  11.245  -4.042  1.00  0.00    -0.376 N 
ATOM     10  H1  UNL     1      11.819  11.354  -3.807  1.00  0.00     0.161 HD
BRANCH   9  11
HETATM   11  C5  UNL     1      10.133  10.583  -3.206  1.00  0.00     0.119 A 
HETATM   12  C4  UNL     1      10.697   9.852  -2.205  1.00  0.00     0.078 A 
HETATM   13  C3  UNL     1       9.918   9.131  -1.296  1.00  0.00     0.052 A 
HETATM   14  N4  UNL     1       8.584   9.191  -1.456  1.00  0.00    -0.192 N 
HETATM   15  C24 UNL     1       8.039   9.929  -2.466  1.00  0.00     0.677 A 
ATOM     16  H4  UNL     1       7.976   8.681  -0.817  1.00  0.00     0.184 HD
HETATM   17  N2  UNL     1       8.780  10.626  -3.344  1.00  0.00    -0.177 N 
ATOM     18  H2  UNL     1       8.344  11.169  -4.088  1.00  0.00     0.185 HD
BRANCH  13  19
HETATM   19  C2  UNL     1      10.592   8.386  -0.263  1.00  0.00     0.020 C 
HETATM   20  C1  UNL     1      11.566   8.923   0.428  1.00  0.00     0.013 C 
ENDBRANCH  13  19
BRANCH  15  21
HETATM   21  N3  UNL     1       6.756   9.939  -2.555  1.00  0.00    -0.234 N 
ATOM     22  H32 UNL     1       6.255   9.167  -2.115  1.00  0.00     0.174 HD
ATOM     23  H31 UNL     1       6.283  10.696  -3.048  1.00  0.00     0.174 HD
ENDBRANCH  15  21
ENDBRANCH   9  11
ENDBRANCH   8   9
ENDBRANCH   7   8
ENDBRANCH   1   7
BRANCH   4  24
HETATM   24  C12 UNL     1       5.914  14.950  -8.534  1.00  0.00    -0.023 A 
HETATM   25  C13 UNL     1       4.752  14.222  -8.641  1.00  0.00     0.020 A 
HETATM   26  C14 UNL     1       3.739  14.672  -9.469  1.00  0.00    -0.049 A 
HETATM   27  C17 UNL     1       3.862  15.835 -10.195  1.00  0.00    -0.022 A 
HETATM   28  C18 UNL     1       2.753  16.281 -11.070  1.00  0.00     0.052 C 
HETATM   29  C19 UNL     1       5.020  16.573 -10.098  1.00  0.00     0.075 A 
HETATM   30  C21 UNL     1       6.022  16.114  -9.268  1.00  0.00     0.049 A 
BRANCH  26  31
HETATM   31  C15 UNL     1       2.484  13.867  -9.573  1.00  0.00     0.035 C 
HETATM   32  C16 UNL     1       2.658  12.692 -10.512  1.00  0.00     0.010 C 
ENDBRANCH  26  31
BRANCH  29  33
HETATM   33  O1  UNL     1       5.157  17.765 -10.836  1.00  0.00    -0.355 OA
HETATM   34  C20 UNL     1       6.419  18.024 -11.407  1.00  0.00     0.210 C 
ENDBRANCH  29  33
ENDBRANCH   4  24
TORSDOF 9
ENDMDL
MODEL 4
REMARK VINA RESULT: -10.236121869      0.959      1.326
REMARK  9 active torsions:
REMARK  status: ('A' for Active; 'I' for Inactive)
REMARK    1  A    between atoms: C2_2  and  C3_3 
REMARK    2  A    between atoms: C5_5  and  N1_6 
REMARK    3  A    between atoms: N1_6  and  C6_8 
REMARK    4  A    between atoms: C6_8  and  C7_9 
REMARK    5  A    between atoms: C7_9  and  C8_10 
REMARK    6  A    between atoms: C11_13  and  C12_14 
REMARK    7  A    between atoms: C14_16  and  C15_17 
REMARK    8  A    between atoms: C19_21  and  O1_22 
REMARK    9  A    between atoms: C24_29  and  N3_30 
ROOT
HETATM    1  C8  UNL     1       8.899  14.211  -6.412  1.00  0.00    -0.057 A 
HETATM    2  C9  UNL     1       8.726  15.201  -7.334  1.00  0.00     0.008 A 
HETATM    3  C10 UNL     1       7.764  15.171  -8.339  1.00  0.00     0.013 A 
HETATM    4  C11 UNL     1       6.946  14.059  -8.384  1.00  0.00    -0.026 A 
HETATM    5  C22 UNL     1       7.076  13.026  -7.475  1.00  0.00     0.013 A 
HETATM    6  C23 UNL     1       8.049  13.113  -6.503  1.00  0.00     0.008 A 
ENDROOT
BRANCH   1   7
HETATM    7  C7  UNL     1       9.935  14.260  -5.341  1.00  0.00     0.058 C 
BRANCH   7   8
HETATM    8  C6  UNL     1      10.259  12.835  -4.927  1.00  0.00     0.126 C 
BRANCH   8   9
HETATM    9  N1  UNL     1      10.094  12.608  -3.532  1.00  0.00    -0.376 N 
ATOM     10  H1  UNL     1      10.334  13.390  -2.923  1.00  0.00     0.161 HD
BRANCH   9  11
HETATM   11  C5  UNL     1       9.685  11.552  -2.946  1.00  0.00     0.119 A 
HETATM   12  C4  UNL     1      10.496  10.804  -2.147  1.00  0.00     0.078 A 
HETATM   13  C3  UNL     1      10.035   9.648  -1.512  1.00  0.00     0.052 A 
HETATM   14  N4  UNL     1       8.753   9.307  -1.727  1.00  0.00    -0.192 N 
HETATM   15  C24 UNL     1       7.957  10.069  -2.532  1.00  0.00     0.677 A 
ATOM     16  H4  UNL     1       8.372   8.471  -1.285  1.00  0.00     0.184 HD
HETATM   17  N2  UNL     1       8.392  11.182  -3.146  1.00  0.00    -0.177 N 
ATOM     18  H2  UNL     1       7.773  11.732  -3.741  1.00  0.00     0.185 HD
BRANCH  13  19
HETATM   19  C2  UNL     1      10.955   8.915  -0.679  1.00  0.00     0.020 C 
HETATM   20  C1  UNL     1      10.554   7.887   0.024  1.00  0.00     0.013 C 
ENDBRANCH  13  19
BRANCH  15  21
HETATM   21  N3  UNL     1       6.741   9.679  -2.690  1.00  0.00    -0.234 N 
ATOM     22  H32 UNL     1       6.222  10.083  -3.468  1.00  0.00     0.174 HD
ATOM     23  H31 UNL     1       6.337   8.993  -2.052  1.00  0.00     0.174 HD
ENDBRANCH  15  21
ENDBRANCH   9  11
ENDBRANCH   8   9
ENDBRANCH   7   8
ENDBRANCH   1   7
BRANCH   4  24
HETATM   24  C12 UNL     1       5.926  14.021  -9.444  1.00  0.00    -0.023 A 
HETATM   25  C13 UNL     1       4.581  14.056  -9.156  1.00  0.00     0.020 A 
HETATM   26  C14 UNL     1       3.663  14.019 -10.190  1.00  0.00    -0.049 A 
HETATM   27  C17 UNL     1       4.058  13.946 -11.507  1.00  0.00    -0.022 A 
HETATM   28  C18 UNL     1       3.041  13.908 -12.583  1.00  0.00     0.052 C 
HETATM   29  C19 UNL     1       5.401  13.909 -11.808  1.00  0.00     0.075 A 
HETATM   30  C21 UNL     1       6.306  13.948 -10.768  1.00  0.00     0.049 A 
BRANCH  26  31
HETATM   31  C15 UNL     1       2.205  14.058  -9.860  1.00  0.00     0.035 C 
HETATM   32  C16 UNL     1       1.777  12.815  -9.108  1.00  0.00     0.010 C 
ENDBRANCH  26  31
BRANCH  29  33
HETATM   33  O1  UNL     1       5.818  13.834 -13.151  1.00  0.00    -0.355 OA
HETATM   34  C20 UNL     1       6.177  12.563 -13.642  1.00  0.00     0.210 C 
ENDBRANCH  29  33
ENDBRANCH   4  24
TORSDOF 9
ENDMDL
MODEL 5
REMARK VINA RESULT: -10.199599910      0.946      2.399
REMARK  9 active torsions:
REMARK  status: ('A' for Active; 'I' for Inactive)
REMARK    1  A    between atoms: C2_2  and  C3_3 
REMARK    2  A    between atoms: C5_5  and  N1_6 
REMARK    3  A    between atoms: N1_6  and  C6_8 
REMARK    4  A    between atoms: C6_8  and  C7_9 
REMARK    5  A    between atoms: C7_9  and  C8_10 
REMARK    6  A    between atoms: C11_13  and  C12_14 
REMARK    7  A    between atoms: C14_16  and  C15_17 
REMARK    8  A    between atoms: C19_21  and  O1_22 
REMARK    9  A    between atoms: C24_29  and  N3_30 
ROOT
HETATM    1  C8  UNL     1       9.024  13.704  -5.902  1.00  0.00    -0.057 A 
HETATM    2  C9  UNL     1       8.057  12.816  -6.274  1.00  0.00     0.008 A 
HETATM    3  C10 UNL     1       7.153  13.035  -7.309  1.00  0.00     0.013 A 
HETATM    4  C11 UNL     1       7.261  14.234  -7.986  1.00  0.00    -0.026 A 
HETATM    5  C22 UNL     1       8.220  15.171  -7.653  1.00  0.00     0.013 A 
HETATM    6  C23 UNL     1       9.088  14.897  -6.617  1.00  0.00     0.008 A 
ENDROOT
BRANCH   1   7
HETATM    7  C7  UNL     1       9.985  13.454  -4.792  1.00  0.00     0.058 C 
BRANCH   7   8
HETATM    8  C6  UNL     1      10.582  12.070  -4.981  1.00  0.00     0.126 C 
BRANCH   8   9
HETATM    9  N1  UNL     1      10.914  11.432  -3.754  1.00  0.00    -0.376 N 
ATOM     10  H1  UNL     1      11.869  11.570  -3.425  1.00  0.00     0.161 HD
BRANCH   9  11
HETATM   11  C5  UNL     1      10.170  10.710  -3.012  1.00  0.00     0.119 A 
HETATM   12  C4  UNL     1      10.678   9.903  -2.039  1.00  0.00     0.078 A 
HETATM   13  C3  UNL     1       9.851   9.117  -1.234  1.00  0.00     0.052 A 
HETATM   14  N4  UNL     1       8.529   9.192  -1.462  1.00  0.00    -0.192 N 
HETATM   15  C24 UNL     1       8.039  10.006  -2.442  1.00  0.00     0.677 A 
ATOM     16  H4  UNL     1       7.886   8.636  -0.899  1.00  0.00     0.184 HD
HETATM   17  N2  UNL     1       8.827  10.767  -3.221  1.00  0.00    -0.177 N 
ATOM     18  H2  UNL     1       8.432  11.367  -3.944  1.00  0.00     0.185 HD
BRANCH  13  19
HETATM   19  C2  UNL     1      10.468   8.293  -0.224  1.00  0.00     0.020 C 
HETATM   20  C1  UNL     1      11.398   8.774   0.561  1.00  0.00     0.013 C 
ENDBRANCH  13  19
BRANCH  15  21
HETATM   21  N3  UNL     1       6.763  10.026  -2.601  1.00  0.00    -0.234 N 
ATOM     22  H32 UNL     1       6.210  10.456  -1.861  1.00  0.00     0.174 HD
ATOM     23  H31 UNL     1       6.346   9.624  -3.441  1.00  0.00     0.174 HD
ENDBRANCH  15  21
ENDBRANCH   9  11
ENDBRANCH   8   9
ENDBRANCH   7   8
ENDBRANCH   1   7
BRANCH   4  24
HETATM   24  C12 UNL     1       6.308  14.472  -9.081  1.00  0.00    -0.023 A 
HETATM   25  C13 UNL     1       6.729  14.806 -10.347  1.00  0.00     0.020 A 
HETATM   26  C14 UNL     1       5.792  15.019 -11.343  1.00  0.00    -0.049 A 
HETATM   27  C17 UNL     1       4.442  14.906 -11.101  1.00  0.00    -0.022 A 
HETATM   28  C18 UNL     1       3.472  15.142 -12.196  1.00  0.00     0.052 C 
HETATM   29  C19 UNL     1       4.007  14.573  -9.838  1.00  0.00     0.075 A 
HETATM   30  C21 UNL     1       4.951  14.363  -8.855  1.00  0.00     0.049 A 
BRANCH  26  31
HETATM   31  C15 UNL     1       6.267  15.382 -12.713  1.00  0.00     0.035 C 
HETATM   32  C16 UNL     1       7.755  15.143 -12.862  1.00  0.00     0.010 C 
ENDBRANCH  26  31
BRANCH  29  33
HETATM   33  O1  UNL     1       2.628  14.454  -9.578  1.00  0.00    -0.355 OA
HETATM   34  C20 UNL     1       2.128  13.159  -9.338  1.00  0.00     0.210 C 
ENDBRANCH  29  33
ENDBRANCH   4  24
TORSDOF 9
ENDMDL
