MODEL 1
REMARK VINA RESULT: -8.189221461      0.000      0.000
REMARK  7 active torsions:
REMARK  status: ('A' for Active; 'I' for Inactive)
REMARK    1  A    between atoms: C2_2  and  N1_3 
REMARK    2  A    between atoms: N1_3  and  C4_5 
REMARK    3  A    between atoms: C4_5  and  C5_6 
REMARK    4  A    between atoms: C7_8  and  C8_9 
REMARK    5  A    between atoms: C8_9  and  C9_10 
REMARK    6  A    between atoms: C9_10  and  N2_11 
REMARK    7  A    between atoms: C16_20  and  N4_21 
REMARK       I    between atoms: N4_21  and  C17_23 
ROOT
HETATM    1  C5  UNL     1       9.161  14.256  -6.043  1.00  0.00    -0.023 A 
HETATM    2  C6  UNL     1       9.899  15.396  -6.186  1.00  0.00     0.019 A 
HETATM    3  C7  UNL     1       9.677  16.315  -7.189  1.00  0.00    -0.028 A 
HETATM    4  C12 UNL     1       8.664  16.067  -8.085  1.00  0.00     0.051 A 
HETATM    5  N3  UNL     1       8.211  16.760  -9.153  1.00  0.00    -0.354 N 
ATOM      6  H3  UNL     1       8.600  17.649  -9.466  1.00  0.00     0.166 HD
HETATM    7  C13 UNL     1       7.184  16.135  -9.752  1.00  0.00     0.044 A 
HETATM    8  C14 UNL     1       6.401  16.439 -10.859  1.00  0.00     0.033 A 
HETATM    9  C15 UNL     1       5.386  15.536 -11.216  1.00  0.00     0.032 A 
HETATM   10  C16 UNL     1       5.140  14.381 -10.526  1.00  0.00     0.036 A 
HETATM   11  C18 UNL     1       5.963  14.121  -9.414  1.00  0.00     0.044 A 
HETATM   12  C19 UNL     1       6.965  14.980  -9.032  1.00  0.00     0.006 A 
HETATM   13  C20 UNL     1       7.876  14.929  -7.999  1.00  0.00     0.010 A 
HETATM   14  C21 UNL     1       8.138  14.047  -6.982  1.00  0.00    -0.041 A 
HETATM   15  C22 UNL     1       7.337  12.824  -6.828  1.00  0.00     0.050 C 
ENDROOT
BRANCH   1  16
HETATM   16  C4  UNL     1       9.406  13.255  -4.985  1.00  0.00     0.311 C 
BRANCH  16  17
HETATM   17  N1  UNL     1      10.054  12.052  -5.460  1.00  0.00     0.087 N 
HETATM   18  C3  UNL     1      11.471  12.174  -5.064  1.00  0.00     0.310 C 
BRANCH  17  19
HETATM   19  C2  UNL     1       9.556  10.901  -4.705  1.00  0.00     0.268 C 
HETATM   20  C1  UNL     1       8.499  11.280  -3.710  1.00  0.00     0.037 C 
ENDBRANCH  17  19
ENDBRANCH  16  17
ENDBRANCH   1  16
BRANCH   3  21
HETATM   21  C8  UNL     1      10.509  17.527  -7.290  1.00  0.00     0.071 C 
BRANCH  21  22
HETATM   22  C9  UNL     1      10.355  18.445  -6.112  1.00  0.00     0.276 C 
BRANCH  22  23
HETATM   23  N2  UNL     1      11.703  18.887  -5.725  1.00  0.00     0.080 N 
HETATM   24  C10 UNL     1      11.649  19.841  -4.655  1.00  0.00     0.309 C 
HETATM   25  C11 UNL     1      12.374  19.399  -6.899  1.00  0.00     0.309 C 
ENDBRANCH  22  23
ENDBRANCH  21  22
ENDBRANCH   3  21
BRANCH  10  26
HETATM   26  N4  UNL     1       4.117  13.447 -10.871  1.00  0.00    -0.311 N 
HETATM   27  C17 UNL     1       2.782  13.436 -10.514  1.00  0.00     0.333 C 
HETATM   28  N5  UNL     1       1.935  12.390 -10.981  1.00  0.00    -0.040 NA
HETATM   29  O1  UNL     1       2.240  14.286  -9.799  1.00  0.00    -0.251 OA
ATOM     30  H4  UNL     1       4.415  12.676 -11.468  1.00  0.00     0.170 HD
ENDBRANCH  10  26
TORSDOF 7
ENDMDL
MODEL 2
REMARK VINA RESULT: -7.976880530      2.255      5.147
REMARK  7 active torsions:
REMARK  status: ('A' for Active; 'I' for Inactive)
REMARK    1  A    between atoms: C2_2  and  N1_3 
REMARK    2  A    between atoms: N1_3  and  C4_5 
REMARK    3  A    between atoms: C4_5  and  C5_6 
REMARK    4  A    between atoms: C7_8  and  C8_9 
REMARK    5  A    between atoms: C8_9  and  C9_10 
REMARK    6  A    between atoms: C9_10  and  N2_11 
REMARK    7  A    between atoms: C16_20  and  N4_21 
REMARK       I    between atoms: N4_21  and  C17_23 
ROOT
HETATM    1  C5  UNL     1       9.003  16.826  -7.563  1.00  0.00    -0.023 A 
HETATM    2  C6  UNL     1       9.195  15.653  -6.892  1.00  0.00     0.019 A 
HETATM    3  C7  UNL     1       8.316  14.594  -6.961  1.00  0.00    -0.028 A 
HETATM    4  C12 UNL     1       7.193  14.731  -7.744  1.00  0.00     0.051 A 
HETATM    5  N3  UNL     1       6.167  13.893  -8.009  1.00  0.00    -0.354 N 
ATOM      6  H3  UNL     1       6.082  12.952  -7.624  1.00  0.00     0.166 HD
HETATM    7  C13 UNL     1       5.272  14.451  -8.841  1.00  0.00     0.044 A 
HETATM    8  C14 UNL     1       4.079  14.001  -9.392  1.00  0.00     0.033 A 
HETATM    9  C15 UNL     1       3.379  14.871 -10.245  1.00  0.00     0.032 A 
HETATM   10  C16 UNL     1       3.819  16.130 -10.551  1.00  0.00     0.036 A 
HETATM   11  C18 UNL     1       5.034  16.534  -9.964  1.00  0.00     0.044 A 
HETATM   12  C19 UNL     1       5.748  15.713  -9.126  1.00  0.00     0.006 A 
HETATM   13  C20 UNL     1       6.936  15.896  -8.452  1.00  0.00     0.010 A 
HETATM   14  C21 UNL     1       7.843  16.919  -8.349  1.00  0.00    -0.041 A 
HETATM   15  C22 UNL     1       7.636  18.178  -9.078  1.00  0.00     0.050 C 
ENDROOT
BRANCH   1  16
HETATM   16  C4  UNL     1       9.929  17.974  -7.478  1.00  0.00     0.311 C 
BRANCH  16  17
HETATM   17  N1  UNL     1       9.944  18.616  -6.181  1.00  0.00     0.087 N 
HETATM   18  C3  UNL     1      11.355  18.962  -5.919  1.00  0.00     0.310 C 
BRANCH  17  19
HETATM   19  C2  UNL     1       9.256  19.905  -6.268  1.00  0.00     0.268 C 
HETATM   20  C1  UNL     1       7.813  19.813  -5.869  1.00  0.00     0.037 C 
ENDBRANCH  17  19
ENDBRANCH  16  17
ENDBRANCH   1  16
BRANCH   3  21
HETATM   21  C8  UNL     1       8.579  13.353  -6.212  1.00  0.00     0.071 C 
BRANCH  21  22
HETATM   22  C9  UNL     1       9.727  13.478  -5.253  1.00  0.00     0.276 C 
BRANCH  22  23
HETATM   23  N2  UNL     1       9.559  12.431  -4.233  1.00  0.00     0.080 N 
HETATM   24  C10 UNL     1      10.662  11.514  -4.245  1.00  0.00     0.309 C 
HETATM   25  C11 UNL     1       8.286  11.780  -4.446  1.00  0.00     0.309 C 
ENDBRANCH  22  23
ENDBRANCH  21  22
ENDBRANCH   3  21
BRANCH  10  26
HETATM   26  N4  UNL     1       3.125  17.032 -11.411  1.00  0.00    -0.311 N 
HETATM   27  C17 UNL     1       2.201  18.011 -11.095  1.00  0.00     0.333 C 
HETATM   28  N5  UNL     1       1.629  18.803 -12.132  1.00  0.00    -0.040 NA
HETATM   29  O1  UNL     1       1.816  18.268  -9.950  1.00  0.00    -0.251 OA
ATOM     30  H4  UNL     1       3.341  16.941 -12.403  1.00  0.00     0.170 HD
ENDBRANCH  10  26
TORSDOF 7
ENDMDL
MODEL 3
REMARK VINA RESULT: -7.962690377      2.079      5.044
REMARK  7 active torsions:
REMARK  status: ('A' for Active; 'I' for Inactive)
REMARK    1  A    between atoms: C2_2  and  N1_3 
REMARK    2  A    between atoms: N1_3  and  C4_5 
REMARK    3  A    between atoms: C4_5  and  C5_6 
REMARK    4  A    between atoms: C7_8  and  C8_9 
REMARK    5  A    between atoms: C8_9  and  C9_10 
REMARK    6  A    between atoms: C9_10  and  N2_11 
REMARK    7  A    between atoms: C16_20  and  N4_21 
REMARK       I    between atoms: N4_21  and  C17_23 
ROOT
HETATM    1  C5  UNL     1       9.003  16.891  -6.892  1.00  0.00    -0.023 A 
HETATM    2  C6  UNL     1       9.243  15.656  -6.363  1.00  0.00     0.019 A 
HETATM    3  C7  UNL     1       8.496  14.542  -6.682  1.00  0.00    -0.028 A 
HETATM    4  C12 UNL     1       7.462  14.689  -7.577  1.00  0.00     0.051 A 
HETATM    5  N3  UNL     1       6.568  13.808  -8.079  1.00  0.00    -0.354 N 
ATOM      6  H3  UNL     1       6.542  12.818  -7.837  1.00  0.00     0.166 HD
HETATM    7  C13 UNL     1       5.719  14.396  -8.937  1.00  0.00     0.044 A 
HETATM    8  C14 UNL     1       4.651  13.925  -9.691  1.00  0.00     0.033 A 
HETATM    9  C15 UNL     1       3.963  14.842 -10.503  1.00  0.00     0.032 A 
HETATM   10  C16 UNL     1       4.297  16.166 -10.581  1.00  0.00     0.036 A 
HETATM   11  C18 UNL     1       5.386  16.590  -9.795  1.00  0.00     0.044 A 
HETATM   12  C19 UNL     1       6.085  15.724  -8.990  1.00  0.00     0.006 A 
HETATM   13  C20 UNL     1       7.162  15.915  -8.152  1.00  0.00     0.010 A 
HETATM   14  C21 UNL     1       7.937  16.991  -7.799  1.00  0.00    -0.041 A 
HETATM   15  C22 UNL     1       7.679  18.318  -8.376  1.00  0.00     0.050 C 
ENDROOT
BRANCH   1  16
HETATM   16  C4  UNL     1       9.784  18.094  -6.538  1.00  0.00     0.311 C 
BRANCH  16  17
HETATM   17  N1  UNL     1      11.205  17.957  -6.772  1.00  0.00     0.087 N 
HETATM   18  C3  UNL     1      11.376  17.980  -8.239  1.00  0.00     0.310 C 
BRANCH  17  19
HETATM   19  C2  UNL     1      11.894  19.158  -6.299  1.00  0.00     0.268 C 
HETATM   20  C1  UNL     1      11.520  19.518  -4.892  1.00  0.00     0.037 C 
ENDBRANCH  17  19
ENDBRANCH  16  17
ENDBRANCH   1  16
BRANCH   3  21
HETATM   21  C8  UNL     1       8.805  13.235  -6.078  1.00  0.00     0.071 C 
BRANCH  21  22
HETATM   22  C9  UNL     1       9.929  13.298  -5.084  1.00  0.00     0.276 C 
BRANCH  22  23
HETATM   23  N2  UNL     1       9.603  12.362  -3.997  1.00  0.00     0.080 N 
HETATM   24  C10 UNL     1      10.657  11.409  -3.800  1.00  0.00     0.309 C 
HETATM   25  C11 UNL     1       8.332  11.740  -4.291  1.00  0.00     0.309 C 
ENDBRANCH  22  23
ENDBRANCH  21  22
ENDBRANCH   3  21
BRANCH  10  26
HETATM   26  N4  UNL     1       3.611  17.116 -11.396  1.00  0.00    -0.311 N 
HETATM   27  C17 UNL     1       2.544  17.935 -11.079  1.00  0.00     0.333 C 
HETATM   28  N5  UNL     1       2.014  18.817 -12.065  1.00  0.00    -0.040 NA
HETATM   29  O1  UNL     1       1.989  17.970  -9.976  1.00  0.00    -0.251 OA
ATOM     30  H4  UNL     1       3.960  17.203 -12.350  1.00  0.00     0.170 HD
ENDBRANCH  10  26
TORSDOF 7
ENDMDL
MODEL 4
REMARK VINA RESULT: -7.600528937      1.525      1.796
REMARK  7 active torsions:
REMARK  status: ('A' for Active; 'I' for Inactive)
REMARK    1  A    between atoms: C2_2  and  N1_3 
REMARK    2  A    between atoms: N1_3  and  C4_5 
REMARK    3  A    between atoms: C4_5  and  C5_6 
REMARK    4  A    between atoms: C7_8  and  C8_9 
REMARK    5  A    between atoms: C8_9  and  C9_10 
REMARK    6  A    between atoms: C9_10  and  N2_11 
REMARK    7  A    between atoms: C16_20  and  N4_21 
REMARK       I    between atoms: N4_21  and  C17_23 
ROOT
HETATM    1  C5  UNL     1       9.120  14.313  -6.033  1.00  0.00    -0.023 A 
HETATM    2  C6  UNL     1       9.806  15.489  -6.123  1.00  0.00     0.019 A 
HETATM    3  C7  UNL     1       9.576  16.422  -7.111  1.00  0.00    -0.028 A 
HETATM    4  C12 UNL     1       8.607  16.149  -8.048  1.00  0.00     0.051 A 
HETATM    5  N3  UNL     1       8.158  16.847  -9.115  1.00  0.00    -0.354 N 
ATOM      6  H3  UNL     1       8.515  17.761  -9.393  1.00  0.00     0.166 HD
HETATM    7  C13 UNL     1       7.184  16.189  -9.765  1.00  0.00     0.044 A 
HETATM    8  C14 UNL     1       6.426  16.484 -10.892  1.00  0.00     0.033 A 
HETATM    9  C15 UNL     1       5.469  15.543 -11.306  1.00  0.00     0.032 A 
HETATM   10  C16 UNL     1       5.254  14.361 -10.653  1.00  0.00     0.036 A 
HETATM   11  C18 UNL     1       6.051  14.112  -9.518  1.00  0.00     0.044 A 
HETATM   12  C19 UNL     1       6.996  15.007  -9.081  1.00  0.00     0.006 A 
HETATM   13  C20 UNL     1       7.872  14.973  -8.017  1.00  0.00     0.010 A 
HETATM   14  C21 UNL     1       8.141  14.079  -7.012  1.00  0.00    -0.041 A 
HETATM   15  C22 UNL     1       7.395  12.817  -6.916  1.00  0.00     0.050 C 
ENDROOT
BRANCH   1  16
HETATM   16  C4  UNL     1       9.376  13.298  -4.991  1.00  0.00     0.311 C 
BRANCH  16  17
HETATM   17  N1  UNL     1      10.043  12.112  -5.483  1.00  0.00     0.087 N 
HETATM   18  C3  UNL     1      11.466  12.273  -5.127  1.00  0.00     0.310 C 
BRANCH  17  19
HETATM   19  C2  UNL     1       9.597  10.948  -4.716  1.00  0.00     0.268 C 
HETATM   20  C1  UNL     1       8.429  11.260  -3.828  1.00  0.00     0.037 C 
ENDBRANCH  17  19
ENDBRANCH  16  17
ENDBRANCH   1  16
BRANCH   3  21
HETATM   21  C8  UNL     1      10.351  17.674  -7.154  1.00  0.00     0.071 C 
BRANCH  21  22
HETATM   22  C9  UNL     1      11.713  17.501  -7.760  1.00  0.00     0.276 C 
BRANCH  22  23
HETATM   23  N2  UNL     1      11.621  17.918  -9.167  1.00  0.00     0.080 N 
HETATM   24  C10 UNL     1      12.907  17.895  -9.801  1.00  0.00     0.309 C 
HETATM   25  C11 UNL     1      10.992  19.218  -9.222  1.00  0.00     0.309 C 
ENDBRANCH  22  23
ENDBRANCH  21  22
ENDBRANCH   3  21
BRANCH  10  26
HETATM   26  N4  UNL     1       4.290  13.389 -11.056  1.00  0.00    -0.311 N 
HETATM   27  C17 UNL     1       4.347  12.474 -12.091  1.00  0.00     0.333 C 
HETATM   28  N5  UNL     1       3.252  11.590 -12.311  1.00  0.00    -0.040 NA
HETATM   29  O1  UNL     1       5.298  12.353 -12.869  1.00  0.00    -0.251 OA
ATOM     30  H4  UNL     1       3.436  13.366 -10.500  1.00  0.00     0.170 HD
ENDBRANCH  10  26
TORSDOF 7
ENDMDL
MODEL 5
REMARK VINA RESULT: -7.588714055      2.315      5.261
REMARK  7 active torsions:
REMARK  status: ('A' for Active; 'I' for Inactive)
REMARK    1  A    between atoms: C2_2  and  N1_3 
REMARK    2  A    between atoms: N1_3  and  C4_5 
REMARK    3  A    between atoms: C4_5  and  C5_6 
REMARK    4  A    between atoms: C7_8  and  C8_9 
REMARK    5  A    between atoms: C8_9  and  C9_10 
REMARK    6  A    between atoms: C9_10  and  N2_11 
REMARK    7  A    between atoms: C16_20  and  N4_21 
REMARK       I    between atoms: N4_21  and  C17_23 
ROOT
HETATM    1  C5  UNL     1       9.551  16.642  -7.365  1.00  0.00    -0.023 A 
HETATM    2  C6  UNL     1       9.477  15.534  -6.572  1.00  0.00     0.019 A 
HETATM    3  C7  UNL     1       8.643  14.470  -6.840  1.00  0.00    -0.028 A 
HETATM    4  C12 UNL     1       7.849  14.534  -7.962  1.00  0.00     0.051 A 
HETATM    5  N3  UNL     1       6.948  13.672  -8.482  1.00  0.00    -0.354 N 
ATOM      6  H3  UNL     1       6.714  12.769  -8.070  1.00  0.00     0.166 HD
HETATM    7  C13 UNL     1       6.396  14.151  -9.610  1.00  0.00     0.044 A 
HETATM    8  C14 UNL     1       5.443  13.650 -10.488  1.00  0.00     0.033 A 
HETATM    9  C15 UNL     1       5.091  14.438 -11.596  1.00  0.00     0.032 A 
HETATM   10  C16 UNL     1       5.640  15.666 -11.842  1.00  0.00     0.036 A 
HETATM   11  C18 UNL     1       6.601  16.125 -10.920  1.00  0.00     0.044 A 
HETATM   12  C19 UNL     1       6.973  15.384  -9.825  1.00  0.00     0.006 A 
HETATM   13  C20 UNL     1       7.873  15.630  -8.811  1.00  0.00     0.010 A 
HETATM   14  C21 UNL     1       8.722  16.661  -8.498  1.00  0.00    -0.041 A 
HETATM   15  C22 UNL     1       8.802  17.850  -9.358  1.00  0.00     0.050 C 
ENDROOT
BRANCH   1  16
HETATM   16  C4  UNL     1      10.425  17.796  -7.073  1.00  0.00     0.311 C 
BRANCH  16  17
HETATM   17  N1  UNL     1      10.028  18.547  -5.902  1.00  0.00     0.087 N 
HETATM   18  C3  UNL     1      11.273  19.110  -5.343  1.00  0.00     0.310 C 
BRANCH  17  19
HETATM   19  C2  UNL     1       9.246  19.714  -6.314  1.00  0.00     0.268 C 
HETATM   20  C1  UNL     1       7.791  19.578  -5.978  1.00  0.00     0.037 C 
ENDBRANCH  17  19
ENDBRANCH  16  17
ENDBRANCH   1  16
BRANCH   3  21
HETATM   21  C8  UNL     1       8.609  13.301  -5.944  1.00  0.00     0.071 C 
BRANCH  21  22
HETATM   22  C9  UNL     1       9.866  13.142  -5.139  1.00  0.00     0.276 C 
BRANCH  22  23
HETATM   23  N2  UNL     1       9.528  12.333  -3.958  1.00  0.00     0.080 N 
HETATM   24  C10 UNL     1      10.593  11.433  -3.622  1.00  0.00     0.309 C 
HETATM   25  C11 UNL     1       8.278  11.651  -4.209  1.00  0.00     0.309 C 
ENDBRANCH  22  23
ENDBRANCH  21  22
ENDBRANCH   3  21
BRANCH  10  26
HETATM   26  N4  UNL     1       5.296  16.486 -12.958  1.00  0.00    -0.311 N 
HETATM   27  C17 UNL     1       5.771  16.447 -14.256  1.00  0.00     0.333 C 
HETATM   28  N5  UNL     1       5.278  17.377 -15.216  1.00  0.00    -0.040 NA
HETATM   29  O1  UNL     1       6.616  15.647 -14.670  1.00  0.00    -0.251 OA
ATOM     30  H4  UNL     1       4.599  17.206 -12.771  1.00  0.00     0.170 HD
ENDBRANCH  10  26
TORSDOF 7
ENDMDL
