MODEL 1
REMARK VINA RESULT: -7.517144612      0.000      0.000
REMARK  13 active torsions:
REMARK  status: ('A' for Active; 'I' for Inactive)
REMARK    1  A    between atoms: C2_2  and  O2_4 
REMARK    2  A    between atoms: O2_4  and  C3_5 
REMARK    3  A    between atoms: C4_6  and  O3_7 
REMARK    4  A    between atoms: C7_11  and  O4_12 
REMARK    5  A    between atoms: O4_12  and  C8_13 
REMARK    6  A    between atoms: C12_18  and  O6_19 
REMARK    7  A    between atoms: O6_19  and  C13_20 
REMARK    8  A    between atoms: C13_20  and  C14_22 
REMARK    9  A    between atoms: C14_22  and  C15_23 
REMARK   10  A    between atoms: C15_23  and  C16_24 
REMARK   11  A    between atoms: C18_29  and  C19_30 
REMARK   12  A    between atoms: C19_30  and  N1_31 
REMARK   13  A    between atoms: C22_34  and  O11_35 
ROOT
HETATM    1  C3  UNL     1      13.561 -13.200  19.509  1.00  0.00     0.201 C 
HETATM    2  C4  UNL     1      12.958 -14.549  19.354  1.00  0.00     0.157 C 
HETATM    3  C5  UNL     1      13.520 -15.532  20.334  1.00  0.00     0.052 C 
HETATM    4  C6  UNL     1      12.992 -15.083  21.687  1.00  0.00     0.016 C 
HETATM    5  C7  UNL     1      15.027 -15.669  20.309  1.00  0.00     0.118 C 
HETATM    6  C10 UNL     1      15.423 -15.834  21.801  1.00  0.00     0.040 A 
HETATM    7  C11 UNL     1      16.471 -14.895  22.111  1.00  0.00     0.034 A 
HETATM    8  C12 UNL     1      16.810 -14.115  20.875  1.00  0.00     0.178 C 
HETATM    9  C17 UNL     1      15.744 -14.473  19.860  1.00  0.00     0.157 A 
HETATM   10  O10 UNL     1      16.269 -14.626  18.553  1.00  0.00    -0.361 OA
HETATM   11  C18 UNL     1      15.604 -13.516  18.037  1.00  0.00     0.191 A 
HETATM   12  C22 UNL     1      15.037 -13.289  19.401  1.00  0.00     0.151 A 
HETATM   13  C23 UNL     1      16.775 -16.324  22.177  1.00  0.00    -0.034 A 
HETATM   14  C24 UNL     1      17.704 -17.059  21.313  1.00  0.00     0.016 C 
HETATM   15  C25 UNL     1      16.907 -16.846  23.630  1.00  0.00     0.016 C 
ENDROOT
BRANCH   8  16
HETATM   16  O6  UNL     1      18.120 -14.322  20.422  1.00  0.00    -0.312 OA
BRANCH  16  17
HETATM   17  C13 UNL     1      19.122 -13.366  20.376  1.00  0.00     0.259 C 
HETATM   18  O7  UNL     1      18.792 -12.174  20.165  1.00  0.00    -0.265 OA
BRANCH  17  19
HETATM   19  C14 UNL     1      20.545 -13.686  20.562  1.00  0.00     0.121 C 
BRANCH  19  20
HETATM   20  C15 UNL     1      20.712 -14.875  21.463  1.00  0.00     0.123 C 
BRANCH  20  21
HETATM   21  C16 UNL     1      20.997 -14.465  22.863  1.00  0.00     0.172 C 
HETATM   22  O8  UNL     1      22.176 -14.477  23.300  1.00  0.00    -0.648 OA
HETATM   23  O9  UNL     1      19.988 -14.062  23.725  1.00  0.00    -0.648 OA
ENDBRANCH  20  21
ENDBRANCH  19  20
ENDBRANCH  17  19
ENDBRANCH  16  17
ENDBRANCH   8  16
BRANCH   5  24
HETATM   24  O4  UNL     1      15.502 -16.866  19.824  1.00  0.00    -0.306 OA
BRANCH  24  25
HETATM   25  C8  UNL     1      15.027 -17.817  19.020  1.00  0.00     0.255 C 
HETATM   26  C9  UNL     1      14.824 -17.738  17.555  1.00  0.00     0.126 C 
HETATM   27  O5  UNL     1      14.722 -18.890  19.569  1.00  0.00    -0.266 OA
ENDBRANCH  24  25
ENDBRANCH   5  24
BRANCH  12  28
HETATM   28  O11 UNL     1      15.573 -12.068  19.887  1.00  0.00    -0.381 OA
ATOM     29  H11 UNL     1      16.222 -12.284  20.548  1.00  0.00     0.211 HD
ENDBRANCH  12  28
BRANCH  11  30
HETATM   30  C19 UNL     1      16.510 -12.440  17.503  1.00  0.00     0.306 C 
BRANCH  30  31
HETATM   31  N1  UNL     1      16.190 -12.162  16.109  1.00  0.00     0.082 N 
HETATM   32  C20 UNL     1      16.626 -13.214  15.235  1.00  0.00     0.309 C 
HETATM   33  C21 UNL     1      14.763 -11.992  15.920  1.00  0.00     0.309 C 
ENDBRANCH  30  31
ENDBRANCH  11  30
BRANCH   1  34
HETATM   34  O2  UNL     1      13.150 -12.477  20.637  1.00  0.00    -0.310 OA
BRANCH  34  35
HETATM   35  C2  UNL     1      12.653 -11.182  20.591  1.00  0.00     0.255 C 
HETATM   36  C1  UNL     1      11.697 -10.649  21.588  1.00  0.00     0.126 C 
HETATM   37  O1  UNL     1      13.030 -10.419  19.661  1.00  0.00    -0.266 OA
ENDBRANCH  34  35
ENDBRANCH   1  34
BRANCH   2  38
HETATM   38  O3  UNL     1      11.579 -14.435  19.669  1.00  0.00    -0.392 OA
ATOM     39  H3  UNL     1      11.258 -15.310  19.853  1.00  0.00     0.210 HD
ENDBRANCH   2  38
TORSDOF 13
ENDMDL
MODEL 2
REMARK VINA RESULT: -6.799275948      2.526      4.704
REMARK  13 active torsions:
REMARK  status: ('A' for Active; 'I' for Inactive)
REMARK    1  A    between atoms: C2_2  and  O2_4 
REMARK    2  A    between atoms: O2_4  and  C3_5 
REMARK    3  A    between atoms: C4_6  and  O3_7 
REMARK    4  A    between atoms: C7_11  and  O4_12 
REMARK    5  A    between atoms: O4_12  and  C8_13 
REMARK    6  A    between atoms: C12_18  and  O6_19 
REMARK    7  A    between atoms: O6_19  and  C13_20 
REMARK    8  A    between atoms: C13_20  and  C14_22 
REMARK    9  A    between atoms: C14_22  and  C15_23 
REMARK   10  A    between atoms: C15_23  and  C16_24 
REMARK   11  A    between atoms: C18_29  and  C19_30 
REMARK   12  A    between atoms: C19_30  and  N1_31 
REMARK   13  A    between atoms: C22_34  and  O11_35 
ROOT
HETATM    1  C3  UNL     1      14.913 -12.843  20.627  1.00  0.00     0.201 C 
HETATM    2  C4  UNL     1      14.539 -13.114  19.215  1.00  0.00     0.157 C 
HETATM    3  C5  UNL     1      13.735 -14.368  19.076  1.00  0.00     0.052 C 
HETATM    4  C6  UNL     1      12.396 -14.050  19.722  1.00  0.00     0.016 C 
HETATM    5  C7  UNL     1      14.383 -15.610  19.652  1.00  0.00     0.118 C 
HETATM    6  C10 UNL     1      13.207 -16.397  20.289  1.00  0.00     0.040 A 
HETATM    7  C11 UNL     1      13.560 -16.748  21.641  1.00  0.00     0.034 A 
HETATM    8  C12 UNL     1      14.942 -16.242  21.933  1.00  0.00     0.178 C 
HETATM    9  C17 UNL     1      15.310 -15.360  20.758  1.00  0.00     0.157 A 
HETATM   10  O10 UNL     1      16.663 -15.517  20.364  1.00  0.00    -0.361 OA
HETATM   11  C18 UNL     1      17.037 -14.228  20.738  1.00  0.00     0.191 A 
HETATM   12  C22 UNL     1      15.630 -14.011  21.194  1.00  0.00     0.151 A 
HETATM   13  C23 UNL     1      13.368 -17.825  20.671  1.00  0.00    -0.034 A 
HETATM   14  C24 UNL     1      14.396 -18.745  20.175  1.00  0.00     0.016 C 
HETATM   15  C25 UNL     1      12.046 -18.603  20.887  1.00  0.00     0.016 C 
ENDROOT
BRANCH   8  16
HETATM   16  O6  UNL     1      15.870 -17.260  22.194  1.00  0.00    -0.312 OA
BRANCH  16  17
HETATM   17  C13 UNL     1      16.446 -17.534  23.424  1.00  0.00     0.259 C 
HETATM   18  O7  UNL     1      17.523 -16.960  23.713  1.00  0.00    -0.265 OA
BRANCH  17  19
HETATM   19  C14 UNL     1      15.852 -18.463  24.397  1.00  0.00     0.121 C 
BRANCH  19  20
HETATM   20  C15 UNL     1      15.259 -19.655  23.707  1.00  0.00     0.123 C 
BRANCH  20  21
HETATM   21  C16 UNL     1      14.009 -20.109  24.374  1.00  0.00     0.172 C 
HETATM   22  O8  UNL     1      12.921 -20.116  23.743  1.00  0.00    -0.648 OA
HETATM   23  O9  UNL     1      14.000 -20.533  25.694  1.00  0.00    -0.648 OA
ENDBRANCH  20  21
ENDBRANCH  19  20
ENDBRANCH  17  19
ENDBRANCH  16  17
ENDBRANCH   8  16
BRANCH   5  24
HETATM   24  O4  UNL     1      14.794 -16.543  18.728  1.00  0.00    -0.306 OA
BRANCH  24  25
HETATM   25  C8  UNL     1      14.823 -16.607  17.397  1.00  0.00     0.255 C 
HETATM   26  C9  UNL     1      15.714 -15.860  16.480  1.00  0.00     0.126 C 
HETATM   27  O5  UNL     1      14.008 -17.385  16.873  1.00  0.00    -0.266 OA
ENDBRANCH  24  25
ENDBRANCH   5  24
BRANCH  12  28
HETATM   28  O11 UNL     1      15.659 -13.848  22.604  1.00  0.00    -0.381 OA
ATOM     29  H11 UNL     1      16.521 -13.519  22.834  1.00  0.00     0.211 HD
ENDBRANCH  12  28
BRANCH  11  30
HETATM   30  C19 UNL     1      18.099 -14.172  21.803  1.00  0.00     0.306 C 
BRANCH  30  31
HETATM   31  N1  UNL     1      19.339 -13.650  21.245  1.00  0.00     0.082 N 
HETATM   32  C20 UNL     1      20.332 -14.674  21.082  1.00  0.00     0.309 C 
HETATM   33  C21 UNL     1      19.118 -13.037  19.950  1.00  0.00     0.309 C 
ENDBRANCH  30  31
ENDBRANCH  11  30
BRANCH   1  34
HETATM   34  O2  UNL     1      13.874 -12.399  21.456  1.00  0.00    -0.310 OA
BRANCH  34  35
HETATM   35  C2  UNL     1      13.596 -11.062  21.704  1.00  0.00     0.255 C 
HETATM   36  C1  UNL     1      12.684 -10.615  22.782  1.00  0.00     0.126 C 
HETATM   37  O1  UNL     1      14.142 -10.184  20.984  1.00  0.00    -0.266 OA
ENDBRANCH  34  35
ENDBRANCH   1  34
BRANCH   2  38
HETATM   38  O3  UNL     1      13.687 -12.060  18.793  1.00  0.00    -0.392 OA
ATOM     39  H3  UNL     1      13.521 -12.184  17.866  1.00  0.00     0.210 HD
ENDBRANCH   2  38
TORSDOF 13
ENDMDL
MODEL 3
REMARK VINA RESULT: -6.750973520      2.603      6.456
REMARK  13 active torsions:
REMARK  status: ('A' for Active; 'I' for Inactive)
REMARK    1  A    between atoms: C2_2  and  O2_4 
REMARK    2  A    between atoms: O2_4  and  C3_5 
REMARK    3  A    between atoms: C4_6  and  O3_7 
REMARK    4  A    between atoms: C7_11  and  O4_12 
REMARK    5  A    between atoms: O4_12  and  C8_13 
REMARK    6  A    between atoms: C12_18  and  O6_19 
REMARK    7  A    between atoms: O6_19  and  C13_20 
REMARK    8  A    between atoms: C13_20  and  C14_22 
REMARK    9  A    between atoms: C14_22  and  C15_23 
REMARK   10  A    between atoms: C15_23  and  C16_24 
REMARK   11  A    between atoms: C18_29  and  C19_30 
REMARK   12  A    between atoms: C19_30  and  N1_31 
REMARK   13  A    between atoms: C22_34  and  O11_35 
ROOT
HETATM    1  C3  UNL     1      14.249 -12.765  19.399  1.00  0.00     0.201 C 
HETATM    2  C4  UNL     1      15.618 -12.701  19.973  1.00  0.00     0.157 C 
HETATM    3  C5  UNL     1      16.303 -14.032  19.943  1.00  0.00     0.052 C 
HETATM    4  C6  UNL     1      16.569 -14.303  18.470  1.00  0.00     0.016 C 
HETATM    5  C7  UNL     1      15.547 -15.155  20.619  1.00  0.00     0.118 C 
HETATM    6  C10 UNL     1      15.803 -16.390  19.714  1.00  0.00     0.040 A 
HETATM    7  C11 UNL     1      14.540 -17.011  19.404  1.00  0.00     0.034 A 
HETATM    8  C12 UNL     1      13.440 -16.249  20.085  1.00  0.00     0.178 C 
HETATM    9  C17 UNL     1      14.090 -14.994  20.630  1.00  0.00     0.157 A 
HETATM   10  O10 UNL     1      13.604 -14.645  21.915  1.00  0.00    -0.361 OA
HETATM   11  C18 UNL     1      12.987 -13.473  21.484  1.00  0.00     0.191 A 
HETATM   12  C22 UNL     1      13.453 -13.800  20.102  1.00  0.00     0.151 A 
HETATM   13  C23 UNL     1      15.507 -17.763  20.202  1.00  0.00    -0.034 A 
HETATM   14  C24 UNL     1      15.353 -18.172  21.602  1.00  0.00     0.016 C 
HETATM   15  C25 UNL     1      16.185 -18.906  19.407  1.00  0.00     0.016 C 
ENDROOT
BRANCH   8  16
HETATM   16  O6  UNL     1      12.750 -16.998  21.048  1.00  0.00    -0.312 OA
BRANCH  16  17
HETATM   17  C13 UNL     1      11.696 -17.861  20.799  1.00  0.00     0.259 C 
HETATM   18  O7  UNL     1      11.587 -18.883  21.519  1.00  0.00    -0.265 OA
BRANCH  17  19
HETATM   19  C14 UNL     1      10.707 -17.633  19.736  1.00  0.00     0.121 C 
BRANCH  19  20
HETATM   20  C15 UNL     1      10.780 -18.711  18.695  1.00  0.00     0.123 C 
BRANCH  20  21
HETATM   21  C16 UNL     1      11.013 -18.149  17.339  1.00  0.00     0.172 C 
HETATM   22  O8  UNL     1      12.179 -18.081  16.872  1.00  0.00    -0.648 OA
HETATM   23  O9  UNL     1       9.969 -17.686  16.552  1.00  0.00    -0.648 OA
ENDBRANCH  20  21
ENDBRANCH  19  20
ENDBRANCH  17  19
ENDBRANCH  16  17
ENDBRANCH   8  16
BRANCH   5  24
HETATM   24  O4  UNL     1      16.104 -15.622  21.787  1.00  0.00    -0.306 OA
BRANCH  24  25
HETATM   25  C8  UNL     1      17.269 -15.453  22.413  1.00  0.00     0.255 C 
HETATM   26  C9  UNL     1      18.560 -16.108  22.102  1.00  0.00     0.126 C 
HETATM   27  O5  UNL     1      17.263 -14.654  23.365  1.00  0.00    -0.266 OA
ENDBRANCH  24  25
ENDBRANCH   5  24
BRANCH  12  28
HETATM   28  O11 UNL     1      12.300 -14.057  19.314  1.00  0.00    -0.381 OA
ATOM     29  H11 UNL     1      12.487 -13.759  18.431  1.00  0.00     0.211 HD
ENDBRANCH  12  28
BRANCH  11  30
HETATM   30  C19 UNL     1      11.498 -13.439  21.696  1.00  0.00     0.306 C 
BRANCH  30  31
HETATM   31  N1  UNL     1      11.101 -12.152  22.253  1.00  0.00     0.082 N 
HETATM   32  C20 UNL     1      11.294 -12.096  23.674  1.00  0.00     0.309 C 
HETATM   33  C21 UNL     1      11.855 -11.066  21.660  1.00  0.00     0.309 C 
ENDBRANCH  30  31
ENDBRANCH  11  30
BRANCH   1  34
HETATM   34  O2  UNL     1      14.179 -12.892  18.005  1.00  0.00    -0.310 OA
BRANCH  34  35
HETATM   35  C2  UNL     1      14.019 -11.823  17.135  1.00  0.00     0.255 C 
HETATM   36  C1  UNL     1      14.685 -11.751  15.814  1.00  0.00     0.126 C 
HETATM   37  O1  UNL     1      13.273 -10.867  17.478  1.00  0.00    -0.266 OA
ENDBRANCH  34  35
ENDBRANCH   1  34
BRANCH   2  38
HETATM   38  O3  UNL     1      16.387 -11.851  19.136  1.00  0.00    -0.392 OA
ATOM     39  H3  UNL     1      15.862 -11.081  18.955  1.00  0.00     0.210 HD
ENDBRANCH   2  38
TORSDOF 13
ENDMDL
MODEL 4
REMARK VINA RESULT: -6.746522083      2.312      6.690
REMARK  13 active torsions:
REMARK  status: ('A' for Active; 'I' for Inactive)
REMARK    1  A    between atoms: C2_2  and  O2_4 
REMARK    2  A    between atoms: O2_4  and  C3_5 
REMARK    3  A    between atoms: C4_6  and  O3_7 
REMARK    4  A    between atoms: C7_11  and  O4_12 
REMARK    5  A    between atoms: O4_12  and  C8_13 
REMARK    6  A    between atoms: C12_18  and  O6_19 
REMARK    7  A    between atoms: O6_19  and  C13_20 
REMARK    8  A    between atoms: C13_20  and  C14_22 
REMARK    9  A    between atoms: C14_22  and  C15_23 
REMARK   10  A    between atoms: C15_23  and  C16_24 
REMARK   11  A    between atoms: C18_29  and  C19_30 
REMARK   12  A    between atoms: C19_30  and  N1_31 
REMARK   13  A    between atoms: C22_34  and  O11_35 
ROOT
HETATM    1  C3  UNL     1      17.972 -15.036  21.486  1.00  0.00     0.201 C 
HETATM    2  C4  UNL     1      18.437 -14.235  20.324  1.00  0.00     0.157 C 
HETATM    3  C5  UNL     1      17.591 -13.020  20.103  1.00  0.00     0.052 C 
HETATM    4  C6  UNL     1      17.897 -12.109  21.281  1.00  0.00     0.016 C 
HETATM    5  C7  UNL     1      16.110 -13.293  19.942  1.00  0.00     0.118 C 
HETATM    6  C10 UNL     1      15.420 -12.119  20.687  1.00  0.00     0.040 A 
HETATM    7  C11 UNL     1      14.445 -12.657  21.601  1.00  0.00     0.034 A 
HETATM    8  C12 UNL     1      14.439 -14.154  21.485  1.00  0.00     0.178 C 
HETATM    9  C17 UNL     1      15.632 -14.501  20.620  1.00  0.00     0.157 A 
HETATM   10  O10 UNL     1      15.354 -15.549  19.707  1.00  0.00    -0.361 OA
HETATM   11  C18 UNL     1      16.227 -16.453  20.308  1.00  0.00     0.191 A 
HETATM   12  C22 UNL     1      16.544 -15.394  21.315  1.00  0.00     0.151 A 
HETATM   13  C23 UNL     1      13.974 -11.839  20.485  1.00  0.00    -0.034 A 
HETATM   14  C24 UNL     1      13.151 -12.290  19.358  1.00  0.00     0.016 C 
HETATM   15  C25 UNL     1      13.508 -10.429  20.926  1.00  0.00     0.016 C 
ENDROOT
BRANCH   8  16
HETATM   16  O6  UNL     1      13.225 -14.677  21.019  1.00  0.00    -0.312 OA
BRANCH  16  17
HETATM   17  C13 UNL     1      12.615 -15.835  21.471  1.00  0.00     0.259 C 
HETATM   18  O7  UNL     1      12.963 -16.289  22.588  1.00  0.00    -0.265 OA
BRANCH  17  19
HETATM   19  C14 UNL     1      11.584 -16.549  20.704  1.00  0.00     0.121 C 
BRANCH  19  20
HETATM   20  C15 UNL     1      11.826 -16.418  19.229  1.00  0.00     0.123 C 
BRANCH  20  21
HETATM   21  C16 UNL     1      12.614 -17.562  18.699  1.00  0.00     0.172 C 
HETATM   22  O8  UNL     1      13.388 -17.400  17.721  1.00  0.00    -0.648 OA
HETATM   23  O9  UNL     1      12.523 -18.829  19.255  1.00  0.00    -0.648 OA
ENDBRANCH  20  21
ENDBRANCH  19  20
ENDBRANCH  17  19
ENDBRANCH  16  17
ENDBRANCH   8  16
BRANCH   5  24
HETATM   24  O4  UNL     1      15.605 -13.077  18.681  1.00  0.00    -0.306 OA
BRANCH  24  25
HETATM   25  C8  UNL     1      16.131 -12.893  17.469  1.00  0.00     0.255 C 
HETATM   26  C9  UNL     1      16.367 -13.917  16.426  1.00  0.00     0.126 C 
HETATM   27  O5  UNL     1      16.456 -11.726  17.191  1.00  0.00    -0.266 OA
ENDBRANCH  24  25
ENDBRANCH   5  24
BRANCH  12  28
HETATM   28  O11 UNL     1      16.066 -15.847  22.573  1.00  0.00    -0.381 OA
ATOM     29  H11 UNL     1      15.135 -15.657  22.609  1.00  0.00     0.211 HD
ENDBRANCH  12  28
BRANCH  11  30
HETATM   30  C19 UNL     1      15.568 -17.699  20.834  1.00  0.00     0.306 C 
BRANCH  30  31
HETATM   31  N1  UNL     1      16.252 -18.880  20.325  1.00  0.00     0.082 N 
HETATM   32  C20 UNL     1      16.360 -18.866  18.893  1.00  0.00     0.309 C 
HETATM   33  C21 UNL     1      17.590 -18.989  20.869  1.00  0.00     0.309 C 
ENDBRANCH  30  31
ENDBRANCH  11  30
BRANCH   1  34
HETATM   34  O2  UNL     1      18.238 -14.486  22.748  1.00  0.00    -0.310 OA
BRANCH  34  35
HETATM   35  C2  UNL     1      19.024 -15.101  23.713  1.00  0.00     0.255 C 
HETATM   36  C1  UNL     1      20.055 -14.379  24.492  1.00  0.00     0.126 C 
HETATM   37  O1  UNL     1      18.857 -16.329  23.940  1.00  0.00    -0.266 OA
ENDBRANCH  34  35
ENDBRANCH   1  34
BRANCH   2  38
HETATM   38  O3  UNL     1      19.734 -13.751  20.636  1.00  0.00    -0.392 OA
ATOM     39  H3  UNL     1      20.269 -13.855  19.858  1.00  0.00     0.210 HD
ENDBRANCH   2  38
TORSDOF 13
ENDMDL
MODEL 5
REMARK VINA RESULT: -6.651450616      2.725      6.073
REMARK  13 active torsions:
REMARK  status: ('A' for Active; 'I' for Inactive)
REMARK    1  A    between atoms: C2_2  and  O2_4 
REMARK    2  A    between atoms: O2_4  and  C3_5 
REMARK    3  A    between atoms: C4_6  and  O3_7 
REMARK    4  A    between atoms: C7_11  and  O4_12 
REMARK    5  A    between atoms: O4_12  and  C8_13 
REMARK    6  A    between atoms: C12_18  and  O6_19 
REMARK    7  A    between atoms: O6_19  and  C13_20 
REMARK    8  A    between atoms: C13_20  and  C14_22 
REMARK    9  A    between atoms: C14_22  and  C15_23 
REMARK   10  A    between atoms: C15_23  and  C16_24 
REMARK   11  A    between atoms: C18_29  and  C19_30 
REMARK   12  A    between atoms: C19_30  and  N1_31 
REMARK   13  A    between atoms: C22_34  and  O11_35 
ROOT
HETATM    1  C3  UNL     1      14.470 -12.770  19.518  1.00  0.00     0.201 C 
HETATM    2  C4  UNL     1      15.776 -12.594  20.204  1.00  0.00     0.157 C 
HETATM    3  C5  UNL     1      16.539 -13.878  20.299  1.00  0.00     0.052 C 
HETATM    4  C6  UNL     1      16.952 -14.196  18.870  1.00  0.00     0.016 C 
HETATM    5  C7  UNL     1      15.793 -15.018  20.960  1.00  0.00     0.118 C 
HETATM    6  C10 UNL     1      16.203 -16.272  20.142  1.00  0.00     0.040 A 
HETATM    7  C11 UNL     1      15.012 -16.984  19.754  1.00  0.00     0.034 A 
HETATM    8  C12 UNL     1      13.812 -16.265  20.299  1.00  0.00     0.178 C 
HETATM    9  C17 UNL     1      14.335 -14.949  20.837  1.00  0.00     0.157 A 
HETATM   10  O10 UNL     1      13.715 -14.577  22.056  1.00  0.00    -0.361 OA
HETATM   11  C18 UNL     1      13.071 -13.466  21.517  1.00  0.00     0.191 A 
HETATM   12  C22 UNL     1      13.678 -13.822  20.198  1.00  0.00     0.151 A 
HETATM   13  C23 UNL     1      15.946 -17.638  20.669  1.00  0.00    -0.034 A 
HETATM   14  C24 UNL     1      15.691 -17.995  22.068  1.00  0.00     0.016 C 
HETATM   15  C25 UNL     1      16.760 -18.769  19.992  1.00  0.00     0.016 C 
ENDROOT
BRANCH   8  16
HETATM   16  O6  UNL     1      13.084 -17.014  21.233  1.00  0.00    -0.312 OA
BRANCH  16  17
HETATM   17  C13 UNL     1      11.864 -17.627  21.005  1.00  0.00     0.259 C 
HETATM   18  O7  UNL     1      10.877 -16.900  20.737  1.00  0.00    -0.265 OA
BRANCH  17  19
HETATM   19  C14 UNL     1      11.676 -19.085  21.063  1.00  0.00     0.121 C 
BRANCH  19  20
HETATM   20  C15 UNL     1      12.929 -19.768  21.526  1.00  0.00     0.123 C 
BRANCH  20  21
HETATM   21  C16 UNL     1      12.721 -20.478  22.816  1.00  0.00     0.172 C 
HETATM   22  O8  UNL     1      12.063 -21.549  22.850  1.00  0.00    -0.648 OA
HETATM   23  O9  UNL     1      13.236 -19.992  24.007  1.00  0.00    -0.648 OA
ENDBRANCH  20  21
ENDBRANCH  19  20
ENDBRANCH  17  19
ENDBRANCH  16  17
ENDBRANCH   8  16
BRANCH   5  24
HETATM   24  O4  UNL     1      16.270 -15.398  22.194  1.00  0.00    -0.306 OA
BRANCH  24  25
HETATM   25  C8  UNL     1      17.352 -15.112  22.919  1.00  0.00     0.255 C 
HETATM   26  C9  UNL     1      18.766 -15.381  22.569  1.00  0.00     0.126 C 
HETATM   27  O5  UNL     1      17.143 -14.558  24.011  1.00  0.00    -0.266 OA
ENDBRANCH  24  25
ENDBRANCH   5  24
BRANCH  12  28
HETATM   28  O11 UNL     1      12.618 -14.186  19.326  1.00  0.00    -0.381 OA
ATOM     29  H11 UNL     1      11.847 -14.337  19.863  1.00  0.00     0.211 HD
ENDBRANCH  12  28
BRANCH  11  30
HETATM   30  C19 UNL     1      11.569 -13.517  21.597  1.00  0.00     0.306 C 
BRANCH  30  31
HETATM   31  N1  UNL     1      11.053 -12.266  22.136  1.00  0.00     0.082 N 
HETATM   32  C20 UNL     1      11.120 -12.227  23.570  1.00  0.00     0.309 C 
HETATM   33  C21 UNL     1      11.792 -11.128  21.627  1.00  0.00     0.309 C 
ENDBRANCH  30  31
ENDBRANCH  11  30
BRANCH   1  34
HETATM   34  O2  UNL     1      14.534 -12.961  18.131  1.00  0.00    -0.310 OA
BRANCH  34  35
HETATM   35  C2  UNL     1      14.184 -11.996  17.197  1.00  0.00     0.255 C 
HETATM   36  C1  UNL     1      14.745 -11.959  15.827  1.00  0.00     0.126 C 
HETATM   37  O1  UNL     1      13.350 -11.109  17.523  1.00  0.00    -0.266 OA
ENDBRANCH  34  35
ENDBRANCH   1  34
BRANCH   2  38
HETATM   38  O3  UNL     1      16.566 -11.734  19.398  1.00  0.00    -0.392 OA
ATOM     39  H3  UNL     1      17.476 -11.951  19.561  1.00  0.00     0.210 HD
ENDBRANCH   2  38
TORSDOF 13
ENDMDL
