MODEL 1
REMARK VINA RESULT: -7.795190817      0.000      0.000
REMARK  10 active torsions:
REMARK  status: ('A' for Active; 'I' for Inactive)
REMARK    1  A    between atoms: C2_2  and  O2_4 
REMARK    2  A    between atoms: O2_4  and  C3_5 
REMARK    3  A    between atoms: C3_5  and  C4_6 
REMARK    4  A    between atoms: C11_16  and  N1_17 
REMARK    5  A    between atoms: C17_24  and  C18_25 
REMARK    6  A    between atoms: C23_32  and  C24_33 
REMARK    7  A    between atoms: C24_33  and  C25_34 
REMARK    8  A    between atoms: C25_34  and  C26_35 
REMARK    9  A    between atoms: C26_35  and  N2_36 
REMARK   10  A    between atoms: C27_40  and  O9_41 
ROOT
HETATM    1  C4  UNL     1      13.211 -13.332  20.544  1.00  0.00     0.142 A 
HETATM    2  O3  UNL     1      12.581 -13.478  19.365  1.00  0.00    -0.339 OA
HETATM    3  C5  UNL     1      12.942 -12.201  19.683  1.00  0.00     0.298 A 
HETATM    4  O4  UNL     1      13.797 -11.675  18.799  1.00  0.00    -0.355 OA
HETATM    5  C6  UNL     1      14.710 -12.461  18.162  1.00  0.00     0.203 C 
HETATM    6  C7  UNL     1      15.726 -13.055  19.053  1.00  0.00     0.147 C 
HETATM    7  C8  UNL     1      15.439 -12.531  20.439  1.00  0.00     0.045 C 
HETATM    8  C9  UNL     1      14.581 -13.695  20.905  1.00  0.00     0.070 C 
HETATM    9  C10 UNL     1      15.251 -14.870  20.340  1.00  0.00     0.131 C 
HETATM   10  O5  UNL     1      15.816 -14.406  19.161  1.00  0.00    -0.367 OA
HETATM   11  C11 UNL     1      14.498 -16.095  20.019  1.00  0.00     0.264 C 
HETATM   12  C15 UNL     1      14.101 -16.760  21.337  1.00  0.00     0.048 C 
HETATM   13  C16 UNL     1      15.309 -16.413  22.168  1.00  0.00     0.041 C 
HETATM   14  C17 UNL     1      16.151 -17.612  22.533  1.00  0.00     0.101 C 
HETATM   15  C19 UNL     1      17.297 -17.081  23.367  1.00  0.00    -0.034 C 
HETATM   16  C20 UNL     1      18.615 -17.691  22.986  1.00  0.00     0.016 C 
HETATM   17  C21 UNL     1      17.023 -17.591  24.796  1.00  0.00     0.016 C 
HETATM   18  C22 UNL     1      17.295 -15.592  23.494  1.00  0.00     0.017 C 
HETATM   19  C23 UNL     1      17.076 -14.825  22.209  1.00  0.00     0.024 C 
HETATM   20  C27 UNL     1      16.219 -15.544  21.289  1.00  0.00     0.100 C 
ENDROOT
BRANCH  11  21
HETATM   21  N1  UNL     1      13.620 -16.275  18.975  1.00  0.00     0.121 N 
HETATM   22  C12 UNL     1      14.048 -17.121  17.884  1.00  0.00     0.302 C 
HETATM   23  C13 UNL     1      12.943 -18.183  17.810  1.00  0.00     0.200 C 
HETATM   24  O6  UNL     1      11.845 -17.404  18.201  1.00  0.00    -0.361 OA
HETATM   25  C14 UNL     1      12.333 -16.839  19.354  1.00  0.00     0.441 C 
ENDBRANCH  11  21
BRANCH  20  26
HETATM   26  O9  UNL     1      17.063 -16.343  20.485  1.00  0.00    -0.386 OA
ATOM     27  H9  UNL     1      17.800 -16.582  21.034  1.00  0.00     0.210 HD
ENDBRANCH  20  26
BRANCH   1  28
HETATM   28  C3  UNL     1      12.201 -13.462  21.707  1.00  0.00     0.222 C 
BRANCH  28  29
HETATM   29  O2  UNL     1      12.650 -12.800  22.845  1.00  0.00    -0.319 OA
BRANCH  29  30
HETATM   30  C2  UNL     1      12.246 -11.505  23.119  1.00  0.00     0.254 C 
HETATM   31  C1  UNL     1      10.984 -11.217  23.853  1.00  0.00     0.126 C 
HETATM   32  O1  UNL     1      12.958 -10.543  22.742  1.00  0.00    -0.266 OA
ENDBRANCH  29  30
ENDBRANCH  28  29
ENDBRANCH   1  28
BRANCH  19  33
HETATM   33  C24 UNL     1      18.434 -14.521  21.629  1.00  0.00     0.009 C 
BRANCH  33  34
HETATM   34  C25 UNL     1      19.464 -14.038  22.582  1.00  0.00     0.028 C 
BRANCH  34  35
HETATM   35  C26 UNL     1      20.878 -14.311  22.085  1.00  0.00     0.229 C 
BRANCH  35  36
HETATM   36  N2  UNL     1      21.780 -14.664  23.143  1.00  0.00    -0.079 N 
ATOM     37  H23 UNL     1      21.294 -14.705  24.039  1.00  0.00     0.274 HD
ATOM     38  H22 UNL     1      22.071 -15.639  23.067  1.00  0.00     0.274 HD
ATOM     39  H21 UNL     1      22.590 -14.044  23.194  1.00  0.00     0.274 HD
ENDBRANCH  35  36
ENDBRANCH  34  35
ENDBRANCH  33  34
ENDBRANCH  19  33
BRANCH  14  40
HETATM   40  C18 UNL     1      15.396 -18.668  23.221  1.00  0.00     0.178 C 
HETATM   41  O7  UNL     1      14.379 -18.379  23.883  1.00  0.00    -0.648 OA
HETATM   42  O8  UNL     1      15.770 -19.994  23.166  1.00  0.00    -0.648 OA
ENDBRANCH  14  40
TORSDOF 10
ENDMDL
MODEL 2
REMARK VINA RESULT: -7.765117958      2.084      2.655
REMARK  10 active torsions:
REMARK  status: ('A' for Active; 'I' for Inactive)
REMARK    1  A    between atoms: C2_2  and  O2_4 
REMARK    2  A    between atoms: O2_4  and  C3_5 
REMARK    3  A    between atoms: C3_5  and  C4_6 
REMARK    4  A    between atoms: C11_16  and  N1_17 
REMARK    5  A    between atoms: C17_24  and  C18_25 
REMARK    6  A    between atoms: C23_32  and  C24_33 
REMARK    7  A    between atoms: C24_33  and  C25_34 
REMARK    8  A    between atoms: C25_34  and  C26_35 
REMARK    9  A    between atoms: C26_35  and  N2_36 
REMARK   10  A    between atoms: C27_40  and  O9_41 
ROOT
HETATM    1  C4  UNL     1      14.671 -12.769  20.563  1.00  0.00     0.142 A 
HETATM    2  O3  UNL     1      13.666 -13.379  19.910  1.00  0.00    -0.339 OA
HETATM    3  C5  UNL     1      14.084 -12.197  19.372  1.00  0.00     0.298 A 
HETATM    4  O4  UNL     1      14.554 -12.340  18.127  1.00  0.00    -0.355 OA
HETATM    5  C6  UNL     1      15.200 -13.480  17.754  1.00  0.00     0.203 C 
HETATM    6  C7  UNL     1      16.483 -13.706  18.450  1.00  0.00     0.147 C 
HETATM    7  C8  UNL     1      16.694 -12.517  19.355  1.00  0.00     0.045 C 
HETATM    8  C9  UNL     1      16.088 -13.125  20.609  1.00  0.00     0.070 C 
HETATM    9  C10 UNL     1      16.544 -14.518  20.575  1.00  0.00     0.131 C 
HETATM   10  O5  UNL     1      16.640 -14.812  19.222  1.00  0.00    -0.367 OA
HETATM   11  C11 UNL     1      15.758 -15.592  21.208  1.00  0.00     0.264 C 
HETATM   12  C15 UNL     1      15.873 -15.427  22.723  1.00  0.00     0.048 C 
HETATM   13  C16 UNL     1      17.288 -14.918  22.813  1.00  0.00     0.041 C 
HETATM   14  C17 UNL     1      18.236 -15.893  23.471  1.00  0.00     0.101 C 
HETATM   15  C19 UNL     1      19.590 -15.216  23.486  1.00  0.00    -0.034 C 
HETATM   16  C20 UNL     1      20.701 -16.146  23.093  1.00  0.00     0.016 C 
HETATM   17  C21 UNL     1      19.855 -14.883  24.968  1.00  0.00     0.016 C 
HETATM   18  C22 UNL     1      19.594 -13.888  22.798  1.00  0.00     0.017 C 
HETATM   19  C23 UNL     1      18.912 -13.847  21.449  1.00  0.00     0.024 C 
HETATM   20  C27 UNL     1      17.804 -14.775  21.375  1.00  0.00     0.100 C 
ENDROOT
BRANCH  11  21
HETATM   21  N1  UNL     1      14.571 -16.122  20.757  1.00  0.00     0.121 N 
HETATM   22  C12 UNL     1      14.621 -17.415  20.114  1.00  0.00     0.302 C 
HETATM   23  C13 UNL     1      13.638 -18.256  20.941  1.00  0.00     0.200 C 
HETATM   24  O6  UNL     1      12.713 -17.260  21.285  1.00  0.00    -0.361 OA
HETATM   25  C14 UNL     1      13.554 -16.295  21.783  1.00  0.00     0.441 C 
ENDBRANCH  11  21
BRANCH  20  26
HETATM   26  O9  UNL     1      18.326 -15.999  20.898  1.00  0.00    -0.386 OA
ATOM     27  H9  UNL     1      17.632 -16.639  21.005  1.00  0.00     0.210 HD
ENDBRANCH  20  26
BRANCH   1  28
HETATM   28  C3  UNL     1      14.144 -12.125  21.867  1.00  0.00     0.222 C 
BRANCH  28  29
HETATM   29  O2  UNL     1      13.152 -12.906  22.453  1.00  0.00    -0.319 OA
BRANCH  29  30
HETATM   30  C2  UNL     1      11.905 -12.376  22.732  1.00  0.00     0.254 C 
HETATM   31  C1  UNL     1      11.739 -11.189  23.615  1.00  0.00     0.126 C 
HETATM   32  O1  UNL     1      10.883 -12.903  22.231  1.00  0.00    -0.266 OA
ENDBRANCH  29  30
ENDBRANCH  28  29
ENDBRANCH   1  28
BRANCH  19  33
HETATM   33  C24 UNL     1      19.967 -14.109  20.404  1.00  0.00     0.009 C 
BRANCH  33  34
HETATM   34  C25 UNL     1      20.507 -12.919  19.701  1.00  0.00     0.028 C 
BRANCH  34  35
HETATM   35  C26 UNL     1      19.965 -12.796  18.283  1.00  0.00     0.229 C 
BRANCH  35  36
HETATM   36  N2  UNL     1      20.951 -12.333  17.349  1.00  0.00    -0.079 N 
ATOM     37  H23 UNL     1      21.439 -11.513  17.711  1.00  0.00     0.274 HD
ATOM     38  H22 UNL     1      21.736 -12.982  17.293  1.00  0.00     0.274 HD
ATOM     39  H21 UNL     1      20.562 -12.148  16.424  1.00  0.00     0.274 HD
ENDBRANCH  35  36
ENDBRANCH  34  35
ENDBRANCH  33  34
ENDBRANCH  19  33
BRANCH  14  40
HETATM   40  C18 UNL     1      17.803 -16.316  24.809  1.00  0.00     0.178 C 
HETATM   41  O7  UNL     1      17.289 -15.489  25.590  1.00  0.00    -0.648 OA
HETATM   42  O8  UNL     1      17.943 -17.614  25.251  1.00  0.00    -0.648 OA
ENDBRANCH  14  40
TORSDOF 10
ENDMDL
MODEL 3
REMARK VINA RESULT: -7.638957311      1.404      1.688
REMARK  10 active torsions:
REMARK  status: ('A' for Active; 'I' for Inactive)
REMARK    1  A    between atoms: C2_2  and  O2_4 
REMARK    2  A    between atoms: O2_4  and  C3_5 
REMARK    3  A    between atoms: C3_5  and  C4_6 
REMARK    4  A    between atoms: C11_16  and  N1_17 
REMARK    5  A    between atoms: C17_24  and  C18_25 
REMARK    6  A    between atoms: C23_32  and  C24_33 
REMARK    7  A    between atoms: C24_33  and  C25_34 
REMARK    8  A    between atoms: C25_34  and  C26_35 
REMARK    9  A    between atoms: C26_35  and  N2_36 
REMARK   10  A    between atoms: C27_40  and  O9_41 
ROOT
HETATM    1  C4  UNL     1      14.505 -13.612  20.875  1.00  0.00     0.142 A 
HETATM    2  O3  UNL     1      14.121 -13.796  19.600  1.00  0.00    -0.339 OA
HETATM    3  C5  UNL     1      14.348 -12.501  19.963  1.00  0.00     0.298 A 
HETATM    4  O4  UNL     1      15.330 -11.934  19.251  1.00  0.00    -0.355 OA
HETATM    5  C6  UNL     1      16.386 -12.674  18.812  1.00  0.00     0.203 C 
HETATM    6  C7  UNL     1      17.242 -13.209  19.889  1.00  0.00     0.147 C 
HETATM    7  C8  UNL     1      16.668 -12.696  21.187  1.00  0.00     0.045 C 
HETATM    8  C9  UNL     1      15.797 -13.902  21.497  1.00  0.00     0.070 C 
HETATM    9  C10 UNL     1      16.622 -15.042  21.087  1.00  0.00     0.131 C 
HETATM   10  O5  UNL     1      17.378 -14.553  20.031  1.00  0.00    -0.367 OA
HETATM   11  C11 UNL     1      16.008 -16.306  20.645  1.00  0.00     0.264 C 
HETATM   12  C15 UNL     1      15.400 -16.986  21.872  1.00  0.00     0.048 C 
HETATM   13  C16 UNL     1      16.407 -16.573  22.913  1.00  0.00     0.041 C 
HETATM   14  C17 UNL     1      17.223 -17.725  23.450  1.00  0.00     0.101 C 
HETATM   15  C19 UNL     1      18.159 -17.130  24.479  1.00  0.00    -0.034 C 
HETATM   16  C20 UNL     1      19.555 -17.672  24.366  1.00  0.00     0.016 C 
HETATM   17  C21 UNL     1      17.642 -17.648  25.837  1.00  0.00     0.016 C 
HETATM   18  C22 UNL     1      18.056 -15.643  24.583  1.00  0.00     0.017 C 
HETATM   19  C23 UNL     1      18.049 -14.894  23.270  1.00  0.00     0.024 C 
HETATM   20  C27 UNL     1      17.423 -15.660  22.213  1.00  0.00     0.100 C 
ENDROOT
BRANCH  11  21
HETATM   21  N1  UNL     1      15.356 -16.536  19.455  1.00  0.00     0.121 N 
HETATM   22  C12 UNL     1      15.969 -17.462  18.529  1.00  0.00     0.302 C 
HETATM   23  C13 UNL     1      14.865 -18.503  18.293  1.00  0.00     0.200 C 
HETATM   24  O6  UNL     1      13.739 -17.674  18.400  1.00  0.00    -0.361 OA
HETATM   25  C14 UNL     1      14.000 -17.045  19.592  1.00  0.00     0.441 C 
ENDBRANCH  11  21
BRANCH  20  26
HETATM   26  O9  UNL     1      18.445 -16.417  21.596  1.00  0.00    -0.386 OA
ATOM     27  H9  UNL     1      18.255 -17.326  21.797  1.00  0.00     0.210 HD
ENDBRANCH  20  26
BRANCH   1  28
HETATM   28  C3  UNL     1      13.299 -13.791  21.825  1.00  0.00     0.222 C 
BRANCH  28  29
HETATM   29  O2  UNL     1      13.202 -12.736  22.727  1.00  0.00    -0.319 OA
BRANCH  29  30
HETATM   30  C2  UNL     1      12.041 -11.990  22.826  1.00  0.00     0.254 C 
HETATM   31  C1  UNL     1      12.040 -10.615  23.394  1.00  0.00     0.126 C 
HETATM   32  O1  UNL     1      10.957 -12.480  22.427  1.00  0.00    -0.266 OA
ENDBRANCH  29  30
ENDBRANCH  28  29
ENDBRANCH   1  28
BRANCH  19  33
HETATM   33  C24 UNL     1      19.477 -14.521  22.956  1.00  0.00     0.009 C 
BRANCH  33  34
HETATM   34  C25 UNL     1      20.321 -14.121  24.109  1.00  0.00     0.028 C 
BRANCH  34  35
HETATM   35  C26 UNL     1      21.759 -14.601  23.960  1.00  0.00     0.229 C 
BRANCH  35  36
HETATM   36  N2  UNL     1      22.581 -14.248  25.081  1.00  0.00    -0.079 N 
ATOM     37  H23 UNL     1      22.190 -14.613  25.950  1.00  0.00     0.274 HD
ATOM     38  H22 UNL     1      23.461 -14.765  25.066  1.00  0.00     0.274 HD
ATOM     39  H21 UNL     1      22.748 -13.244  25.149  1.00  0.00     0.274 HD
ENDBRANCH  35  36
ENDBRANCH  34  35
ENDBRANCH  33  34
ENDBRANCH  19  33
BRANCH  14  40
HETATM   40  C18 UNL     1      16.405 -18.816  23.995  1.00  0.00     0.178 C 
HETATM   41  O7  UNL     1      16.804 -19.996  23.915  1.00  0.00    -0.648 OA
HETATM   42  O8  UNL     1      15.189 -18.590  24.604  1.00  0.00    -0.648 OA
ENDBRANCH  14  40
TORSDOF 10
ENDMDL
MODEL 4
REMARK VINA RESULT: -7.534202600      1.308      1.589
REMARK  10 active torsions:
REMARK  status: ('A' for Active; 'I' for Inactive)
REMARK    1  A    between atoms: C2_2  and  O2_4 
REMARK    2  A    between atoms: O2_4  and  C3_5 
REMARK    3  A    between atoms: C3_5  and  C4_6 
REMARK    4  A    between atoms: C11_16  and  N1_17 
REMARK    5  A    between atoms: C17_24  and  C18_25 
REMARK    6  A    between atoms: C23_32  and  C24_33 
REMARK    7  A    between atoms: C24_33  and  C25_34 
REMARK    8  A    between atoms: C25_34  and  C26_35 
REMARK    9  A    between atoms: C26_35  and  N2_36 
REMARK   10  A    between atoms: C27_40  and  O9_41 
ROOT
HETATM    1  C4  UNL     1      14.597 -13.433  21.037  1.00  0.00     0.142 A 
HETATM    2  O3  UNL     1      14.308 -13.300  19.731  1.00  0.00    -0.339 OA
HETATM    3  C5  UNL     1      14.754 -12.169  20.351  1.00  0.00     0.298 A 
HETATM    4  O4  UNL     1      15.892 -11.709  19.819  1.00  0.00    -0.355 OA
HETATM    5  C6  UNL     1      16.817 -12.566  19.305  1.00  0.00     0.203 C 
HETATM    6  C7  UNL     1      17.442 -13.456  20.305  1.00  0.00     0.147 C 
HETATM    7  C8  UNL     1      16.860 -13.070  21.643  1.00  0.00     0.045 C 
HETATM    8  C9  UNL     1      15.740 -14.097  21.663  1.00  0.00     0.070 C 
HETATM    9  C10 UNL     1      16.356 -15.296  21.087  1.00  0.00     0.131 C 
HETATM   10  O5  UNL     1      17.293 -14.801  20.191  1.00  0.00    -0.367 OA
HETATM   11  C11 UNL     1      15.548 -16.301  20.374  1.00  0.00     0.264 C 
HETATM   12  C15 UNL     1      14.701 -17.042  21.409  1.00  0.00     0.048 C 
HETATM   13  C16 UNL     1      15.666 -17.045  22.566  1.00  0.00     0.041 C 
HETATM   14  C17 UNL     1      16.181 -18.422  22.915  1.00  0.00     0.101 C 
HETATM   15  C19 UNL     1      17.114 -18.235  24.091  1.00  0.00    -0.034 C 
HETATM   16  C20 UNL     1      18.378 -19.033  23.955  1.00  0.00     0.016 C 
HETATM   17  C21 UNL     1      16.376 -18.863  25.291  1.00  0.00     0.016 C 
HETATM   18  C22 UNL     1      17.300 -16.802  24.475  1.00  0.00     0.017 C 
HETATM   19  C23 UNL     1      17.569 -15.848  23.334  1.00  0.00     0.024 C 
HETATM   20  C27 UNL     1      16.906 -16.262  22.115  1.00  0.00     0.100 C 
ENDROOT
BRANCH  11  21
HETATM   21  N1  UNL     1      14.981 -16.171  19.127  1.00  0.00     0.121 N 
HETATM   22  C12 UNL     1      15.599 -16.891  18.037  1.00  0.00     0.302 C 
HETATM   23  C13 UNL     1      14.446 -17.738  17.479  1.00  0.00     0.200 C 
HETATM   24  O6  UNL     1      13.377 -16.864  17.723  1.00  0.00    -0.361 OA
HETATM   25  C14 UNL     1      13.585 -16.574  19.049  1.00  0.00     0.441 C 
ENDBRANCH  11  21
BRANCH  20  26
HETATM   26  O9  UNL     1      17.811 -17.097  21.422  1.00  0.00    -0.386 OA
ATOM     27  H9  UNL     1      17.387 -17.318  20.600  1.00  0.00     0.210 HD
ENDBRANCH  20  26
BRANCH   1  28
HETATM   28  C3  UNL     1      13.294 -13.516  21.864  1.00  0.00     0.222 C 
BRANCH  28  29
HETATM   29  O2  UNL     1      13.141 -12.401  22.683  1.00  0.00    -0.319 OA
BRANCH  29  30
HETATM   30  C2  UNL     1      11.963 -11.675  22.682  1.00  0.00     0.254 C 
HETATM   31  C1  UNL     1      11.260 -11.323  23.946  1.00  0.00     0.126 C 
HETATM   32  O1  UNL     1      11.469 -11.300  21.591  1.00  0.00    -0.266 OA
ENDBRANCH  29  30
ENDBRANCH  28  29
ENDBRANCH   1  28
BRANCH  19  33
HETATM   33  C24 UNL     1      19.065 -15.739  23.181  1.00  0.00     0.009 C 
BRANCH  33  34
HETATM   34  C25 UNL     1      19.626 -14.366  23.158  1.00  0.00     0.028 C 
BRANCH  34  35
HETATM   35  C26 UNL     1      20.593 -14.160  21.998  1.00  0.00     0.229 C 
BRANCH  35  36
HETATM   36  N2  UNL     1      20.503 -15.196  21.010  1.00  0.00    -0.079 N 
ATOM     37  H23 UNL     1      20.721 -16.107  21.415  1.00  0.00     0.274 HD
ATOM     38  H22 UNL     1      19.533 -15.363  20.742  1.00  0.00     0.274 HD
ATOM     39  H21 UNL     1      21.083 -15.012  20.191  1.00  0.00     0.274 HD
ENDBRANCH  35  36
ENDBRANCH  34  35
ENDBRANCH  33  34
ENDBRANCH  19  33
BRANCH  14  40
HETATM   40  C18 UNL     1      15.114 -19.392  23.191  1.00  0.00     0.178 C 
HETATM   41  O7  UNL     1      15.283 -20.600  22.926  1.00  0.00    -0.648 OA
HETATM   42  O8  UNL     1      13.906 -19.020  23.741  1.00  0.00    -0.648 OA
ENDBRANCH  14  40
TORSDOF 10
ENDMDL
MODEL 5
REMARK VINA RESULT: -7.525919688      2.317      5.695
REMARK  10 active torsions:
REMARK  status: ('A' for Active; 'I' for Inactive)
REMARK    1  A    between atoms: C2_2  and  O2_4 
REMARK    2  A    between atoms: O2_4  and  C3_5 
REMARK    3  A    between atoms: C3_5  and  C4_6 
REMARK    4  A    between atoms: C11_16  and  N1_17 
REMARK    5  A    between atoms: C17_24  and  C18_25 
REMARK    6  A    between atoms: C23_32  and  C24_33 
REMARK    7  A    between atoms: C24_33  and  C25_34 
REMARK    8  A    between atoms: C25_34  and  C26_35 
REMARK    9  A    between atoms: C26_35  and  N2_36 
REMARK   10  A    between atoms: C27_40  and  O9_41 
ROOT
HETATM    1  C4  UNL     1      14.778 -18.049  19.240  1.00  0.00     0.142 A 
HETATM    2  O3  UNL     1      13.444 -17.883  19.267  1.00  0.00    -0.339 OA
HETATM    3  C5  UNL     1      13.875 -19.177  19.288  1.00  0.00     0.298 A 
HETATM    4  O4  UNL     1      13.498 -19.825  20.397  1.00  0.00    -0.355 OA
HETATM    5  C6  UNL     1      13.386 -19.165  21.584  1.00  0.00     0.203 C 
HETATM    6  C7  UNL     1      14.664 -18.649  22.113  1.00  0.00     0.147 C 
HETATM    7  C8  UNL     1      15.736 -19.084  21.144  1.00  0.00     0.045 C 
HETATM    8  C9  UNL     1      15.755 -17.818  20.303  1.00  0.00     0.070 C 
HETATM    9  C10 UNL     1      15.598 -16.744  21.288  1.00  0.00     0.131 C 
HETATM   10  O5  UNL     1      14.824 -17.311  22.291  1.00  0.00    -0.367 OA
HETATM   11  C11 UNL     1      14.976 -15.460  20.921  1.00  0.00     0.264 C 
HETATM   12  C15 UNL     1      15.955 -14.705  20.022  1.00  0.00     0.048 C 
HETATM   13  C16 UNL     1      17.256 -15.145  20.642  1.00  0.00     0.041 C 
HETATM   14  C17 UNL     1      17.998 -14.028  21.336  1.00  0.00     0.101 C 
HETATM   15  C19 UNL     1      19.269 -14.645  21.880  1.00  0.00    -0.034 C 
HETATM   16  C20 UNL     1      19.572 -14.193  23.280  1.00  0.00     0.016 C 
HETATM   17  C21 UNL     1      20.402 -14.053  21.018  1.00  0.00     0.016 C 
HETATM   18  C22 UNL     1      19.355 -16.119  21.651  1.00  0.00     0.017 C 
HETATM   19  C23 UNL     1      18.110 -16.908  21.986  1.00  0.00     0.024 C 
HETATM   20  C27 UNL     1      16.904 -16.140  21.757  1.00  0.00     0.100 C 
ENDROOT
BRANCH  11  21
HETATM   21  N1  UNL     1      13.642 -15.229  20.672  1.00  0.00     0.121 N 
HETATM   22  C12 UNL     1      12.870 -14.598  21.718  1.00  0.00     0.302 C 
HETATM   23  C13 UNL     1      12.284 -13.360  21.022  1.00  0.00     0.200 C 
HETATM   24  O6  UNL     1      12.126 -13.875  19.728  1.00  0.00    -0.361 OA
HETATM   25  C14 UNL     1      13.377 -14.397  19.508  1.00  0.00     0.441 C 
ENDBRANCH  11  21
BRANCH  20  26
HETATM   26  O9  UNL     1      16.612 -15.467  22.965  1.00  0.00    -0.386 OA
ATOM     27  H9  UNL     1      17.431 -15.081  23.255  1.00  0.00     0.210 HD
ENDBRANCH  20  26
BRANCH   1  28
HETATM   28  C3  UNL     1      15.320 -17.766  17.820  1.00  0.00     0.222 C 
BRANCH  28  29
HETATM   29  O2  UNL     1      14.853 -16.549  17.332  1.00  0.00    -0.319 OA
BRANCH  29  30
HETATM   30  C2  UNL     1      15.492 -15.914  16.281  1.00  0.00     0.254 C 
HETATM   31  C1  UNL     1      15.814 -14.462  16.324  1.00  0.00     0.126 C 
HETATM   32  O1  UNL     1      15.811 -16.574  15.263  1.00  0.00    -0.266 OA
ENDBRANCH  29  30
ENDBRANCH  28  29
ENDBRANCH   1  28
BRANCH  19  33
HETATM   33  C24 UNL     1      18.243 -17.377  23.413  1.00  0.00     0.009 C 
BRANCH  33  34
HETATM   34  C25 UNL     1      17.917 -18.801  23.671  1.00  0.00     0.028 C 
BRANCH  34  35
HETATM   35  C26 UNL     1      16.902 -18.961  24.796  1.00  0.00     0.229 C 
BRANCH  35  36
HETATM   36  N2  UNL     1      16.190 -17.749  25.079  1.00  0.00    -0.079 N 
ATOM     37  H23 UNL     1      15.963 -17.249  24.219  1.00  0.00     0.274 HD
ATOM     38  H22 UNL     1      15.245 -17.948  25.408  1.00  0.00     0.274 HD
ATOM     39  H21 UNL     1      16.685 -17.143  25.734  1.00  0.00     0.274 HD
ENDBRANCH  35  36
ENDBRANCH  34  35
ENDBRANCH  33  34
ENDBRANCH  19  33
BRANCH  14  40
HETATM   40  C18 UNL     1      18.259 -12.872  20.469  1.00  0.00     0.178 C 
HETATM   41  O7  UNL     1      18.173 -11.715  20.928  1.00  0.00    -0.648 OA
HETATM   42  O8  UNL     1      18.602 -13.012  19.141  1.00  0.00    -0.648 OA
ENDBRANCH  14  40
TORSDOF 10
ENDMDL
