MODEL 1
REMARK VINA RESULT: -4.347496538      0.000      0.000
REMARK  1 active torsions:
REMARK  status: ('A' for Active; 'I' for Inactive)
REMARK    1  A    between atoms: N1_5  and  C5_6 
ROOT
HETATM    1  C1  UNL     1      58.808  -0.457   1.135  1.00  0.00     0.019 C 
HETATM    2  C2  UNL     1      59.068  -1.326   0.334  1.00  0.00    -0.058 C 
HETATM    3  C3  UNL     1      59.375  -2.375  -0.604  1.00  0.00     0.102 A 
HETATM    4  C4  UNL     1      60.004  -3.592  -0.333  1.00  0.00     0.136 A 
HETATM    5  N1  UNL     1      60.129  -4.327  -1.444  1.00  0.00    -0.327 N 
HETATM    6  C7  UNL     1      59.573  -3.575  -2.437  1.00  0.00     0.188 A 
HETATM    7  N2  UNL     1      59.127  -2.413  -1.927  1.00  0.00    -0.344 N 
ATOM      8  H2  UNL     1      58.670  -1.673  -2.461  1.00  0.00     0.167 HD
ENDROOT
BRANCH   5   9
HETATM    9  C5  UNL     1      60.713  -5.617  -1.574  1.00  0.00     0.087 C 
HETATM   10  C6  UNL     1      61.078  -6.251  -0.480  1.00  0.00     0.030 C 
ENDBRANCH   5   9
TORSDOF 1
ENDMDL
MODEL 2
REMARK VINA RESULT: -4.278561664      1.745      2.661
REMARK  1 active torsions:
REMARK  status: ('A' for Active; 'I' for Inactive)
REMARK    1  A    between atoms: N1_5  and  C5_6 
ROOT
HETATM    1  C1  UNL     1      55.996  -3.426  -3.043  1.00  0.00     0.019 C 
HETATM    2  C2  UNL     1      57.061  -3.379  -2.471  1.00  0.00    -0.058 C 
HETATM    3  C3  UNL     1      58.334  -3.342  -1.797  1.00  0.00     0.102 A 
HETATM    4  C4  UNL     1      59.091  -4.432  -1.363  1.00  0.00     0.136 A 
HETATM    5  N1  UNL     1      60.223  -4.029  -0.775  1.00  0.00    -0.327 N 
HETATM    6  C7  UNL     1      60.192  -2.666  -0.834  1.00  0.00     0.188 A 
HETATM    7  N2  UNL     1      59.062  -2.266  -1.445  1.00  0.00    -0.344 N 
ATOM      8  H2  UNL     1      58.798  -1.296  -1.615  1.00  0.00     0.167 HD
ENDROOT
BRANCH   5   9
HETATM    9  C5  UNL     1      61.246  -4.837  -0.208  1.00  0.00     0.087 C 
HETATM   10  C6  UNL     1      61.176  -6.141  -0.372  1.00  0.00     0.030 C 
ENDBRANCH   5   9
TORSDOF 1
ENDMDL
MODEL 3
REMARK VINA RESULT: -4.195724518      2.329      3.286
REMARK  1 active torsions:
REMARK  status: ('A' for Active; 'I' for Inactive)
REMARK    1  A    between atoms: N1_5  and  C5_6 
ROOT
HETATM    1  C1  UNL     1      54.949  -3.243  -3.695  1.00  0.00     0.019 C 
HETATM    2  C2  UNL     1      56.009  -3.310  -3.115  1.00  0.00    -0.058 C 
HETATM    3  C3  UNL     1      57.280  -3.396  -2.442  1.00  0.00     0.102 A 
HETATM    4  C4  UNL     1      58.340  -4.252  -2.747  1.00  0.00     0.136 A 
HETATM    5  N1  UNL     1      59.369  -4.061  -1.913  1.00  0.00    -0.327 N 
HETATM    6  C7  UNL     1      58.964  -3.070  -1.066  1.00  0.00     0.188 A 
HETATM    7  N2  UNL     1      57.718  -2.680  -1.389  1.00  0.00    -0.344 N 
ATOM      8  H2  UNL     1      57.186  -1.954  -0.909  1.00  0.00     0.167 HD
ENDROOT
BRANCH   5   9
HETATM    9  C5  UNL     1      60.620  -4.736  -1.903  1.00  0.00     0.087 C 
HETATM   10  C6  UNL     1      60.631  -6.025  -1.636  1.00  0.00     0.030 C 
ENDBRANCH   5   9
TORSDOF 1
ENDMDL
MODEL 4
REMARK VINA RESULT: -4.136691046      2.163      3.124
REMARK  1 active torsions:
REMARK  status: ('A' for Active; 'I' for Inactive)
REMARK    1  A    between atoms: N1_5  and  C5_6 
ROOT
HETATM    1  C1  UNL     1      55.280  -3.629  -3.216  1.00  0.00     0.019 C 
HETATM    2  C2  UNL     1      56.450  -3.568  -2.914  1.00  0.00    -0.058 C 
HETATM    3  C3  UNL     1      57.839  -3.508  -2.537  1.00  0.00     0.102 A 
HETATM    4  C4  UNL     1      58.369  -3.609  -1.249  1.00  0.00     0.136 A 
HETATM    5  N1  UNL     1      59.703  -3.510  -1.269  1.00  0.00    -0.327 N 
HETATM    6  C7  UNL     1      60.031  -3.346  -2.583  1.00  0.00     0.188 A 
HETATM    7  N2  UNL     1      58.914  -3.345  -3.332  1.00  0.00    -0.344 N 
ATOM      8  H2  UNL     1      58.885  -3.238  -4.345  1.00  0.00     0.167 HD
ENDROOT
BRANCH   5   9
HETATM    9  C5  UNL     1      60.598  -3.565  -0.165  1.00  0.00     0.087 C 
HETATM   10  C6  UNL     1      61.264  -4.680   0.044  1.00  0.00     0.030 C 
ENDBRANCH   5   9
TORSDOF 1
ENDMDL
MODEL 5
REMARK VINA RESULT: -4.072675657      1.398      1.528
REMARK  1 active torsions:
REMARK  status: ('A' for Active; 'I' for Inactive)
REMARK    1  A    between atoms: N1_5  and  C5_6 
ROOT
HETATM    1  C1  UNL     1      58.027  -0.826   2.332  1.00  0.00     0.019 C 
HETATM    2  C2  UNL     1      58.726  -1.505   1.616  1.00  0.00    -0.058 C 
HETATM    3  C3  UNL     1      59.548  -2.330   0.768  1.00  0.00     0.102 A 
HETATM    4  C4  UNL     1      59.816  -3.692   0.918  1.00  0.00     0.136 A 
HETATM    5  N1  UNL     1      60.621  -4.136  -0.053  1.00  0.00    -0.327 N 
HETATM    6  C7  UNL     1      60.870  -3.047  -0.837  1.00  0.00     0.188 A 
HETATM    7  N2  UNL     1      60.228  -1.975  -0.339  1.00  0.00    -0.344 N 
ATOM      8  H2  UNL     1      60.251  -1.037  -0.739  1.00  0.00     0.167 HD
ENDROOT
BRANCH   5   9
HETATM    9  C5  UNL     1      61.115  -5.455  -0.242  1.00  0.00     0.087 C 
HETATM   10  C6  UNL     1      60.845  -6.067  -1.376  1.00  0.00     0.030 C 
ENDBRANCH   5   9
TORSDOF 1
ENDMDL
