MODEL 1
REMARK VINA RESULT: -4.882198269      0.000      0.000
REMARK  2 active torsions:
REMARK  status: ('A' for Active; 'I' for Inactive)
REMARK    1  A    between atoms: C3_3  and  O1_4 
REMARK    2  A    between atoms: O1_4  and  C4_5 
ROOT
HETATM    1  O1  UNL     1      58.925  -4.401  -1.039  1.00  0.00    -0.372 OA
ENDROOT
BRANCH   1   2
HETATM    2  C3  UNL     1      60.244  -4.722  -1.324  1.00  0.00     0.148 A 
HETATM    3  C2  UNL     1      60.562  -6.131  -1.478  1.00  0.00     0.001 A 
HETATM    4  C1  UNL     1      61.283  -6.202  -0.401  1.00  0.00    -0.025 A 
HETATM    5  C7  UNL     1      61.067  -4.800  -0.095  1.00  0.00     0.062 A 
ENDBRANCH   1   2
BRANCH   1   6
HETATM    6  C4  UNL     1      58.388  -3.411  -1.790  1.00  0.00     0.169 C 
HETATM    7  C5  UNL     1      56.908  -3.355  -1.972  1.00  0.00     0.201 C 
HETATM    8  O2  UNL     1      56.957  -4.285  -2.999  1.00  0.00    -0.386 OA
HETATM    9  C6  UNL     1      58.269  -3.843  -3.248  1.00  0.00     0.201 C 
ENDBRANCH   1   6
TORSDOF 2
ENDMDL
MODEL 2
REMARK VINA RESULT: -4.548452439      1.076      1.275
REMARK  2 active torsions:
REMARK  status: ('A' for Active; 'I' for Inactive)
REMARK    1  A    between atoms: C3_3  and  O1_4 
REMARK    2  A    between atoms: O1_4  and  C4_5 
ROOT
HETATM    1  O1  UNL     1      58.837  -4.723  -1.763  1.00  0.00    -0.372 OA
ENDROOT
BRANCH   1   2
HETATM    2  C3  UNL     1      60.216  -4.864  -1.714  1.00  0.00     0.148 A 
HETATM    3  C2  UNL     1      60.739  -6.217  -1.650  1.00  0.00     0.001 A 
HETATM    4  C1  UNL     1      61.192  -6.106  -0.438  1.00  0.00    -0.025 A 
HETATM    5  C7  UNL     1      60.732  -4.734  -0.331  1.00  0.00     0.062 A 
ENDBRANCH   1   2
BRANCH   1   6
HETATM    6  C4  UNL     1      58.357  -3.524  -1.355  1.00  0.00     0.169 C 
HETATM    7  C5  UNL     1      57.566  -3.449  -0.092  1.00  0.00     0.201 C 
HETATM    8  O2  UNL     1      56.406  -3.837  -0.746  1.00  0.00    -0.386 OA
HETATM    9  C6  UNL     1      56.959  -3.283  -1.915  1.00  0.00     0.201 C 
ENDBRANCH   1   6
TORSDOF 2
ENDMDL
MODEL 3
REMARK VINA RESULT: -4.525087390      0.934      1.172
REMARK  2 active torsions:
REMARK  status: ('A' for Active; 'I' for Inactive)
REMARK    1  A    between atoms: C3_3  and  O1_4 
REMARK    2  A    between atoms: O1_4  and  C4_5 
ROOT
HETATM    1  O1  UNL     1      59.073  -4.789  -1.989  1.00  0.00    -0.372 OA
ENDROOT
BRANCH   1   2
HETATM    2  C3  UNL     1      60.445  -4.732  -1.793  1.00  0.00     0.148 A 
HETATM    3  C2  UNL     1      60.979  -5.457  -0.653  1.00  0.00     0.001 A 
HETATM    4  C1  UNL     1      61.326  -4.394   0.005  1.00  0.00    -0.025 A 
HETATM    5  C7  UNL     1      60.841  -3.516  -1.043  1.00  0.00     0.062 A 
ENDBRANCH   1   2
BRANCH   1   6
HETATM    6  C4  UNL     1      58.448  -3.593  -2.097  1.00  0.00     0.169 C 
HETATM    7  C5  UNL     1      57.341  -3.262  -1.152  1.00  0.00     0.201 C 
HETATM    8  O2  UNL     1      56.420  -3.959  -1.920  1.00  0.00    -0.386 OA
HETATM    9  C6  UNL     1      57.244  -3.694  -3.029  1.00  0.00     0.201 C 
ENDBRANCH   1   6
TORSDOF 2
ENDMDL
MODEL 4
REMARK VINA RESULT: -4.426072521      2.319      2.729
REMARK  2 active torsions:
REMARK  status: ('A' for Active; 'I' for Inactive)
REMARK    1  A    between atoms: C3_3  and  O1_4 
REMARK    2  A    between atoms: O1_4  and  C4_5 
ROOT
HETATM    1  O1  UNL     1      59.613  -4.206   0.187  1.00  0.00    -0.372 OA
ENDROOT
BRANCH   1   2
HETATM    2  C3  UNL     1      60.732  -4.631  -0.513  1.00  0.00     0.148 A 
HETATM    3  C2  UNL     1      60.535  -5.023  -1.898  1.00  0.00     0.001 A 
HETATM    4  C1  UNL     1      60.780  -6.282  -1.695  1.00  0.00    -0.025 A 
HETATM    5  C7  UNL     1      61.011  -6.068  -0.279  1.00  0.00     0.062 A 
ENDBRANCH   1   2
BRANCH   1   6
HETATM    6  C4  UNL     1      59.754  -3.043   0.865  1.00  0.00     0.169 C 
HETATM    7  C5  UNL     1      58.658  -2.031   0.813  1.00  0.00     0.201 C 
HETATM    8  O2  UNL     1      59.120  -1.532  -0.396  1.00  0.00    -0.386 OA
HETATM    9  C6  UNL     1      60.398  -1.978  -0.016  1.00  0.00     0.201 C 
ENDBRANCH   1   6
TORSDOF 2
ENDMDL
MODEL 5
REMARK VINA RESULT: -4.300483645      2.597      3.537
REMARK  2 active torsions:
REMARK  status: ('A' for Active; 'I' for Inactive)
REMARK    1  A    between atoms: C3_3  and  O1_4 
REMARK    2  A    between atoms: O1_4  and  C4_5 
ROOT
HETATM    1  O1  UNL     1      59.372  -6.363   0.392  1.00  0.00    -0.372 OA
ENDROOT
BRANCH   1   2
HETATM    2  C3  UNL     1      60.618  -6.014  -0.108  1.00  0.00     0.148 A 
HETATM    3  C2  UNL     1      60.886  -4.597  -0.281  1.00  0.00     0.001 A 
HETATM    4  C1  UNL     1      60.915  -4.646  -1.578  1.00  0.00    -0.025 A 
HETATM    5  C7  UNL     1      60.651  -6.072  -1.588  1.00  0.00     0.062 A 
ENDBRANCH   1   2
BRANCH   1   6
HETATM    6  C4  UNL     1      58.994  -5.723   1.523  1.00  0.00     0.169 C 
HETATM    7  C5  UNL     1      57.971  -6.351   2.409  1.00  0.00     0.201 C 
HETATM    8  O2  UNL     1      56.934  -5.859   1.630  1.00  0.00    -0.386 OA
HETATM    9  C6  UNL     1      57.798  -4.814   1.257  1.00  0.00     0.201 C 
ENDBRANCH   1   6
TORSDOF 2
ENDMDL
