MODEL 1
REMARK VINA RESULT: -4.477776056      0.000      0.000
REMARK  2 active torsions:
REMARK  status: ('A' for Active; 'I' for Inactive)
REMARK    1  A    between atoms: C2_2  and  C3_3 
REMARK    2  A    between atoms: C4_4  and  C5_5 
ROOT
HETATM    1  C5  UNL     1      60.029  -2.454   0.491  1.00  0.00     0.284 C 
HETATM    2  O1  UNL     1      59.286  -1.601  -0.357  1.00  0.00    -0.356 OA
HETATM    3  C6  UNL     1      58.923  -0.641   0.611  1.00  0.00     0.197 C 
HETATM    4  C7  UNL     1      58.564  -1.546   1.779  1.00  0.00     0.197 C 
HETATM    5  O2  UNL     1      59.077  -2.813   1.413  1.00  0.00    -0.356 OA
ENDROOT
BRANCH   1   6
HETATM    6  C4  UNL     1      60.684  -3.537  -0.205  1.00  0.00     0.033 C 
HETATM    7  C3  UNL     1      60.515  -4.783   0.199  1.00  0.00    -0.000 C 
BRANCH   7   8
HETATM    8  C2  UNL     1      61.151  -5.899  -0.468  1.00  0.00    -0.010 C 
HETATM    9  C1  UNL     1      60.728  -6.264  -1.657  1.00  0.00     0.011 C 
ENDBRANCH   7   8
ENDBRANCH   1   6
TORSDOF 2
ENDMDL
MODEL 2
REMARK VINA RESULT: -4.367662543      3.489      3.677
REMARK  2 active torsions:
REMARK  status: ('A' for Active; 'I' for Inactive)
REMARK    1  A    between atoms: C2_2  and  C3_3 
REMARK    2  A    between atoms: C4_4  and  C5_5 
ROOT
HETATM    1  C5  UNL     1      57.748  -3.671  -2.675  1.00  0.00     0.284 C 
HETATM    2  O1  UNL     1      56.698  -4.514  -3.106  1.00  0.00    -0.356 OA
HETATM    3  C6  UNL     1      55.669  -3.550  -3.105  1.00  0.00     0.197 C 
HETATM    4  C7  UNL     1      55.973  -2.819  -1.806  1.00  0.00     0.197 C 
HETATM    5  O2  UNL     1      57.274  -3.253  -1.456  1.00  0.00    -0.356 OA
ENDROOT
BRANCH   1   6
HETATM    6  C4  UNL     1      59.042  -4.313  -2.671  1.00  0.00     0.033 C 
HETATM    7  C3  UNL     1      59.535  -4.804  -1.547  1.00  0.00    -0.000 C 
BRANCH   7   8
HETATM    8  C2  UNL     1      60.827  -5.455  -1.496  1.00  0.00    -0.010 C 
HETATM    9  C1  UNL     1      61.173  -6.111  -0.412  1.00  0.00     0.011 C 
ENDBRANCH   7   8
ENDBRANCH   1   6
TORSDOF 2
ENDMDL
MODEL 3
REMARK VINA RESULT: -4.304280108      1.026      1.074
REMARK  2 active torsions:
REMARK  status: ('A' for Active; 'I' for Inactive)
REMARK    1  A    between atoms: C2_2  and  C3_3 
REMARK    2  A    between atoms: C4_4  and  C5_5 
ROOT
HETATM    1  C5  UNL     1      59.509  -2.262   0.246  1.00  0.00     0.284 C 
HETATM    2  O1  UNL     1      60.049  -0.958   0.171  1.00  0.00    -0.356 OA
HETATM    3  C6  UNL     1      58.988  -0.277   0.804  1.00  0.00     0.197 C 
HETATM    4  C7  UNL     1      57.793  -0.965   0.162  1.00  0.00     0.197 C 
HETATM    5  O2  UNL     1      58.341  -2.111  -0.462  1.00  0.00    -0.356 OA
ENDROOT
BRANCH   1   6
HETATM    6  C4  UNL     1      60.409  -3.291  -0.220  1.00  0.00     0.033 C 
HETATM    7  C3  UNL     1      60.231  -4.546   0.152  1.00  0.00    -0.000 C 
BRANCH   7   8
HETATM    8  C2  UNL     1      61.108  -5.609  -0.290  1.00  0.00    -0.010 C 
HETATM    9  C1  UNL     1      60.887  -6.185  -1.450  1.00  0.00     0.011 C 
ENDBRANCH   7   8
ENDBRANCH   1   6
TORSDOF 2
ENDMDL
MODEL 4
REMARK VINA RESULT: -4.302363704      0.501      1.304
REMARK  2 active torsions:
REMARK  status: ('A' for Active; 'I' for Inactive)
REMARK    1  A    between atoms: C2_2  and  C3_3 
REMARK    2  A    between atoms: C4_4  and  C5_5 
ROOT
HETATM    1  C5  UNL     1      59.511  -2.340   0.166  1.00  0.00     0.284 C 
HETATM    2  O1  UNL     1      59.206  -2.495   1.537  1.00  0.00    -0.356 OA
HETATM    3  C6  UNL     1      58.314  -1.409   1.656  1.00  0.00     0.197 C 
HETATM    4  C7  UNL     1      59.053  -0.352   0.850  1.00  0.00     0.197 C 
HETATM    5  O2  UNL     1      60.048  -1.076   0.150  1.00  0.00    -0.356 OA
ENDROOT
BRANCH   1   6
HETATM    6  C4  UNL     1      60.345  -3.394  -0.365  1.00  0.00     0.033 C 
HETATM    7  C3  UNL     1      60.345  -4.587   0.201  1.00  0.00    -0.000 C 
BRANCH   7   8
HETATM    8  C2  UNL     1      61.164  -5.672  -0.297  1.00  0.00    -0.010 C 
HETATM    9  C1  UNL     1      60.865  -6.227  -1.450  1.00  0.00     0.011 C 
ENDBRANCH   7   8
ENDBRANCH   1   6
TORSDOF 2
ENDMDL
MODEL 5
REMARK VINA RESULT: -4.245903696      1.046      1.302
REMARK  2 active torsions:
REMARK  status: ('A' for Active; 'I' for Inactive)
REMARK    1  A    between atoms: C2_2  and  C3_3 
REMARK    2  A    between atoms: C4_4  and  C5_5 
ROOT
HETATM    1  C5  UNL     1      59.916  -3.239   1.380  1.00  0.00     0.284 C 
HETATM    2  O1  UNL     1      58.733  -2.649   0.879  1.00  0.00    -0.356 OA
HETATM    3  C6  UNL     1      58.415  -1.871   2.013  1.00  0.00     0.197 C 
HETATM    4  C7  UNL     1      58.712  -2.865   3.125  1.00  0.00     0.197 C 
HETATM    5  O2  UNL     1      59.440  -3.898   2.487  1.00  0.00    -0.356 OA
ENDROOT
BRANCH   1   6
HETATM    6  C4  UNL     1      60.617  -4.046   0.409  1.00  0.00     0.033 C 
HETATM    7  C3  UNL     1      60.414  -5.351   0.361  1.00  0.00    -0.000 C 
BRANCH   7   8
HETATM    8  C2  UNL     1      61.094  -6.199  -0.595  1.00  0.00    -0.010 C 
HETATM    9  C1  UNL     1      60.675  -6.229  -1.840  1.00  0.00     0.011 C 
ENDBRANCH   7   8
ENDBRANCH   1   6
TORSDOF 2
ENDMDL
