MODEL 1
REMARK VINA RESULT: -3.627402083      0.000      0.000
REMARK  2 active torsions:
REMARK  status: ('A' for Active; 'I' for Inactive)
REMARK    1  A    between atoms: C2_2  and  O1_3 
REMARK    2  A    between atoms: O1_3  and  C3_4 
ROOT
HETATM    1  C3  UNL     1      60.544  -5.694  -1.754  1.00  0.00     0.352 A 
HETATM    2  C4  UNL     1      61.038  -6.169  -0.482  1.00  0.00     0.296 A 
HETATM    3  N1  UNL     1      59.584  -5.979  -0.681  1.00  0.00    -0.043 N 
ATOM      4  H11 UNL     1      58.752  -6.559  -0.581  1.00  0.00     0.280 HD
ATOM      5  H12 UNL     1      58.843  -5.462  -0.208  1.00  0.00     0.280 HD
ENDROOT
BRANCH   1   6
HETATM    6  O1  UNL     1      60.686  -4.329  -2.141  1.00  0.00    -0.330 OA
BRANCH   6   7
HETATM    7  C2  UNL     1      60.218  -3.336  -1.295  1.00  0.00     0.127 C 
HETATM    8  C1  UNL     1      60.991  -2.542  -0.598  1.00  0.00     0.037 C 
ENDBRANCH   6   7
ENDBRANCH   1   6
TORSDOF 2
ENDMDL
MODEL 2
REMARK VINA RESULT: -3.621916676      2.083      3.230
REMARK  2 active torsions:
REMARK  status: ('A' for Active; 'I' for Inactive)
REMARK    1  A    between atoms: C2_2  and  O1_3 
REMARK    2  A    between atoms: O1_3  and  C3_4 
ROOT
HETATM    1  C3  UNL     1      59.734  -3.873  -2.472  1.00  0.00     0.352 A 
HETATM    2  C4  UNL     1      58.922  -3.333  -3.538  1.00  0.00     0.296 A 
HETATM    3  N1  UNL     1      59.052  -2.590  -2.266  1.00  0.00    -0.043 N 
ATOM      4  H11 UNL     1      59.334  -1.648  -1.996  1.00  0.00     0.280 HD
ATOM      5  H12 UNL     1      58.408  -2.209  -1.574  1.00  0.00     0.280 HD
ENDROOT
BRANCH   1   6
HETATM    6  O1  UNL     1      59.284  -4.972  -1.682  1.00  0.00    -0.330 OA
BRANCH   6   7
HETATM    7  C2  UNL     1      60.152  -6.024  -1.435  1.00  0.00     0.127 C 
HETATM    8  C1  UNL     1      61.051  -6.023  -0.483  1.00  0.00     0.037 C 
ENDBRANCH   6   7
ENDBRANCH   1   6
TORSDOF 2
ENDMDL
MODEL 3
REMARK VINA RESULT: -3.511748342      1.165      1.597
REMARK  2 active torsions:
REMARK  status: ('A' for Active; 'I' for Inactive)
REMARK    1  A    between atoms: C2_2  and  O1_3 
REMARK    2  A    between atoms: O1_3  and  C3_4 
ROOT
HETATM    1  C3  UNL     1      60.578  -5.630  -1.760  1.00  0.00     0.352 A 
HETATM    2  C4  UNL     1      61.021  -6.088  -0.464  1.00  0.00     0.296 A 
HETATM    3  N1  UNL     1      59.574  -5.942  -0.737  1.00  0.00    -0.043 N 
ATOM      4  H11 UNL     1      58.755  -6.547  -0.677  1.00  0.00     0.280 HD
ATOM      5  H12 UNL     1      58.795  -5.447  -0.303  1.00  0.00     0.280 HD
ENDROOT
BRANCH   1   6
HETATM    6  O1  UNL     1      60.698  -4.261  -2.143  1.00  0.00    -0.330 OA
BRANCH   6   7
HETATM    7  C2  UNL     1      59.549  -3.513  -2.342  1.00  0.00     0.127 C 
HETATM    8  C1  UNL     1      58.843  -3.533  -3.445  1.00  0.00     0.037 C 
ENDBRANCH   6   7
ENDBRANCH   1   6
TORSDOF 2
ENDMDL
MODEL 4
REMARK VINA RESULT: -3.500022769      1.734      3.015
REMARK  2 active torsions:
REMARK  status: ('A' for Active; 'I' for Inactive)
REMARK    1  A    between atoms: C2_2  and  O1_3 
REMARK    2  A    between atoms: O1_3  and  C3_4 
ROOT
HETATM    1  C3  UNL     1      59.379  -3.850  -2.316  1.00  0.00     0.352 A 
HETATM    2  C4  UNL     1      58.904  -3.435  -3.616  1.00  0.00     0.296 A 
HETATM    3  N1  UNL     1      58.299  -4.612  -2.954  1.00  0.00    -0.043 N 
ATOM      4  H11 UNL     1      57.356  -4.899  -2.694  1.00  0.00     0.280 HD
ATOM      5  H12 UNL     1      58.142  -5.589  -3.201  1.00  0.00     0.280 HD
ENDROOT
BRANCH   1   6
HETATM    6  O1  UNL     1      60.631  -4.517  -2.164  1.00  0.00    -0.330 OA
BRANCH   6   7
HETATM    7  C2  UNL     1      60.652  -5.796  -1.630  1.00  0.00     0.127 C 
HETATM    8  C1  UNL     1      61.078  -6.079  -0.424  1.00  0.00     0.037 C 
ENDBRANCH   6   7
ENDBRANCH   1   6
TORSDOF 2
ENDMDL
MODEL 5
REMARK VINA RESULT: -3.497745151      2.000      3.108
REMARK  2 active torsions:
REMARK  status: ('A' for Active; 'I' for Inactive)
REMARK    1  A    between atoms: C2_2  and  O1_3 
REMARK    2  A    between atoms: O1_3  and  C3_4 
ROOT
HETATM    1  C3  UNL     1      60.164  -3.098  -1.730  1.00  0.00     0.352 A 
HETATM    2  C4  UNL     1      59.385  -3.442  -2.896  1.00  0.00     0.296 A 
HETATM    3  N1  UNL     1      58.951  -2.328  -2.025  1.00  0.00    -0.043 N 
ATOM      4  H11 UNL     1      58.726  -1.342  -2.157  1.00  0.00     0.280 HD
ATOM      5  H12 UNL     1      58.099  -2.085  -1.519  1.00  0.00     0.280 HD
ENDROOT
BRANCH   1   6
HETATM    6  O1  UNL     1      60.140  -3.909  -0.557  1.00  0.00    -0.330 OA
BRANCH   6   7
HETATM    7  C2  UNL     1      61.186  -4.788  -0.323  1.00  0.00     0.127 C 
HETATM    8  C1  UNL     1      61.099  -6.086  -0.469  1.00  0.00     0.037 C 
ENDBRANCH   6   7
ENDBRANCH   1   6
TORSDOF 2
ENDMDL
