MODEL 1
REMARK VINA RESULT: -3.751505210      0.000      0.000
REMARK  1 active torsions:
REMARK  status: ('A' for Active; 'I' for Inactive)
REMARK    1  A    between atoms: C2_2  and  C3_3 
ROOT
HETATM    1  C3  UNL     1      60.616  -5.675  -1.547  1.00  0.00     0.186 C 
HETATM    2  C4  UNL     1      59.637  -4.732  -2.202  1.00  0.00     0.180 C 
HETATM    3  N1  UNL     1      59.081  -6.035  -2.607  1.00  0.00    -0.097 NA
HETATM    4  O1  UNL     1      59.456  -6.462  -1.354  1.00  0.00    -0.276 OA
ENDROOT
BRANCH   1   5
HETATM    5  C2  UNL     1      61.257  -5.200  -0.318  1.00  0.00    -0.002 C 
HETATM    6  C1  UNL     1      61.232  -3.933   0.003  1.00  0.00     0.009 C 
ENDBRANCH   1   5
TORSDOF 1
ENDMDL
MODEL 2
REMARK VINA RESULT: -3.751466340      2.544      3.063
REMARK  1 active torsions:
REMARK  status: ('A' for Active; 'I' for Inactive)
REMARK    1  A    between atoms: C2_2  and  C3_3 
ROOT
HETATM    1  C3  UNL     1      61.238  -3.925  -0.132  1.00  0.00     0.186 C 
HETATM    2  C4  UNL     1      60.008  -3.202   0.361  1.00  0.00     0.180 C 
HETATM    3  N1  UNL     1      60.650  -2.146  -0.441  1.00  0.00    -0.097 NA
HETATM    4  O1  UNL     1      61.002  -3.161  -1.299  1.00  0.00    -0.276 OA
ENDROOT
BRANCH   1   5
HETATM    5  C2  UNL     1      61.118  -5.375  -0.303  1.00  0.00    -0.002 C 
HETATM    6  C1  UNL     1      60.738  -5.885  -1.447  1.00  0.00     0.009 C 
ENDBRANCH   1   5
TORSDOF 1
ENDMDL
MODEL 3
REMARK VINA RESULT: -3.750063549      1.992      2.340
REMARK  1 active torsions:
REMARK  status: ('A' for Active; 'I' for Inactive)
REMARK    1  A    between atoms: C2_2  and  C3_3 
ROOT
HETATM    1  C3  UNL     1      60.053  -4.996  -0.038  1.00  0.00     0.186 C 
HETATM    2  C4  UNL     1      59.377  -5.127   1.305  1.00  0.00     0.180 C 
HETATM    3  N1  UNL     1      59.108  -6.456   0.727  1.00  0.00    -0.097 NA
HETATM    4  O1  UNL     1      60.369  -6.357   0.188  1.00  0.00    -0.276 OA
ENDROOT
BRANCH   1   5
HETATM    5  C2  UNL     1      61.204  -4.093  -0.104  1.00  0.00    -0.002 C 
HETATM    6  C1  UNL     1      61.082  -2.886  -0.593  1.00  0.00     0.009 C 
ENDBRANCH   1   5
TORSDOF 1
ENDMDL
MODEL 4
REMARK VINA RESULT: -3.733488515      1.110      1.407
REMARK  1 active torsions:
REMARK  status: ('A' for Active; 'I' for Inactive)
REMARK    1  A    between atoms: C2_2  and  C3_3 
ROOT
HETATM    1  C3  UNL     1      60.087  -4.689  -2.082  1.00  0.00     0.186 C 
HETATM    2  C4  UNL     1      58.819  -3.893  -1.890  1.00  0.00     0.180 C 
HETATM    3  N1  UNL     1      58.418  -4.797  -2.983  1.00  0.00    -0.097 NA
HETATM    4  O1  UNL     1      59.176  -5.743  -2.334  1.00  0.00    -0.276 OA
ENDROOT
BRANCH   1   5
HETATM    5  C2  UNL     1      60.931  -4.866  -0.899  1.00  0.00    -0.002 C 
HETATM    6  C1  UNL     1      61.105  -6.051  -0.371  1.00  0.00     0.009 C 
ENDBRANCH   1   5
TORSDOF 1
ENDMDL
MODEL 5
REMARK VINA RESULT: -3.690320647      0.885      1.039
REMARK  1 active torsions:
REMARK  status: ('A' for Active; 'I' for Inactive)
REMARK    1  A    between atoms: C2_2  and  C3_3 
ROOT
HETATM    1  C3  UNL     1      60.810  -5.211  -0.826  1.00  0.00     0.186 C 
HETATM    2  C4  UNL     1      60.042  -4.978  -2.104  1.00  0.00     0.180 C 
HETATM    3  N1  UNL     1      59.526  -6.300  -1.705  1.00  0.00    -0.097 NA
HETATM    4  O1  UNL     1      59.600  -5.820  -0.418  1.00  0.00    -0.276 OA
ENDROOT
BRANCH   1   5
HETATM    5  C2  UNL     1      61.192  -4.017  -0.068  1.00  0.00    -0.002 C 
HETATM    6  C1  UNL     1      61.068  -2.824  -0.590  1.00  0.00     0.009 C 
ENDBRANCH   1   5
TORSDOF 1
ENDMDL
