MODEL 1
REMARK VINA RESULT: -3.291178714      0.000      0.000
REMARK  2 active torsions:
REMARK  status: ('A' for Active; 'I' for Inactive)
REMARK    1  A    between atoms: N1_2  and  C2_4 
REMARK    2  A    between atoms: C4_6  and  N2_7 
ROOT
HETATM    1  C2  UNL     1      60.539  -5.710  -1.685  1.00  0.00     0.112 A 
HETATM    2  C3  UNL     1      61.065  -4.811  -0.628  1.00  0.00     0.061 A 
HETATM    3  C4  UNL     1      60.447  -6.152  -0.223  1.00  0.00     0.208 A 
ENDROOT
BRANCH   3   4
HETATM    4  N2  UNL     1      59.153  -6.138   0.415  1.00  0.00    -0.073 N 
ATOM      5  H23 UNL     1      59.214  -5.597   1.278  1.00  0.00     0.274 HD
ATOM      6  H22 UNL     1      58.518  -5.559  -0.134  1.00  0.00     0.274 HD
ATOM      7  H21 UNL     1      58.703  -7.032   0.613  1.00  0.00     0.274 HD
ENDBRANCH   3   4
BRANCH   1   8
HETATM    8  N1  UNL     1      59.288  -5.388  -2.258  1.00  0.00    -0.401 N 
HETATM    9  C1  UNL     1      58.958  -4.293  -2.778  1.00  0.00     0.112 C 
ATOM     10  H1  UNL     1      58.578  -6.121  -2.248  1.00  0.00     0.158 HD
ENDBRANCH   1   8
TORSDOF 2
ENDMDL
MODEL 2
REMARK VINA RESULT: -3.203911956      1.364      2.811
REMARK  2 active torsions:
REMARK  status: ('A' for Active; 'I' for Inactive)
REMARK    1  A    between atoms: N1_2  and  C2_4 
REMARK    2  A    between atoms: C4_6  and  N2_7 
ROOT
HETATM    1  C2  UNL     1      59.945  -5.409   0.177  1.00  0.00     0.112 A 
HETATM    2  C3  UNL     1      61.168  -6.040  -0.381  1.00  0.00     0.061 A 
HETATM    3  C4  UNL     1      60.152  -5.415  -1.340  1.00  0.00     0.208 A 
ENDROOT
BRANCH   3   4
HETATM    4  N2  UNL     1      59.338  -6.299  -2.137  1.00  0.00    -0.073 N 
ATOM      5  H23 UNL     1      58.406  -5.896  -2.234  1.00  0.00     0.274 HD
ATOM      6  H22 UNL     1      59.664  -6.271  -3.103  1.00  0.00     0.274 HD
ATOM      7  H21 UNL     1      59.250  -7.272  -1.843  1.00  0.00     0.274 HD
ENDBRANCH   3   4
BRANCH   1   8
HETATM    8  N1  UNL     1      58.905  -6.264   0.608  1.00  0.00    -0.401 N 
HETATM    9  C1  UNL     1      58.311  -6.227   1.715  1.00  0.00     0.112 C 
ATOM     10  H1  UNL     1      58.605  -6.986  -0.047  1.00  0.00     0.158 HD
ENDBRANCH   1   8
TORSDOF 2
ENDMDL
MODEL 3
REMARK VINA RESULT: -3.194074682      2.006      2.948
REMARK  2 active torsions:
REMARK  status: ('A' for Active; 'I' for Inactive)
REMARK    1  A    between atoms: N1_2  and  C2_4 
REMARK    2  A    between atoms: C4_6  and  N2_7 
ROOT
HETATM    1  C2  UNL     1      60.495  -3.897  -0.551  1.00  0.00     0.112 A 
HETATM    2  C3  UNL     1      61.100  -2.542  -0.593  1.00  0.00     0.061 A 
HETATM    3  C4  UNL     1      59.596  -2.692  -0.839  1.00  0.00     0.208 A 
ENDROOT
BRANCH   3   4
HETATM    4  N2  UNL     1      59.107  -2.510  -2.184  1.00  0.00    -0.073 N 
ATOM      5  H23 UNL     1      58.333  -3.154  -2.346  1.00  0.00     0.274 HD
ATOM      6  H22 UNL     1      58.628  -1.611  -2.244  1.00  0.00     0.274 HD
ATOM      7  H21 UNL     1      59.771  -2.587  -2.954  1.00  0.00     0.274 HD
ENDBRANCH   3   4
BRANCH   1   8
HETATM    8  N1  UNL     1      60.689  -4.737  -1.672  1.00  0.00    -0.401 N 
HETATM    9  C1  UNL     1      60.591  -5.989  -1.699  1.00  0.00     0.112 C 
ATOM     10  H1  UNL     1      60.935  -4.279  -2.549  1.00  0.00     0.158 HD
ENDBRANCH   1   8
TORSDOF 2
ENDMDL
MODEL 4
REMARK VINA RESULT: -3.185810268      2.949      3.304
REMARK  2 active torsions:
REMARK  status: ('A' for Active; 'I' for Inactive)
REMARK    1  A    between atoms: N1_2  and  C2_4 
REMARK    2  A    between atoms: C4_6  and  N2_7 
ROOT
HETATM    1  C2  UNL     1      59.784  -3.177  -1.082  1.00  0.00     0.112 A 
HETATM    2  C3  UNL     1      61.059  -2.587  -0.603  1.00  0.00     0.061 A 
HETATM    3  C4  UNL     1      59.751  -2.185   0.084  1.00  0.00     0.208 A 
ENDROOT
BRANCH   3   4
HETATM    4  N2  UNL     1      59.235  -0.861  -0.160  1.00  0.00    -0.073 N 
ATOM      5  H23 UNL     1      58.260  -0.823   0.139  1.00  0.00     0.274 HD
ATOM      6  H22 UNL     1      59.666  -0.210   0.497  1.00  0.00     0.274 HD
ATOM      7  H21 UNL     1      59.309  -0.479  -1.103  1.00  0.00     0.274 HD
ENDBRANCH   3   4
BRANCH   1   8
HETATM    8  N1  UNL     1      59.231  -2.663  -2.277  1.00  0.00    -0.401 N 
HETATM    9  C1  UNL     1      58.960  -3.308  -3.319  1.00  0.00     0.112 C 
ATOM     10  H1  UNL     1      59.031  -1.662  -2.294  1.00  0.00     0.158 HD
ENDBRANCH   1   8
TORSDOF 2
ENDMDL
MODEL 5
REMARK VINA RESULT: -3.131887269      1.543      2.384
REMARK  2 active torsions:
REMARK  status: ('A' for Active; 'I' for Inactive)
REMARK    1  A    between atoms: N1_2  and  C2_4 
REMARK    2  A    between atoms: C4_6  and  N2_7 
ROOT
HETATM    1  C2  UNL     1      61.181  -4.651  -0.621  1.00  0.00     0.112 A 
HETATM    2  C3  UNL     1      60.877  -6.065  -0.291  1.00  0.00     0.061 A 
HETATM    3  C4  UNL     1      60.620  -5.564  -1.714  1.00  0.00     0.208 A 
ENDROOT
BRANCH   3   4
HETATM    4  N2  UNL     1      59.253  -5.372  -2.130  1.00  0.00    -0.073 N 
ATOM      5  H23 UNL     1      59.191  -5.504  -3.140  1.00  0.00     0.274 HD
ATOM      6  H22 UNL     1      58.690  -6.154  -1.795  1.00  0.00     0.274 HD
ATOM      7  H21 UNL     1      58.790  -4.497  -1.880  1.00  0.00     0.274 HD
ENDBRANCH   3   4
BRANCH   1   8
HETATM    8  N1  UNL     1      60.267  -3.664  -0.185  1.00  0.00    -0.401 N 
HETATM    9  C1  UNL     1      60.399  -2.419  -0.285  1.00  0.00     0.112 C 
ATOM     10  H1  UNL     1      59.411  -3.998   0.258  1.00  0.00     0.158 HD
ENDBRANCH   1   8
TORSDOF 2
ENDMDL
