MODEL 1
REMARK VINA RESULT: -3.857040546      0.000      0.000
REMARK  2 active torsions:
REMARK  status: ('A' for Active; 'I' for Inactive)
REMARK    1  A    between atoms: N1_1  and  N2_4 
REMARK    2  A    between atoms: N3_6  and  C1_8 
ROOT
HETATM    1  N2  UNL     1      58.609  -4.752  -2.909  1.00  0.00    -0.253 N 
ATOM      2  H2  UNL     1      59.142  -4.868  -3.771  1.00  0.00     0.207 HD
HETATM    3  N3  UNL     1      59.182  -4.934  -1.797  1.00  0.00    -0.318 N 
ATOM      4  H3  UNL     1      58.618  -4.810  -0.956  1.00  0.00     0.182 HD
ENDROOT
BRANCH   1   5
HETATM    5  N1  UNL     1      57.261  -4.395  -2.979  1.00  0.00    -0.331 N 
ATOM      6  H12 UNL     1      56.617  -5.024  -3.458  1.00  0.00     0.178 HD
ATOM      7  H11 UNL     1      56.921  -3.528  -2.564  1.00  0.00     0.178 HD
ENDBRANCH   1   5
BRANCH   3   8
HETATM    8  C1  UNL     1      60.547  -5.298  -1.618  1.00  0.00     0.101 A 
HETATM    9  C2  UNL     1      61.036  -6.097  -0.479  1.00  0.00     0.029 A 
HETATM   10  C3  UNL     1      61.213  -4.629  -0.412  1.00  0.00     0.029 A 
ENDBRANCH   3   8
TORSDOF 2
ENDMDL
MODEL 2
REMARK VINA RESULT: -3.731469135      3.256      3.521
REMARK  2 active torsions:
REMARK  status: ('A' for Active; 'I' for Inactive)
REMARK    1  A    between atoms: N1_1  and  N2_4 
REMARK    2  A    between atoms: N3_6  and  C1_8 
ROOT
HETATM    1  N2  UNL     1      58.485  -1.007  -0.567  1.00  0.00    -0.253 N 
ATOM      2  H2  UNL     1      58.930  -1.019   0.351  1.00  0.00     0.207 HD
HETATM    3  N3  UNL     1      58.696  -1.959  -1.371  1.00  0.00    -0.318 N 
ATOM      4  H3  UNL     1      58.235  -1.912  -2.280  1.00  0.00     0.182 HD
ENDROOT
BRANCH   1   5
HETATM    5  N1  UNL     1      57.654   0.062  -0.911  1.00  0.00    -0.331 N 
ATOM      6  H12 UNL     1      56.837   0.247  -0.330  1.00  0.00     0.178 HD
ATOM      7  H11 UNL     1      57.853   0.647  -1.722  1.00  0.00     0.178 HD
ENDBRANCH   1   5
BRANCH   3   8
HETATM    8  C1  UNL     1      59.522  -3.091  -1.118  1.00  0.00     0.101 A 
HETATM    9  C2  UNL     1      60.981  -3.008  -0.921  1.00  0.00     0.029 A 
HETATM   10  C3  UNL     1      60.492  -3.417  -2.256  1.00  0.00     0.029 A 
ENDBRANCH   3   8
TORSDOF 2
ENDMDL
MODEL 3
REMARK VINA RESULT: -3.709262871      1.810      1.976
REMARK  2 active torsions:
REMARK  status: ('A' for Active; 'I' for Inactive)
REMARK    1  A    between atoms: N1_1  and  N2_4 
REMARK    2  A    between atoms: N3_6  and  C1_8 
ROOT
HETATM    1  N2  UNL     1      58.415  -3.192  -3.016  1.00  0.00    -0.253 N 
ATOM      2  H2  UNL     1      58.793  -3.880  -3.668  1.00  0.00     0.207 HD
HETATM    3  N3  UNL     1      59.151  -2.744  -2.091  1.00  0.00    -0.318 N 
ATOM      4  H3  UNL     1      58.740  -2.059  -1.458  1.00  0.00     0.182 HD
ENDROOT
BRANCH   1   5
HETATM    5  N1  UNL     1      57.094  -2.763  -3.162  1.00  0.00    -0.331 N 
ATOM      6  H12 UNL     1      56.529  -2.638  -2.323  1.00  0.00     0.178 HD
ATOM      7  H11 UNL     1      56.697  -2.577  -4.084  1.00  0.00     0.178 HD
ENDBRANCH   1   5
BRANCH   3   8
HETATM    8  C1  UNL     1      60.506  -3.116  -1.857  1.00  0.00     0.101 A 
HETATM    9  C2  UNL     1      60.925  -4.043  -0.791  1.00  0.00     0.029 A 
HETATM   10  C3  UNL     1      61.071  -2.594  -0.533  1.00  0.00     0.029 A 
ENDBRANCH   3   8
TORSDOF 2
ENDMDL
MODEL 4
REMARK VINA RESULT: -3.703562030      2.446      2.621
REMARK  2 active torsions:
REMARK  status: ('A' for Active; 'I' for Inactive)
REMARK    1  A    between atoms: N1_1  and  N2_4 
REMARK    2  A    between atoms: N3_6  and  C1_8 
ROOT
HETATM    1  N2  UNL     1      58.866  -2.003  -1.474  1.00  0.00    -0.253 N 
ATOM      2  H2  UNL     1      58.698  -2.436  -2.383  1.00  0.00     0.207 HD
HETATM    3  N3  UNL     1      59.899  -2.318  -0.818  1.00  0.00    -0.318 N 
ATOM      4  H3  UNL     1      60.034  -1.866   0.086  1.00  0.00     0.182 HD
ENDROOT
BRANCH   1   5
HETATM    5  N1  UNL     1      57.949  -1.073  -0.979  1.00  0.00    -0.331 N 
ATOM      6  H12 UNL     1      58.074  -0.729  -0.027  1.00  0.00     0.178 HD
ATOM      7  H11 UNL     1      57.172  -0.741  -1.550  1.00  0.00     0.178 HD
ENDBRANCH   1   5
BRANCH   3   8
HETATM    8  C1  UNL     1      60.892  -3.252  -1.233  1.00  0.00     0.101 A 
HETATM    9  C2  UNL     1      60.627  -4.688  -1.433  1.00  0.00     0.029 A 
HETATM   10  C3  UNL     1      61.262  -4.279  -0.161  1.00  0.00     0.029 A 
ENDBRANCH   3   8
TORSDOF 2
ENDMDL
MODEL 5
REMARK VINA RESULT: -3.626380767      2.465      3.061
REMARK  2 active torsions:
REMARK  status: ('A' for Active; 'I' for Inactive)
REMARK    1  A    between atoms: N1_1  and  N2_4 
REMARK    2  A    between atoms: N3_6  and  C1_8 
ROOT
HETATM    1  N2  UNL     1      58.246  -6.434   1.238  1.00  0.00    -0.253 N 
ATOM      2  H2  UNL     1      58.715  -7.116   1.834  1.00  0.00     0.207 HD
HETATM    3  N3  UNL     1      58.897  -5.860   0.319  1.00  0.00    -0.318 N 
ATOM      4  H3  UNL     1      58.396  -5.184  -0.256  1.00  0.00     0.182 HD
ENDROOT
BRANCH   1   5
HETATM    5  N1  UNL     1      56.895  -6.150   1.454  1.00  0.00    -0.331 N 
ATOM      6  H12 UNL     1      56.653  -5.450   2.155  1.00  0.00     0.178 HD
ATOM      7  H11 UNL     1      56.164  -6.627   0.927  1.00  0.00     0.178 HD
ENDBRANCH   1   5
BRANCH   3   8
HETATM    8  C1  UNL     1      60.272  -6.079   0.018  1.00  0.00     0.101 A 
HETATM    9  C2  UNL     1      61.176  -5.025  -0.476  1.00  0.00     0.029 A 
HETATM   10  C3  UNL     1      60.606  -5.960  -1.472  1.00  0.00     0.029 A 
ENDBRANCH   3   8
TORSDOF 2
ENDMDL
