MODEL 1
REMARK VINA RESULT: -4.486990441      0.000      0.000
REMARK  1 active torsions:
REMARK  status: ('A' for Active; 'I' for Inactive)
REMARK    1  A    between atoms: C2_2  and  C3_3 
ROOT
HETATM    1  C3  UNL     1      59.837  -4.803  -2.141  1.00  0.00     0.119 A 
HETATM    2  N1  UNL     1      58.643  -4.838  -2.763  1.00  0.00    -0.337 N 
ATOM      3  H1  UNL     1      58.112  -5.671  -3.013  1.00  0.00     0.168 HD
HETATM    4  C4  UNL     1      58.288  -3.567  -2.989  1.00  0.00     0.199 A 
HETATM    5  N2  UNL     1      59.226  -2.743  -2.525  1.00  0.00    -0.295 N 
ATOM      6  H2  UNL     1      59.214  -1.724  -2.564  1.00  0.00     0.187 HD
HETATM    7  N3  UNL     1      60.167  -3.497  -2.009  1.00  0.00    -0.285 N 
ATOM      8  H3  UNL     1      61.022  -3.151  -1.574  1.00  0.00     0.188 HD
ENDROOT
BRANCH   1   9
HETATM    9  C2  UNL     1      60.658  -5.901  -1.678  1.00  0.00     0.040 C 
HETATM   10  C1  UNL     1      61.059  -5.962  -0.435  1.00  0.00     0.015 C 
ENDBRANCH   1   9
TORSDOF 1
ENDMDL
MODEL 2
REMARK VINA RESULT: -4.354987344      0.749      1.541
REMARK  1 active torsions:
REMARK  status: ('A' for Active; 'I' for Inactive)
REMARK    1  A    between atoms: C2_2  and  C3_3 
ROOT
HETATM    1  C3  UNL     1      59.992  -4.548  -1.894  1.00  0.00     0.119 A 
HETATM    2  N1  UNL     1      59.798  -3.401  -2.573  1.00  0.00    -0.337 N 
ATOM      3  H1  UNL     1      60.340  -2.542  -2.484  1.00  0.00     0.168 HD
HETATM    4  C4  UNL     1      58.756  -3.606  -3.387  1.00  0.00     0.199 A 
HETATM    5  N2  UNL     1      58.296  -4.847  -3.235  1.00  0.00    -0.295 N 
ATOM      6  H2  UNL     1      57.510  -5.270  -3.729  1.00  0.00     0.187 HD
HETATM    7  N3  UNL     1      59.050  -5.418  -2.327  1.00  0.00    -0.285 N 
ATOM      8  H3  UNL     1      58.943  -6.377  -1.995  1.00  0.00     0.188 HD
ENDROOT
BRANCH   1   9
HETATM    9  C2  UNL     1      60.988  -4.858  -0.891  1.00  0.00     0.040 C 
HETATM   10  C1  UNL     1      61.088  -6.064  -0.395  1.00  0.00     0.015 C 
ENDBRANCH   1   9
TORSDOF 1
ENDMDL
MODEL 3
REMARK VINA RESULT: -4.302811271      1.600      1.784
REMARK  1 active torsions:
REMARK  status: ('A' for Active; 'I' for Inactive)
REMARK    1  A    between atoms: C2_2  and  C3_3 
ROOT
HETATM    1  C3  UNL     1      59.878  -3.298  -1.836  1.00  0.00     0.119 A 
HETATM    2  N1  UNL     1      59.601  -4.463  -2.453  1.00  0.00    -0.337 N 
ATOM      3  H1  UNL     1      60.108  -5.341  -2.350  1.00  0.00     0.168 HD
HETATM    4  C4  UNL     1      58.532  -4.245  -3.228  1.00  0.00     0.199 A 
HETATM    5  N2  UNL     1      58.135  -2.979  -3.111  1.00  0.00    -0.295 N 
ATOM      6  H2  UNL     1      57.346  -2.541  -3.588  1.00  0.00     0.187 HD
HETATM    7  N3  UNL     1      58.955  -2.405  -2.263  1.00  0.00    -0.285 N 
ATOM      8  H3  UNL     1      58.905  -1.430  -1.969  1.00  0.00     0.188 HD
ENDROOT
BRANCH   1   9
HETATM    9  C2  UNL     1      60.933  -2.992  -0.894  1.00  0.00     0.040 C 
HETATM   10  C1  UNL     1      61.281  -3.852   0.026  1.00  0.00     0.015 C 
ENDBRANCH   1   9
TORSDOF 1
ENDMDL
MODEL 4
REMARK VINA RESULT: -4.194375926      1.480      1.946
REMARK  1 active torsions:
REMARK  status: ('A' for Active; 'I' for Inactive)
REMARK    1  A    between atoms: C2_2  and  C3_3 
ROOT
HETATM    1  C3  UNL     1      59.791  -3.488  -1.867  1.00  0.00     0.119 A 
HETATM    2  N1  UNL     1      59.042  -2.699  -2.663  1.00  0.00    -0.337 N 
ATOM      3  H1  UNL     1      59.130  -1.690  -2.776  1.00  0.00     0.168 HD
HETATM    4  C4  UNL     1      58.159  -3.497  -3.275  1.00  0.00     0.199 A 
HETATM    5  N2  UNL     1      58.337  -4.758  -2.885  1.00  0.00    -0.295 N 
ATOM      6  H2  UNL     1      57.804  -5.571  -3.193  1.00  0.00     0.187 HD
HETATM    7  N3  UNL     1      59.330  -4.750  -2.030  1.00  0.00    -0.285 N 
ATOM      8  H3  UNL     1      59.701  -5.573  -1.555  1.00  0.00     0.188 HD
ENDROOT
BRANCH   1   9
HETATM    9  C2  UNL     1      60.884  -3.126  -0.991  1.00  0.00     0.040 C 
HETATM   10  C1  UNL     1      61.259  -3.920  -0.023  1.00  0.00     0.015 C 
ENDBRANCH   1   9
TORSDOF 1
ENDMDL
MODEL 5
REMARK VINA RESULT: -4.087879593      1.831      2.263
REMARK  1 active torsions:
REMARK  status: ('A' for Active; 'I' for Inactive)
REMARK    1  A    between atoms: C2_2  and  C3_3 
ROOT
HETATM    1  C3  UNL     1      59.161  -3.668  -2.475  1.00  0.00     0.119 A 
HETATM    2  N1  UNL     1      58.180  -2.749  -2.378  1.00  0.00    -0.337 N 
ATOM      3  H1  UNL     1      58.275  -1.791  -2.045  1.00  0.00     0.168 HD
HETATM    4  C4  UNL     1      57.057  -3.338  -2.805  1.00  0.00     0.199 A 
HETATM    5  N2  UNL     1      57.310  -4.595  -3.165  1.00  0.00    -0.295 N 
ATOM      6  H2  UNL     1      56.638  -5.273  -3.527  1.00  0.00     0.187 HD
HETATM    7  N3  UNL     1      58.591  -4.793  -2.964  1.00  0.00    -0.285 N 
ATOM      8  H3  UNL     1      59.084  -5.667  -3.148  1.00  0.00     0.188 HD
ENDROOT
BRANCH   1   9
HETATM    9  C2  UNL     1      60.564  -3.544  -2.141  1.00  0.00     0.040 C 
HETATM   10  C1  UNL     1      60.941  -2.972  -1.028  1.00  0.00     0.015 C 
ENDBRANCH   1   9
TORSDOF 1
ENDMDL
