MODEL 1
REMARK VINA RESULT: -8.432418495      0.000      0.000
REMARK  11 active torsions:
REMARK  status: ('A' for Active; 'I' for Inactive)
REMARK    1  A    between atoms: C2_2  and  C4_4 
REMARK    2  A    between atoms: N1_7  and  O1_9 
REMARK    3  A    between atoms: O1_9  and  C7_10 
REMARK    4  A    between atoms: C7_10  and  C8_11 
REMARK    5  A    between atoms: C8_11  and  C9_12 
REMARK    6  A    between atoms: C9_12  and  S1_13 
REMARK    7  A    between atoms: S1_13  and  C10_14 
REMARK    8  A    between atoms: C10_14  and  N4_21 
REMARK    9  A    between atoms: N2_15  and  N3_17 
REMARK   10  A    between atoms: N3_17  and  O2_19 
REMARK   11  A    between atoms: C17_30  and  O3_31 
ROOT
HETATM    1  C7  UNL     1      20.255 -13.129  20.314  1.00  0.00     0.202 C 
ENDROOT
BRANCH   1   2
HETATM    2  O1  UNL     1      21.171 -13.581  21.294  1.00  0.00    -0.279 OA
BRANCH   2   3
HETATM    3  N1  UNL     1      20.934 -14.533  22.200  1.00  0.00    -0.253 N 
HETATM    4  C6  UNL     1      21.318 -14.700  23.386  1.00  0.00     0.123 C 
HETATM    5  C5  UNL     1      20.912 -15.913  24.295  1.00  0.00     0.201 C 
HETATM    6  N6  UNL     1      21.990 -14.402  24.570  1.00  0.00    -0.334 N 
HETATM    7  C4  UNL     1      20.669 -14.608  25.170  1.00  0.00     0.117 C 
HETATM    8  S2  UNL     1      22.402 -16.733  24.693  1.00  0.00     0.161 S 
HETATM    9  C18 UNL     1      23.787 -15.737  25.066  1.00  0.00     0.194 C 
HETATM   10  O4  UNL     1      22.096 -17.682  25.859  1.00  0.00    -0.227 OA
HETATM   11  O5  UNL     1      22.837 -17.653  23.548  1.00  0.00    -0.227 OA
HETATM   12  C17 UNL     1      23.366 -14.224  24.875  1.00  0.00     0.235 C 
ATOM     13  H1  UNL     1      20.318 -15.273  21.862  1.00  0.00     0.195 HD
BRANCH   7  14
HETATM   14  C2  UNL     1      20.585 -14.884  26.612  1.00  0.00     0.002 C 
HETATM   15  C1  UNL     1      19.151 -15.310  26.941  1.00  0.00     0.011 C 
HETATM   16  C3  UNL     1      20.845 -13.604  27.362  1.00  0.00     0.011 C 
ENDBRANCH   7  14
BRANCH  12  17
HETATM   17  O3  UNL     1      24.175 -13.717  23.914  1.00  0.00    -0.376 OA
ATOM     18  H3  UNL     1      24.570 -12.866  24.063  1.00  0.00     0.212 HD
ENDBRANCH  12  17
ENDBRANCH   2   3
ENDBRANCH   1   2
BRANCH   1  19
HETATM   19  C8  UNL     1      19.092 -12.446  21.041  1.00  0.00     0.039 C 
BRANCH  19  20
HETATM   20  C9  UNL     1      17.829 -12.927  20.393  1.00  0.00     0.084 C 
BRANCH  20  21
HETATM   21  S1  UNL     1      16.337 -12.595  21.304  1.00  0.00    -0.093 SA
BRANCH  21  22
HETATM   22  C10 UNL     1      14.844 -12.680  20.374  1.00  0.00     0.158 C 
HETATM   23  N2  UNL     1      14.524 -11.671  19.597  1.00  0.00    -0.260 N 
ATOM     24  H2  UNL     1      15.152 -10.868  19.555  1.00  0.00     0.191 HD
BRANCH  23  25
HETATM   25  N3  UNL     1      13.365 -11.654  18.828  1.00  0.00    -0.208 N 
ATOM     26  H3  UNL     1      12.905 -12.537  18.605  1.00  0.00     0.215 HD
BRANCH  25  27
HETATM   27  O2  UNL     1      12.869 -10.583  18.402  1.00  0.00    -0.274 OA
ATOM     28  H2  UNL     1      12.669 -10.455  17.482  1.00  0.00     0.246 HD
ENDBRANCH  25  27
ENDBRANCH  23  25
BRANCH  22  29
HETATM   29  N4  UNL     1      13.916 -13.757  20.375  1.00  0.00    -0.357 N 
HETATM   30  C11 UNL     1      12.760 -13.784  21.206  1.00  0.00     0.153 C 
HETATM   31  C12 UNL     1      12.318 -15.105  21.708  1.00  0.00     0.256 C 
HETATM   32  N5  UNL     1      12.597 -16.211  20.830  1.00  0.00    -0.072 N 
HETATM   33  C13 UNL     1      12.565 -17.419  21.635  1.00  0.00     0.272 C 
HETATM   34  C14 UNL     1      11.596 -16.373  19.791  1.00  0.00     0.272 C 
HETATM   35  C15 UNL     1      13.899 -16.134  20.218  1.00  0.00     0.256 C 
HETATM   36  C16 UNL     1      14.160 -14.860  19.478  1.00  0.00     0.153 C 
ENDBRANCH  22  29
ENDBRANCH  21  22
ENDBRANCH  20  21
ENDBRANCH  19  20
ENDBRANCH   1  19
TORSDOF 11
ENDMDL
MODEL 2
REMARK VINA RESULT: -8.306094597      1.809      2.540
REMARK  11 active torsions:
REMARK  status: ('A' for Active; 'I' for Inactive)
REMARK    1  A    between atoms: C2_2  and  C4_4 
REMARK    2  A    between atoms: N1_7  and  O1_9 
REMARK    3  A    between atoms: O1_9  and  C7_10 
REMARK    4  A    between atoms: C7_10  and  C8_11 
REMARK    5  A    between atoms: C8_11  and  C9_12 
REMARK    6  A    between atoms: C9_12  and  S1_13 
REMARK    7  A    between atoms: S1_13  and  C10_14 
REMARK    8  A    between atoms: C10_14  and  N4_21 
REMARK    9  A    between atoms: N2_15  and  N3_17 
REMARK   10  A    between atoms: N3_17  and  O2_19 
REMARK   11  A    between atoms: C17_30  and  O3_31 
ROOT
HETATM    1  C7  UNL     1      20.541 -12.783  20.333  1.00  0.00     0.202 C 
ENDROOT
BRANCH   1   2
HETATM    2  O1  UNL     1      21.383 -13.300  21.346  1.00  0.00    -0.279 OA
BRANCH   2   3
HETATM    3  N1  UNL     1      21.061 -14.273  22.202  1.00  0.00    -0.253 N 
HETATM    4  C6  UNL     1      21.414 -14.524  23.383  1.00  0.00     0.123 C 
HETATM    5  C5  UNL     1      20.904 -15.743  24.229  1.00  0.00     0.201 C 
HETATM    6  N6  UNL     1      22.090 -14.334  24.587  1.00  0.00    -0.334 N 
HETATM    7  C4  UNL     1      20.749 -14.466  25.162  1.00  0.00     0.117 C 
HETATM    8  S2  UNL     1      22.322 -16.693  24.603  1.00  0.00     0.161 S 
HETATM    9  C18 UNL     1      23.773 -15.825  25.038  1.00  0.00     0.194 C 
HETATM   10  O4  UNL     1      21.928 -17.669  25.720  1.00  0.00    -0.227 OA
HETATM   11  O5  UNL     1      22.701 -17.589  23.421  1.00  0.00    -0.227 OA
HETATM   12  C17 UNL     1      23.470 -14.276  24.915  1.00  0.00     0.235 C 
ATOM     13  H1  UNL     1      20.395 -14.947  21.824  1.00  0.00     0.195 HD
BRANCH   7  14
HETATM   14  C2  UNL     1      20.623 -14.802  26.588  1.00  0.00     0.002 C 
HETATM   15  C1  UNL     1      19.182 -15.249  26.857  1.00  0.00     0.011 C 
HETATM   16  C3  UNL     1      20.852 -13.552  27.398  1.00  0.00     0.011 C 
ENDBRANCH   7  14
BRANCH  12  17
HETATM   17  O3  UNL     1      24.329 -13.789  23.989  1.00  0.00    -0.376 OA
ATOM     18  H3  UNL     1      25.072 -14.326  23.738  1.00  0.00     0.212 HD
ENDBRANCH  12  17
ENDBRANCH   2   3
ENDBRANCH   1   2
BRANCH   1  19
HETATM   19  C8  UNL     1      19.185 -12.463  20.969  1.00  0.00     0.039 C 
BRANCH  19  20
HETATM   20  C9  UNL     1      18.142 -13.157  20.147  1.00  0.00     0.084 C 
BRANCH  20  21
HETATM   21  S1  UNL     1      16.580 -13.409  20.962  1.00  0.00    -0.093 SA
BRANCH  21  22
HETATM   22  C10 UNL     1      15.201 -12.592  20.232  1.00  0.00     0.158 C 
HETATM   23  N2  UNL     1      15.107 -12.555  18.923  1.00  0.00    -0.260 N 
ATOM     24  H2  UNL     1      15.837 -13.001  18.368  1.00  0.00     0.191 HD
BRANCH  23  25
HETATM   25  N3  UNL     1      14.052 -11.931  18.264  1.00  0.00    -0.208 N 
ATOM     26  H3  UNL     1      13.189 -11.746  18.773  1.00  0.00     0.215 HD
BRANCH  25  27
HETATM   27  O2  UNL     1      14.135 -11.591  17.059  1.00  0.00    -0.274 OA
ATOM     28  H2  UNL     1      14.475 -12.178  16.394  1.00  0.00     0.246 HD
ENDBRANCH  25  27
ENDBRANCH  23  25
BRANCH  22  29
HETATM   29  N4  UNL     1      14.144 -11.946  20.930  1.00  0.00    -0.357 N 
HETATM   30  C11 UNL     1      14.241 -10.614  21.425  1.00  0.00     0.153 C 
HETATM   31  C12 UNL     1      13.526 -10.306  22.684  1.00  0.00     0.256 C 
HETATM   32  N5  UNL     1      12.322 -11.066  22.899  1.00  0.00    -0.072 N 
HETATM   33  C13 UNL     1      12.030 -11.018  24.321  1.00  0.00     0.272 C 
HETATM   34  C14 UNL     1      11.171 -10.504  22.216  1.00  0.00     0.272 C 
HETATM   35  C15 UNL     1      12.454 -12.453  22.531  1.00  0.00     0.256 C 
HETATM   36  C16 UNL     1      12.916 -12.679  21.127  1.00  0.00     0.153 C 
ENDBRANCH  22  29
ENDBRANCH  21  22
ENDBRANCH  20  21
ENDBRANCH  19  20
ENDBRANCH   1  19
TORSDOF 11
ENDMDL
MODEL 3
REMARK VINA RESULT: -8.140918442      2.063      3.087
REMARK  11 active torsions:
REMARK  status: ('A' for Active; 'I' for Inactive)
REMARK    1  A    between atoms: C2_2  and  C4_4 
REMARK    2  A    between atoms: N1_7  and  O1_9 
REMARK    3  A    between atoms: O1_9  and  C7_10 
REMARK    4  A    between atoms: C7_10  and  C8_11 
REMARK    5  A    between atoms: C8_11  and  C9_12 
REMARK    6  A    between atoms: C9_12  and  S1_13 
REMARK    7  A    between atoms: S1_13  and  C10_14 
REMARK    8  A    between atoms: C10_14  and  N4_21 
REMARK    9  A    between atoms: N2_15  and  N3_17 
REMARK   10  A    between atoms: N3_17  and  O2_19 
REMARK   11  A    between atoms: C17_30  and  O3_31 
ROOT
HETATM    1  C7  UNL     1      20.152 -12.876  20.439  1.00  0.00     0.202 C 
ENDROOT
BRANCH   1   2
HETATM    2  O1  UNL     1      21.107 -13.459  21.305  1.00  0.00    -0.279 OA
BRANCH   2   3
HETATM    3  N1  UNL     1      20.864 -14.428  22.191  1.00  0.00    -0.253 N 
HETATM    4  C6  UNL     1      21.259 -14.630  23.368  1.00  0.00     0.123 C 
HETATM    5  C5  UNL     1      20.843 -15.856  24.254  1.00  0.00     0.201 C 
HETATM    6  N6  UNL     1      21.952 -14.371  24.550  1.00  0.00    -0.334 N 
HETATM    7  C4  UNL     1      20.635 -14.568  25.162  1.00  0.00     0.117 C 
HETATM    8  S2  UNL     1      22.323 -16.712  24.613  1.00  0.00     0.161 S 
HETATM    9  C18 UNL     1      23.730 -15.750  24.992  1.00  0.00     0.194 C 
HETATM   10  O4  UNL     1      22.014 -17.682  25.761  1.00  0.00    -0.227 OA
HETATM   11  O5  UNL     1      22.726 -17.612  23.442  1.00  0.00    -0.227 OA
HETATM   12  C17 UNL     1      23.334 -14.225  24.841  1.00  0.00     0.235 C 
ATOM     13  H1  UNL     1      20.230 -15.149  21.845  1.00  0.00     0.195 HD
BRANCH   7  14
HETATM   14  C2  UNL     1      20.563 -14.877  26.598  1.00  0.00     0.002 C 
HETATM   15  C1  UNL     1      19.133 -15.314  26.930  1.00  0.00     0.011 C 
HETATM   16  C3  UNL     1      20.826 -13.612  27.374  1.00  0.00     0.011 C 
ENDBRANCH   7  14
BRANCH  12  17
HETATM   17  O3  UNL     1      24.140 -13.711  23.883  1.00  0.00    -0.376 OA
ATOM     18  H3  UNL     1      24.689 -12.968  24.108  1.00  0.00     0.212 HD
ENDBRANCH  12  17
ENDBRANCH   2   3
ENDBRANCH   1   2
BRANCH   1  19
HETATM   19  C8  UNL     1      18.918 -12.520  21.274  1.00  0.00     0.039 C 
BRANCH  19  20
HETATM   20  C9  UNL     1      17.733 -13.126  20.585  1.00  0.00     0.084 C 
BRANCH  20  21
HETATM   21  S1  UNL     1      17.275 -14.749  21.154  1.00  0.00    -0.093 SA
BRANCH  21  22
HETATM   22  C10 UNL     1      15.585 -14.945  21.612  1.00  0.00     0.158 C 
HETATM   23  N2  UNL     1      15.189 -16.103  22.086  1.00  0.00    -0.260 N 
ATOM     24  H2  UNL     1      15.873 -16.855  22.175  1.00  0.00     0.191 HD
BRANCH  23  25
HETATM   25  N3  UNL     1      13.875 -16.345  22.473  1.00  0.00    -0.208 N 
ATOM     26  H3  UNL     1      13.128 -15.772  22.080  1.00  0.00     0.215 HD
BRANCH  25  27
HETATM   27  O2  UNL     1      13.582 -17.251  23.291  1.00  0.00    -0.274 OA
ATOM     28  H2  UNL     1      13.613 -18.170  23.053  1.00  0.00     0.246 HD
ENDBRANCH  25  27
ENDBRANCH  23  25
BRANCH  22  29
HETATM   29  N4  UNL     1      14.572 -13.952  21.519  1.00  0.00    -0.357 N 
HETATM   30  C11 UNL     1      13.631 -13.902  20.451  1.00  0.00     0.153 C 
HETATM   31  C12 UNL     1      13.172 -12.564  20.016  1.00  0.00     0.256 C 
HETATM   32  N5  UNL     1      13.132 -11.569  21.056  1.00  0.00    -0.072 N 
HETATM   33  C13 UNL     1      13.149 -10.269  20.410  1.00  0.00     0.272 C 
HETATM   34  C14 UNL     1      11.914 -11.629  21.845  1.00  0.00     0.272 C 
HETATM   35  C15 UNL     1      14.267 -11.628  21.941  1.00  0.00     0.256 C 
HETATM   36  C16 UNL     1      14.492 -12.967  22.570  1.00  0.00     0.153 C 
ENDBRANCH  22  29
ENDBRANCH  21  22
ENDBRANCH  20  21
ENDBRANCH  19  20
ENDBRANCH   1  19
TORSDOF 11
ENDMDL
MODEL 4
REMARK VINA RESULT: -8.064261512      2.181      3.148
REMARK  11 active torsions:
REMARK  status: ('A' for Active; 'I' for Inactive)
REMARK    1  A    between atoms: C2_2  and  C4_4 
REMARK    2  A    between atoms: N1_7  and  O1_9 
REMARK    3  A    between atoms: O1_9  and  C7_10 
REMARK    4  A    between atoms: C7_10  and  C8_11 
REMARK    5  A    between atoms: C8_11  and  C9_12 
REMARK    6  A    between atoms: C9_12  and  S1_13 
REMARK    7  A    between atoms: S1_13  and  C10_14 
REMARK    8  A    between atoms: C10_14  and  N4_21 
REMARK    9  A    between atoms: N2_15  and  N3_17 
REMARK   10  A    between atoms: N3_17  and  O2_19 
REMARK   11  A    between atoms: C17_30  and  O3_31 
ROOT
HETATM    1  C7  UNL     1      20.296 -12.450  20.798  1.00  0.00     0.202 C 
ENDROOT
BRANCH   1   2
HETATM    2  O1  UNL     1      21.209 -13.425  21.267  1.00  0.00    -0.279 OA
BRANCH   2   3
HETATM    3  N1  UNL     1      20.929 -14.397  22.140  1.00  0.00    -0.253 N 
HETATM    4  C6  UNL     1      21.291 -14.613  23.325  1.00  0.00     0.123 C 
HETATM    5  C5  UNL     1      20.834 -15.839  24.190  1.00  0.00     0.201 C 
HETATM    6  N6  UNL     1      21.957 -14.373  24.526  1.00  0.00    -0.334 N 
HETATM    7  C4  UNL     1      20.622 -14.554  25.102  1.00  0.00     0.117 C 
HETATM    8  S2  UNL     1      22.291 -16.719  24.581  1.00  0.00     0.161 S 
HETATM    9  C18 UNL     1      23.703 -15.782  25.002  1.00  0.00     0.194 C 
HETATM   10  O4  UNL     1      21.939 -17.693  25.713  1.00  0.00    -0.227 OA
HETATM   11  O5  UNL     1      22.711 -17.618  23.414  1.00  0.00    -0.227 OA
HETATM   12  C17 UNL     1      23.333 -14.250  24.853  1.00  0.00     0.235 C 
ATOM     13  H1  UNL     1      20.294 -15.105  21.772  1.00  0.00     0.195 HD
BRANCH   7  14
HETATM   14  C2  UNL     1      20.509 -14.872  26.534  1.00  0.00     0.002 C 
HETATM   15  C1  UNL     1      19.057 -15.256  26.833  1.00  0.00     0.011 C 
HETATM   16  C3  UNL     1      20.805 -13.625  27.327  1.00  0.00     0.011 C 
ENDBRANCH   7  14
BRANCH  12  17
HETATM   17  O3  UNL     1      24.171 -13.741  23.919  1.00  0.00    -0.376 OA
ATOM     18  H3  UNL     1      24.979 -13.336  24.213  1.00  0.00     0.212 HD
ENDBRANCH  12  17
ENDBRANCH   2   3
ENDBRANCH   1   2
BRANCH   1  19
HETATM   19  C8  UNL     1      19.048 -13.182  20.296  1.00  0.00     0.039 C 
BRANCH  19  20
HETATM   20  C9  UNL     1      17.864 -12.501  20.913  1.00  0.00     0.084 C 
BRANCH  20  21
HETATM   21  S1  UNL     1      16.314 -13.353  20.717  1.00  0.00    -0.093 SA
BRANCH  21  22
HETATM   22  C10 UNL     1      15.327 -12.832  19.355  1.00  0.00     0.158 C 
HETATM   23  N2  UNL     1      14.291 -12.059  19.583  1.00  0.00    -0.260 N 
ATOM     24  H2  UNL     1      14.088 -11.783  20.545  1.00  0.00     0.191 HD
BRANCH  23  25
HETATM   25  N3  UNL     1      13.458 -11.601  18.567  1.00  0.00    -0.208 N 
ATOM     26  H3  UNL     1      13.299 -12.192  17.752  1.00  0.00     0.215 HD
BRANCH  25  27
HETATM   27  O2  UNL     1      12.897 -10.480  18.627  1.00  0.00    -0.274 OA
ATOM     28  H2  UNL     1      13.302  -9.739  19.063  1.00  0.00     0.246 HD
ENDBRANCH  25  27
ENDBRANCH  23  25
BRANCH  22  29
HETATM   29  N4  UNL     1      15.538 -13.169  17.990  1.00  0.00    -0.357 N 
HETATM   30  C11 UNL     1      14.980 -14.331  17.383  1.00  0.00     0.153 C 
HETATM   31  C12 UNL     1      15.779 -14.992  16.327  1.00  0.00     0.256 C 
HETATM   32  N5  UNL     1      16.612 -14.108  15.554  1.00  0.00    -0.072 N 
HETATM   33  C13 UNL     1      17.647 -14.919  14.938  1.00  0.00     0.272 C 
HETATM   34  C14 UNL     1      15.893 -13.456  14.474  1.00  0.00     0.272 C 
HETATM   35  C15 UNL     1      17.267 -13.104  16.353  1.00  0.00     0.256 C 
HETATM   36  C16 UNL     1      16.342 -12.278  17.189  1.00  0.00     0.153 C 
ENDBRANCH  22  29
ENDBRANCH  21  22
ENDBRANCH  20  21
ENDBRANCH  19  20
ENDBRANCH   1  19
TORSDOF 11
ENDMDL
MODEL 5
REMARK VINA RESULT: -8.016530426      2.553      3.407
REMARK  11 active torsions:
REMARK  status: ('A' for Active; 'I' for Inactive)
REMARK    1  A    between atoms: C2_2  and  C4_4 
REMARK    2  A    between atoms: N1_7  and  O1_9 
REMARK    3  A    between atoms: O1_9  and  C7_10 
REMARK    4  A    between atoms: C7_10  and  C8_11 
REMARK    5  A    between atoms: C8_11  and  C9_12 
REMARK    6  A    between atoms: C9_12  and  S1_13 
REMARK    7  A    between atoms: S1_13  and  C10_14 
REMARK    8  A    between atoms: C10_14  and  N4_21 
REMARK    9  A    between atoms: N2_15  and  N3_17 
REMARK   10  A    between atoms: N3_17  and  O2_19 
REMARK   11  A    between atoms: C17_30  and  O3_31 
ROOT
HETATM    1  C7  UNL     1      20.361 -12.791  20.420  1.00  0.00     0.202 C 
ENDROOT
BRANCH   1   2
HETATM    2  O1  UNL     1      21.269 -13.367  21.340  1.00  0.00    -0.279 OA
BRANCH   2   3
HETATM    3  N1  UNL     1      20.985 -14.342  22.207  1.00  0.00    -0.253 N 
HETATM    4  C6  UNL     1      21.353 -14.570  23.388  1.00  0.00     0.123 C 
HETATM    5  C5  UNL     1      20.889 -15.797  24.248  1.00  0.00     0.201 C 
HETATM    6  N6  UNL     1      22.030 -14.346  24.586  1.00  0.00    -0.334 N 
HETATM    7  C4  UNL     1      20.697 -14.517  25.171  1.00  0.00     0.117 C 
HETATM    8  S2  UNL     1      22.339 -16.696  24.622  1.00  0.00     0.161 S 
HETATM    9  C18 UNL     1      23.764 -15.777  25.039  1.00  0.00     0.194 C 
HETATM   10  O4  UNL     1      21.984 -17.674  25.750  1.00  0.00    -0.227 OA
HETATM   11  O5  UNL     1      22.741 -17.590  23.445  1.00  0.00    -0.227 OA
HETATM   12  C17 UNL     1      23.410 -14.240  24.904  1.00  0.00     0.235 C 
ATOM     13  H1  UNL     1      20.339 -15.040  21.839  1.00  0.00     0.195 HD
BRANCH   7  14
HETATM   14  C2  UNL     1      20.591 -14.844  26.600  1.00  0.00     0.002 C 
HETATM   15  C1  UNL     1      19.153 -15.286  26.892  1.00  0.00     0.011 C 
HETATM   16  C3  UNL     1      20.834 -13.589  27.399  1.00  0.00     0.011 C 
ENDBRANCH   7  14
BRANCH  12  17
HETATM   17  O3  UNL     1      24.246 -13.733  23.968  1.00  0.00    -0.376 OA
ATOM     18  H3  UNL     1      25.153 -14.017  23.975  1.00  0.00     0.212 HD
ENDBRANCH  12  17
ENDBRANCH   2   3
ENDBRANCH   1   2
BRANCH   1  19
HETATM   19  C8  UNL     1      19.051 -12.516  21.166  1.00  0.00     0.039 C 
BRANCH  19  20
HETATM   20  C9  UNL     1      17.957 -13.184  20.389  1.00  0.00     0.084 C 
BRANCH  20  21
HETATM   21  S1  UNL     1      16.357 -13.169  21.169  1.00  0.00    -0.093 SA
BRANCH  21  22
HETATM   22  C10 UNL     1      15.786 -14.725  21.764  1.00  0.00     0.158 C 
HETATM   23  N2  UNL     1      14.517 -14.857  22.071  1.00  0.00    -0.260 N 
ATOM     24  H2  UNL     1      13.899 -14.053  21.956  1.00  0.00     0.191 HD
BRANCH  23  25
HETATM   25  N3  UNL     1      13.981 -16.049  22.547  1.00  0.00    -0.208 N 
ATOM     26  H3  UNL     1      14.535 -16.903  22.484  1.00  0.00     0.215 HD
BRANCH  25  27
HETATM   27  O2  UNL     1      12.833 -16.103  23.053  1.00  0.00    -0.274 OA
ATOM     28  H2  UNL     1      12.059 -16.253  22.524  1.00  0.00     0.246 HD
ENDBRANCH  25  27
ENDBRANCH  23  25
BRANCH  22  29
HETATM   29  N4  UNL     1      16.577 -15.891  21.954  1.00  0.00    -0.357 N 
HETATM   30  C11 UNL     1      16.545 -17.003  21.064  1.00  0.00     0.153 C 
HETATM   31  C12 UNL     1      16.741 -18.346  21.654  1.00  0.00     0.256 C 
HETATM   32  N5  UNL     1      17.591 -18.380  22.816  1.00  0.00    -0.072 N 
HETATM   33  C13 UNL     1      17.294 -19.608  23.531  1.00  0.00     0.272 C 
HETATM   34  C14 UNL     1      19.003 -18.422  22.480  1.00  0.00     0.272 C 
HETATM   35  C15 UNL     1      17.357 -17.284  23.721  1.00  0.00     0.256 C 
HETATM   36  C16 UNL     1      17.461 -15.930  23.093  1.00  0.00     0.153 C 
ENDBRANCH  22  29
ENDBRANCH  21  22
ENDBRANCH  20  21
ENDBRANCH  19  20
ENDBRANCH   1  19
TORSDOF 11
ENDMDL
