MODEL 1
REMARK VINA RESULT: -6.944139544      0.000      0.000
REMARK  9 active torsions:
REMARK  status: ('A' for Active; 'I' for Inactive)
REMARK    1  A    between atoms: C3_3  and  C4_4 
REMARK    2  A    between atoms: C7_10  and  C8_11 
REMARK    3  A    between atoms: C9_14  and  C10_15 
REMARK    4  A    between atoms: C11_16  and  N2_17 
REMARK    5  A    between atoms: C12_20  and  N3_21 
REMARK       I    between atoms: N3_21  and  C13_23 
REMARK    6  A    between atoms: C13_23  and  C14_25 
REMARK    7  A    between atoms: C14_25  and  N4_27 
REMARK    8  A    between atoms: N4_27  and  C16_28 
REMARK    9  A    between atoms: N4_27  and  C17_30 
ROOT
HETATM    1  C1  UNL     1      16.130 -20.468  23.203  1.00  0.00     0.112 C 
HETATM    2  C2  UNL     1      16.223 -19.331  22.286  1.00  0.00    -0.111 C 
HETATM    3  C3  UNL     1      16.280 -18.389  21.536  1.00  0.00    -0.098 C 
ENDROOT
BRANCH   3   4
HETATM    4  C4  UNL     1      16.327 -17.213  20.614  1.00  0.00     0.114 C 
HETATM    5  C5  UNL     1      15.467 -17.637  19.411  1.00  0.00     0.168 C 
HETATM    6  S1  UNL     1      15.391 -19.425  19.283  1.00  0.00    -0.081 SA
HETATM    7  C6  UNL     1      14.118 -17.064  19.785  1.00  0.00     0.241 C 
HETATM    8  O1  UNL     1      13.026 -17.537  19.442  1.00  0.00    -0.272 OA
HETATM    9  N1  UNL     1      14.347 -15.931  20.568  1.00  0.00    -0.302 N 
HETATM   10  C7  UNL     1      13.894 -14.661  21.008  1.00  0.00     0.123 C 
HETATM   11  C21 UNL     1      15.667 -16.058  21.260  1.00  0.00     0.138 C 
HETATM   12  C9  UNL     1      14.983 -13.861  21.176  1.00  0.00     0.002 C 
HETATM   13  C12 UNL     1      16.148 -14.678  20.786  1.00  0.00     0.145 C 
BRANCH  10  14
HETATM   14  C8  UNL     1      12.497 -14.335  21.204  1.00  0.00     0.227 C 
HETATM   15  O2  UNL     1      11.681 -14.513  20.227  1.00  0.00    -0.643 OA
HETATM   16  O3  UNL     1      11.916 -13.846  22.338  1.00  0.00    -0.643 OA
ENDBRANCH  10  14
BRANCH  12  17
HETATM   17  C10 UNL     1      14.891 -12.479  21.627  1.00  0.00     0.035 C 
HETATM   18  C11 UNL     1      14.267 -11.504  21.025  1.00  0.00     0.168 C 
BRANCH  18  19
HETATM   19  N2  UNL     1      14.252 -10.179  21.579  1.00  0.00    -0.127 N 
HETATM   20  O4  UNL     1      14.640  -9.169  20.974  1.00  0.00    -0.532 OA
HETATM   21  O5  UNL     1      13.777 -10.034  22.854  1.00  0.00    -0.532 OA
ENDBRANCH  18  19
ENDBRANCH  12  17
BRANCH  13  22
HETATM   22  N3  UNL     1      17.431 -14.308  21.201  1.00  0.00    -0.348 N 
HETATM   23  C13 UNL     1      17.974 -14.212  22.488  1.00  0.00     0.240 C 
HETATM   24  O6  UNL     1      17.308 -14.460  23.512  1.00  0.00    -0.271 OA
ATOM     25  H3  UNL     1      18.074 -14.069  20.446  1.00  0.00     0.163 HD
BRANCH  23  26
HETATM   26  C14 UNL     1      19.429 -13.790  22.696  1.00  0.00     0.175 C 
HETATM   27  C15 UNL     1      19.896 -13.222  21.425  1.00  0.00     0.042 C 
BRANCH  26  28
HETATM   28  N4  UNL     1      20.117 -14.870  23.285  1.00  0.00    -0.338 N 
BRANCH  28  29
HETATM   29  C16 UNL     1      20.049 -16.137  22.580  1.00  0.00     0.352 C 
HETATM   30  O7  UNL     1      21.002 -16.536  21.855  1.00  0.00    -0.283 OA
ENDBRANCH  28  29
BRANCH  28  31
HETATM   31  C17 UNL     1      20.879 -14.882  24.520  1.00  0.00     0.025 C 
HETATM   32  C18 UNL     1      20.272 -13.818  25.461  1.00  0.00     0.037 C 
HETATM   33  C19 UNL     1      20.770 -16.198  25.262  1.00  0.00     0.037 C 
HETATM   34  C20 UNL     1      22.313 -14.460  24.374  1.00  0.00     0.037 C 
ENDBRANCH  28  31
ENDBRANCH  26  28
ENDBRANCH  23  26
ENDBRANCH  13  22
ENDBRANCH   3   4
TORSDOF 9
ENDMDL
MODEL 2
REMARK VINA RESULT: -6.912431018      2.136      2.805
REMARK  9 active torsions:
REMARK  status: ('A' for Active; 'I' for Inactive)
REMARK    1  A    between atoms: C3_3  and  C4_4 
REMARK    2  A    between atoms: C7_10  and  C8_11 
REMARK    3  A    between atoms: C9_14  and  C10_15 
REMARK    4  A    between atoms: C11_16  and  N2_17 
REMARK    5  A    between atoms: C12_20  and  N3_21 
REMARK       I    between atoms: N3_21  and  C13_23 
REMARK    6  A    between atoms: C13_23  and  C14_25 
REMARK    7  A    between atoms: C14_25  and  N4_27 
REMARK    8  A    between atoms: N4_27  and  C16_28 
REMARK    9  A    between atoms: N4_27  and  C17_30 
ROOT
HETATM    1  C1  UNL     1      17.348 -19.828  27.196  1.00  0.00     0.112 C 
HETATM    2  C2  UNL     1      17.465 -19.405  25.800  1.00  0.00    -0.111 C 
HETATM    3  C3  UNL     1      17.574 -19.042  24.655  1.00  0.00    -0.098 C 
ENDROOT
BRANCH   3   4
HETATM    4  C4  UNL     1      17.730 -18.576  23.243  1.00  0.00     0.114 C 
HETATM    5  C5  UNL     1      17.149 -19.722  22.396  1.00  0.00     0.168 C 
HETATM    6  S1  UNL     1      17.210 -21.271  23.299  1.00  0.00    -0.081 SA
HETATM    7  C6  UNL     1      15.721 -19.265  22.203  1.00  0.00     0.241 C 
HETATM    8  O1  UNL     1      14.749 -20.017  22.053  1.00  0.00    -0.272 OA
HETATM    9  N1  UNL     1      15.723 -17.869  22.224  1.00  0.00    -0.302 N 
HETATM   10  C7  UNL     1      15.115 -16.659  21.802  1.00  0.00     0.123 C 
HETATM   11  C21 UNL     1      16.887 -17.380  23.027  1.00  0.00     0.138 C 
HETATM   12  C9  UNL     1      16.099 -15.734  21.622  1.00  0.00     0.002 C 
HETATM   13  C12 UNL     1      17.366 -16.431  21.919  1.00  0.00     0.145 C 
BRANCH  10  14
HETATM   14  C8  UNL     1      13.690 -16.508  21.598  1.00  0.00     0.227 C 
HETATM   15  O2  UNL     1      12.897 -16.791  22.570  1.00  0.00    -0.643 OA
HETATM   16  O3  UNL     1      13.059 -16.089  20.463  1.00  0.00    -0.643 OA
ENDBRANCH  10  14
BRANCH  12  17
HETATM   17  C10 UNL     1      15.836 -14.368  21.191  1.00  0.00     0.035 C 
HETATM   18  C11 UNL     1      15.558 -13.350  21.958  1.00  0.00     0.168 C 
BRANCH  18  19
HETATM   19  N2  UNL     1      15.318 -12.047  21.404  1.00  0.00    -0.127 N 
HETATM   20  O4  UNL     1      14.473 -11.251  21.839  1.00  0.00    -0.532 OA
HETATM   21  O5  UNL     1      16.076 -11.670  20.328  1.00  0.00    -0.532 OA
ENDBRANCH  18  19
ENDBRANCH  12  17
BRANCH  13  22
HETATM   22  N3  UNL     1      18.518 -15.692  22.209  1.00  0.00    -0.348 N 
HETATM   23  C13 UNL     1      18.817 -14.877  23.307  1.00  0.00     0.240 C 
HETATM   24  O6  UNL     1      18.009 -14.688  24.237  1.00  0.00    -0.271 OA
ATOM     25  H3  UNL     1      19.257 -15.759  21.510  1.00  0.00     0.163 HD
BRANCH  23  26
HETATM   26  C14 UNL     1      20.169 -14.169  23.411  1.00  0.00     0.175 C 
HETATM   27  C15 UNL     1      20.599 -13.862  22.042  1.00  0.00     0.042 C 
BRANCH  26  28
HETATM   28  N4  UNL     1      20.996 -14.932  24.261  1.00  0.00    -0.338 N 
BRANCH  28  29
HETATM   29  C16 UNL     1      21.006 -16.365  24.030  1.00  0.00     0.352 C 
HETATM   30  O7  UNL     1      21.482 -16.854  22.968  1.00  0.00    -0.283 OA
ENDBRANCH  28  29
BRANCH  28  31
HETATM   31  C17 UNL     1      21.834 -14.468  25.351  1.00  0.00     0.025 C 
HETATM   32  C18 UNL     1      22.211 -15.693  26.214  1.00  0.00     0.037 C 
HETATM   33  C19 UNL     1      23.147 -13.883  24.871  1.00  0.00     0.037 C 
HETATM   34  C20 UNL     1      21.150 -13.542  26.315  1.00  0.00     0.037 C 
ENDBRANCH  28  31
ENDBRANCH  26  28
ENDBRANCH  23  26
ENDBRANCH  13  22
ENDBRANCH   3   4
TORSDOF 9
ENDMDL
MODEL 3
REMARK VINA RESULT: -6.879910849      2.905      6.805
REMARK  9 active torsions:
REMARK  status: ('A' for Active; 'I' for Inactive)
REMARK    1  A    between atoms: C3_3  and  C4_4 
REMARK    2  A    between atoms: C7_10  and  C8_11 
REMARK    3  A    between atoms: C9_14  and  C10_15 
REMARK    4  A    between atoms: C11_16  and  N2_17 
REMARK    5  A    between atoms: C12_20  and  N3_21 
REMARK       I    between atoms: N3_21  and  C13_23 
REMARK    6  A    between atoms: C13_23  and  C14_25 
REMARK    7  A    between atoms: C14_25  and  N4_27 
REMARK    8  A    between atoms: N4_27  and  C16_28 
REMARK    9  A    between atoms: N4_27  and  C17_30 
ROOT
HETATM    1  C1  UNL     1      21.118 -19.631  23.439  1.00  0.00     0.112 C 
HETATM    2  C2  UNL     1      20.555 -18.290  23.597  1.00  0.00    -0.111 C 
HETATM    3  C3  UNL     1      20.079 -17.191  23.743  1.00  0.00    -0.098 C 
ENDROOT
BRANCH   3   4
HETATM    4  C4  UNL     1      19.476 -15.838  23.945  1.00  0.00     0.114 C 
HETATM    5  C5  UNL     1      20.589 -15.022  24.625  1.00  0.00     0.168 C 
HETATM    6  S1  UNL     1      21.742 -16.104  25.474  1.00  0.00    -0.081 SA
HETATM    7  C6  UNL     1      21.247 -14.356  23.438  1.00  0.00     0.241 C 
HETATM    8  O1  UNL     1      22.440 -14.030  23.377  1.00  0.00    -0.272 OA
HETATM    9  N1  UNL     1      20.267 -14.187  22.457  1.00  0.00    -0.302 N 
HETATM   10  C7  UNL     1      19.794 -13.444  21.346  1.00  0.00     0.123 C 
HETATM   11  C21 UNL     1      19.202 -15.223  22.629  1.00  0.00     0.138 C 
HETATM   12  C9  UNL     1      18.432 -13.439  21.393  1.00  0.00     0.002 C 
HETATM   13  C12 UNL     1      18.068 -14.187  22.611  1.00  0.00     0.145 C 
BRANCH  10  14
HETATM   14  C8  UNL     1      20.664 -12.811  20.378  1.00  0.00     0.227 C 
HETATM   15  O2  UNL     1      21.667 -12.130  20.806  1.00  0.00    -0.643 OA
HETATM   16  O3  UNL     1      20.551 -12.848  19.019  1.00  0.00    -0.643 OA
ENDBRANCH  10  14
BRANCH  12  17
HETATM   17  C10 UNL     1      17.606 -12.768  20.399  1.00  0.00     0.035 C 
HETATM   18  C11 UNL     1      17.091 -13.303  19.326  1.00  0.00     0.168 C 
BRANCH  18  19
HETATM   19  N2  UNL     1      16.290 -12.527  18.421  1.00  0.00    -0.127 N 
HETATM   20  O4  UNL     1      16.716 -12.025  17.371  1.00  0.00    -0.532 OA
HETATM   21  O5  UNL     1      14.975 -12.339  18.748  1.00  0.00    -0.532 OA
ENDBRANCH  18  19
ENDBRANCH  12  17
BRANCH  13  22
HETATM   22  N3  UNL     1      16.775 -14.701  22.755  1.00  0.00    -0.348 N 
HETATM   23  C13 UNL     1      16.118 -15.711  22.043  1.00  0.00     0.240 C 
HETATM   24  O6  UNL     1      16.660 -16.321  21.099  1.00  0.00    -0.271 OA
ATOM     25  H3  UNL     1      16.223 -14.271  23.497  1.00  0.00     0.163 HD
BRANCH  23  26
HETATM   26  C14 UNL     1      14.685 -16.114  22.395  1.00  0.00     0.175 C 
HETATM   27  C15 UNL     1      14.661 -17.579  22.481  1.00  0.00     0.042 C 
BRANCH  26  28
HETATM   28  N4  UNL     1      13.815 -15.441  21.513  1.00  0.00    -0.338 N 
BRANCH  28  29
HETATM   29  C16 UNL     1      13.794 -13.994  21.611  1.00  0.00     0.352 C 
HETATM   30  O7  UNL     1      13.947 -13.409  22.719  1.00  0.00    -0.283 OA
ENDBRANCH  28  29
BRANCH  28  31
HETATM   31  C17 UNL     1      12.922 -16.014  20.523  1.00  0.00     0.025 C 
HETATM   32  C18 UNL     1      11.976 -14.895  20.034  1.00  0.00     0.037 C 
HETATM   33  C19 UNL     1      13.653 -16.504  19.290  1.00  0.00     0.037 C 
HETATM   34  C20 UNL     1      11.992 -17.067  21.055  1.00  0.00     0.037 C 
ENDBRANCH  28  31
ENDBRANCH  26  28
ENDBRANCH  23  26
ENDBRANCH  13  22
ENDBRANCH   3   4
TORSDOF 9
ENDMDL
MODEL 4
REMARK VINA RESULT: -6.872631963      2.632      5.150
REMARK  9 active torsions:
REMARK  status: ('A' for Active; 'I' for Inactive)
REMARK    1  A    between atoms: C3_3  and  C4_4 
REMARK    2  A    between atoms: C7_10  and  C8_11 
REMARK    3  A    between atoms: C9_14  and  C10_15 
REMARK    4  A    between atoms: C11_16  and  N2_17 
REMARK    5  A    between atoms: C12_20  and  N3_21 
REMARK       I    between atoms: N3_21  and  C13_23 
REMARK    6  A    between atoms: C13_23  and  C14_25 
REMARK    7  A    between atoms: C14_25  and  N4_27 
REMARK    8  A    between atoms: N4_27  and  C16_28 
REMARK    9  A    between atoms: N4_27  and  C17_30 
ROOT
HETATM    1  C1  UNL     1      15.653 -12.622  16.464  1.00  0.00     0.112 C 
HETATM    2  C2  UNL     1      15.669 -12.843  17.911  1.00  0.00    -0.111 C 
HETATM    3  C3  UNL     1      15.702 -13.031  19.101  1.00  0.00    -0.098 C 
ENDROOT
BRANCH   3   4
HETATM    4  C4  UNL     1      15.769 -13.269  20.576  1.00  0.00     0.114 C 
HETATM    5  C5  UNL     1      14.355 -12.929  21.082  1.00  0.00     0.168 C 
HETATM    6  S1  UNL     1      13.531 -11.805  19.952  1.00  0.00    -0.081 SA
HETATM    7  C6  UNL     1      13.693 -14.288  21.071  1.00  0.00     0.241 C 
HETATM    8  O1  UNL     1      12.483 -14.487  20.896  1.00  0.00    -0.272 OA
HETATM    9  N1  UNL     1      14.689 -15.241  21.294  1.00  0.00    -0.302 N 
HETATM   10  C7  UNL     1      15.039 -16.521  21.794  1.00  0.00     0.123 C 
HETATM   11  C21 UNL     1      16.007 -14.706  20.829  1.00  0.00     0.138 C 
HETATM   12  C9  UNL     1      16.293 -16.438  22.319  1.00  0.00     0.002 C 
HETATM   13  C12 UNL     1      16.707 -15.031  22.157  1.00  0.00     0.145 C 
BRANCH  10  14
HETATM   14  C8  UNL     1      14.158 -17.668  21.741  1.00  0.00     0.227 C 
HETATM   15  O2  UNL     1      13.156 -17.711  22.545  1.00  0.00    -0.643 OA
HETATM   16  O3  UNL     1      14.261 -18.749  20.915  1.00  0.00    -0.643 OA
ENDBRANCH  10  14
BRANCH  12  17
HETATM   17  C10 UNL     1      16.978 -17.574  22.922  1.00  0.00     0.035 C 
HETATM   18  C11 UNL     1      17.277 -17.722  24.183  1.00  0.00     0.168 C 
BRANCH  18  19
HETATM   19  N2  UNL     1      17.958 -18.897  24.651  1.00  0.00    -0.127 N 
HETATM   20  O4  UNL     1      17.698 -19.472  25.718  1.00  0.00    -0.532 OA
HETATM   21  O5  UNL     1      18.954 -19.405  23.862  1.00  0.00    -0.532 OA
ENDBRANCH  18  19
ENDBRANCH  12  17
BRANCH  13  22
HETATM   22  N3  UNL     1      18.061 -14.689  22.228  1.00  0.00    -0.348 N 
HETATM   23  C13 UNL     1      18.863 -14.392  23.337  1.00  0.00     0.240 C 
HETATM   24  O6  UNL     1      18.415 -14.389  24.501  1.00  0.00    -0.271 OA
ATOM     25  H3  UNL     1      18.541 -14.648  21.330  1.00  0.00     0.163 HD
BRANCH  23  26
HETATM   26  C14 UNL     1      20.344 -14.050  23.166  1.00  0.00     0.175 C 
HETATM   27  C15 UNL     1      20.595 -13.947  21.723  1.00  0.00     0.042 C 
BRANCH  26  28
HETATM   28  N4  UNL     1      21.092 -14.948  23.954  1.00  0.00    -0.338 N 
BRANCH  28  29
HETATM   29  C16 UNL     1      20.874 -16.361  23.702  1.00  0.00     0.352 C 
HETATM   30  O7  UNL     1      21.406 -16.940  22.715  1.00  0.00    -0.283 OA
ENDBRANCH  28  29
BRANCH  28  31
HETATM   31  C17 UNL     1      22.050 -14.640  24.999  1.00  0.00     0.025 C 
HETATM   32  C18 UNL     1      21.407 -13.595  25.938  1.00  0.00     0.037 C 
HETATM   33  C19 UNL     1      22.369 -15.836  25.872  1.00  0.00     0.037 C 
HETATM   34  C20 UNL     1      23.306 -13.970  24.519  1.00  0.00     0.037 C 
ENDBRANCH  28  31
ENDBRANCH  26  28
ENDBRANCH  23  26
ENDBRANCH  13  22
ENDBRANCH   3   4
TORSDOF 9
ENDMDL
MODEL 5
REMARK VINA RESULT: -6.846838638      2.776      5.137
REMARK  9 active torsions:
REMARK  status: ('A' for Active; 'I' for Inactive)
REMARK    1  A    between atoms: C3_3  and  C4_4 
REMARK    2  A    between atoms: C7_10  and  C8_11 
REMARK    3  A    between atoms: C9_14  and  C10_15 
REMARK    4  A    between atoms: C11_16  and  N2_17 
REMARK    5  A    between atoms: C12_20  and  N3_21 
REMARK       I    between atoms: N3_21  and  C13_23 
REMARK    6  A    between atoms: C13_23  and  C14_25 
REMARK    7  A    between atoms: C14_25  and  N4_27 
REMARK    8  A    between atoms: N4_27  and  C16_28 
REMARK    9  A    between atoms: N4_27  and  C17_30 
ROOT
HETATM    1  C1  UNL     1      15.871 -14.627  16.428  1.00  0.00     0.112 C 
HETATM    2  C2  UNL     1      15.852 -14.526  17.888  1.00  0.00    -0.111 C 
HETATM    3  C3  UNL     1      15.852 -14.456  19.091  1.00  0.00    -0.098 C 
ENDROOT
BRANCH   3   4
HETATM    4  C4  UNL     1      15.872 -14.385  20.585  1.00  0.00     0.114 C 
HETATM    5  C5  UNL     1      14.413 -14.085  20.972  1.00  0.00     0.168 C 
HETATM    6  S1  UNL     1      13.546 -13.295  19.615  1.00  0.00    -0.081 SA
HETATM    7  C6  UNL     1      13.873 -15.475  21.223  1.00  0.00     0.241 C 
HETATM    8  O1  UNL     1      12.694 -15.819  21.060  1.00  0.00    -0.272 OA
HETATM    9  N1  UNL     1      14.937 -16.265  21.662  1.00  0.00    -0.302 N 
HETATM   10  C7  UNL     1      15.375 -17.379  22.422  1.00  0.00     0.123 C 
HETATM   11  C21 UNL     1      16.223 -15.713  21.133  1.00  0.00     0.138 C 
HETATM   12  C9  UNL     1      16.592 -17.074  22.953  1.00  0.00     0.002 C 
HETATM   13  C12 UNL     1      16.888 -15.696  22.518  1.00  0.00     0.145 C 
BRANCH  10  14
HETATM   14  C8  UNL     1      14.600 -18.592  22.582  1.00  0.00     0.227 C 
HETATM   15  O2  UNL     1      13.571 -18.567  23.351  1.00  0.00    -0.643 OA
HETATM   16  O3  UNL     1      14.834 -19.802  21.996  1.00  0.00    -0.643 OA
ENDBRANCH  10  14
BRANCH  12  17
HETATM   17  C10 UNL     1      17.345 -17.996  23.793  1.00  0.00     0.035 C 
HETATM   18  C11 UNL     1      17.341 -18.040  25.097  1.00  0.00     0.168 C 
BRANCH  18  19
HETATM   19  N2  UNL     1      18.134 -19.003  25.809  1.00  0.00    -0.127 N 
HETATM   20  O4  UNL     1      19.281 -19.337  25.482  1.00  0.00    -0.532 OA
HETATM   21  O5  UNL     1      17.577 -19.580  26.918  1.00  0.00    -0.532 OA
ENDBRANCH  18  19
ENDBRANCH  12  17
BRANCH  13  22
HETATM   22  N3  UNL     1      18.203 -15.220  22.553  1.00  0.00    -0.348 N 
HETATM   23  C13 UNL     1      18.961 -14.737  23.626  1.00  0.00     0.240 C 
HETATM   24  O6  UNL     1      18.504 -14.659  24.783  1.00  0.00    -0.271 OA
ATOM     25  H3  UNL     1      18.685 -15.224  21.655  1.00  0.00     0.163 HD
BRANCH  23  26
HETATM   26  C14 UNL     1      20.404 -14.274  23.420  1.00  0.00     0.175 C 
HETATM   27  C15 UNL     1      20.616 -14.163  21.972  1.00  0.00     0.042 C 
BRANCH  26  28
HETATM   28  N4  UNL     1      21.242 -15.098  24.198  1.00  0.00    -0.338 N 
BRANCH  28  29
HETATM   29  C16 UNL     1      21.158 -16.524  23.942  1.00  0.00     0.352 C 
HETATM   30  O7  UNL     1      21.915 -17.085  23.103  1.00  0.00    -0.283 OA
ENDBRANCH  28  29
BRANCH  28  31
HETATM   31  C17 UNL     1      22.175 -14.703  25.238  1.00  0.00     0.025 C 
HETATM   32  C18 UNL     1      21.492 -13.618  26.100  1.00  0.00     0.037 C 
HETATM   33  C19 UNL     1      22.507 -15.836  26.187  1.00  0.00     0.037 C 
HETATM   34  C20 UNL     1      23.422 -14.034  24.736  1.00  0.00     0.037 C 
ENDBRANCH  28  31
ENDBRANCH  26  28
ENDBRANCH  23  26
ENDBRANCH  13  22
ENDBRANCH   3   4
TORSDOF 9
ENDMDL
