MODEL 1
REMARK VINA RESULT: -7.663960920      0.000      0.000
REMARK  13 active torsions:
REMARK  status: ('A' for Active; 'I' for Inactive)
REMARK    1  A    between atoms: C1_2  and  C2_3 
REMARK    2  A    between atoms: C1_2  and  O3_6 
REMARK    3  A    between atoms: C2_3  and  O2_4 
REMARK    4  A    between atoms: O3_6  and  N1_7 
REMARK    5  A    between atoms: N1_7  and  C3_9 
REMARK    6  A    between atoms: C4_14  and  N4_15 
REMARK    7  A    between atoms: N4_15  and  C5_17 
REMARK    8  A    between atoms: C9_21  and  C10_22 
REMARK    9  A    between atoms: C10_22  and  O4_23 
REMARK   10  A    between atoms: C10_22  and  N5_25 
REMARK   11  A    between atoms: C12_32  and  C13_33 
REMARK   12  A    between atoms: C13_33  and  O5_34 
REMARK   13  A    between atoms: C13_33  and  O6_36 
ROOT
HETATM    1  C5  UNL     1      33.095  24.984 -17.332  1.00  0.00     0.107 A 
HETATM    2  C6  UNL     1      31.967  25.737 -17.673  1.00  0.00     0.048 A 
HETATM    3  C7  UNL     1      30.807  25.603 -16.962  1.00  0.00     0.006 A 
HETATM    4  C8  UNL     1      30.791  24.718 -15.916  1.00  0.00     0.029 A 
HETATM    5  C9  UNL     1      31.905  23.972 -15.572  1.00  0.00     0.059 A 
HETATM    6  N8  UNL     1      33.019  24.132 -16.296  1.00  0.00    -0.342 N 
ATOM      7  H8  UNL     1      33.844  23.585 -16.052  1.00  0.00     0.167 HD
ENDROOT
BRANCH   1   8
HETATM    8  N4  UNL     1      34.278  25.139 -18.109  1.00  0.00    -0.323 N 
ATOM      9  H4  UNL     1      34.945  24.371 -18.184  1.00  0.00     0.169 HD
BRANCH   8  10
HETATM   10  C4  UNL     1      34.505  26.251 -18.718  1.00  0.00     0.192 A 
HETATM   11  N3  UNL     1      34.958  27.310 -18.055  1.00  0.00    -0.267 N 
HETATM   12  N2  UNL     1      35.219  28.449 -18.679  1.00  0.00    -0.129 N 
ATOM     13  H3  UNL     1      35.108  27.245 -17.048  1.00  0.00     0.189 HD
HETATM   14  C3  UNL     1      35.013  28.518 -20.011  1.00  0.00     0.720 A 
ATOM     15  H2  UNL     1      35.569  29.257 -18.164  1.00  0.00     0.205 HD
HETATM   16  N9  UNL     1      34.555  27.477 -20.714  1.00  0.00    -0.150 N 
HETATM   17  C14 UNL     1      34.296  26.322 -20.072  1.00  0.00     0.305 A 
ATOM     18  H9  UNL     1      34.405  27.556 -21.720  1.00  0.00     0.188 HD
HETATM   19  O7  UNL     1      33.859  25.317 -20.737  1.00  0.00    -0.263 OA
BRANCH  14  20
HETATM   20  N1  UNL     1      35.306  29.720 -20.679  1.00  0.00    -0.086 N 
ATOM     21  H1  UNL     1      35.554  29.722 -21.668  1.00  0.00     0.214 HD
BRANCH  20  22
HETATM   22  O3  UNL     1      35.249  30.891 -19.965  1.00  0.00    -0.182 OA
BRANCH  22  23
HETATM   23  C1  UNL     1      36.042  31.955 -20.445  1.00  0.00     0.304 C 
HETATM   24  O1  UNL     1      36.836  31.699 -21.381  1.00  0.00    -0.261 OA
BRANCH  23  25
HETATM   25  C2  UNL     1      35.967  33.323 -19.889  1.00  0.00     0.277 C 
BRANCH  25  26
HETATM   26  O2  UNL     1      35.277  33.267 -18.680  1.00  0.00    -0.391 OA
ATOM     27  H2  UNL     1      34.347  33.228 -18.868  1.00  0.00     0.210 HD
ENDBRANCH  25  26
ENDBRANCH  23  25
ENDBRANCH  22  23
ENDBRANCH  20  22
ENDBRANCH  14  20
ENDBRANCH   8  10
ENDBRANCH   1   8
BRANCH   5  28
HETATM   28  C10 UNL     1      31.808  23.040 -14.438  1.00  0.00     0.270 C 
BRANCH  28  29
HETATM   29  O4  UNL     1      30.845  23.522 -13.515  1.00  0.00    -0.371 OA
ATOM     30  H4  UNL     1      31.190  23.447 -12.634  1.00  0.00     0.212 HD
ENDBRANCH  28  29
BRANCH  28  31
HETATM   31  N5  UNL     1      33.061  22.761 -13.781  1.00  0.00    -0.338 N 
HETATM   32  C11 UNL     1      33.106  21.768 -12.926  1.00  0.00     0.163 A 
HETATM   33  N6  UNL     1      34.173  21.367 -12.230  1.00  0.00    -0.279 N 
HETATM   34  S1  UNL     1      31.917  20.672 -12.379  1.00  0.00    -0.033 SA
HETATM   35  N7  UNL     1      34.053  20.391 -11.430  1.00  0.00    -0.291 N 
ATOM     36  H6  UNL     1      35.070  21.840 -12.340  1.00  0.00     0.189 HD
HETATM   37  C12 UNL     1      32.892  19.778 -11.285  1.00  0.00     0.124 A 
ATOM     38  H7  UNL     1      34.861  20.076 -10.893  1.00  0.00     0.187 HD
ATOM     39  H5  UNL     1      33.891  23.321 -13.977  1.00  0.00     0.164 HD
BRANCH  37  40
HETATM   40  C13 UNL     1      32.490  18.610 -10.415  1.00  0.00     0.314 C 
BRANCH  40  41
HETATM   41  O5  UNL     1      33.569  18.327  -9.593  1.00  0.00    -0.365 OA
ATOM     42  H5  UNL     1      33.216  18.025  -8.765  1.00  0.00     0.213 HD
ENDBRANCH  40  41
BRANCH  40  43
HETATM   43  O6  UNL     1      31.356  19.012  -9.700  1.00  0.00    -0.365 OA
ATOM     44  H6  UNL     1      31.635  19.155  -8.803  1.00  0.00     0.213 HD
ENDBRANCH  40  43
ENDBRANCH  37  40
ENDBRANCH  28  31
ENDBRANCH   5  28
TORSDOF 13
ENDMDL
MODEL 2
REMARK VINA RESULT: -7.626817542      0.927      1.190
REMARK  13 active torsions:
REMARK  status: ('A' for Active; 'I' for Inactive)
REMARK    1  A    between atoms: C1_2  and  C2_3 
REMARK    2  A    between atoms: C1_2  and  O3_6 
REMARK    3  A    between atoms: C2_3  and  O2_4 
REMARK    4  A    between atoms: O3_6  and  N1_7 
REMARK    5  A    between atoms: N1_7  and  C3_9 
REMARK    6  A    between atoms: C4_14  and  N4_15 
REMARK    7  A    between atoms: N4_15  and  C5_17 
REMARK    8  A    between atoms: C9_21  and  C10_22 
REMARK    9  A    between atoms: C10_22  and  O4_23 
REMARK   10  A    between atoms: C10_22  and  N5_25 
REMARK   11  A    between atoms: C12_32  and  C13_33 
REMARK   12  A    between atoms: C13_33  and  O5_34 
REMARK   13  A    between atoms: C13_33  and  O6_36 
ROOT
HETATM    1  C5  UNL     1      33.247  25.014 -17.530  1.00  0.00     0.107 A 
HETATM    2  C6  UNL     1      32.140  25.810 -17.838  1.00  0.00     0.048 A 
HETATM    3  C7  UNL     1      30.988  25.702 -17.110  1.00  0.00     0.006 A 
HETATM    4  C8  UNL     1      30.959  24.798 -16.080  1.00  0.00     0.029 A 
HETATM    5  C9  UNL     1      32.053  24.009 -15.769  1.00  0.00     0.059 A 
HETATM    6  N8  UNL     1      33.160  24.146 -16.508  1.00  0.00    -0.342 N 
ATOM      7  H8  UNL     1      33.970  23.567 -16.288  1.00  0.00     0.167 HD
ENDROOT
BRANCH   1   8
HETATM    8  N4  UNL     1      34.423  25.144 -18.324  1.00  0.00    -0.323 N 
ATOM      9  H4  UNL     1      35.064  24.357 -18.420  1.00  0.00     0.169 HD
BRANCH   8  10
HETATM   10  C4  UNL     1      34.674  26.257 -18.921  1.00  0.00     0.192 A 
HETATM   11  N3  UNL     1      34.136  26.532 -20.105  1.00  0.00    -0.267 N 
HETATM   12  N2  UNL     1      34.369  27.686 -20.712  1.00  0.00    -0.129 N 
ATOM     13  H3  UNL     1      33.534  25.842 -20.554  1.00  0.00     0.189 HD
HETATM   14  C3  UNL     1      35.171  28.585 -20.105  1.00  0.00     0.720 A 
ATOM     15  H2  UNL     1      33.951  27.890 -21.620  1.00  0.00     0.205 HD
HETATM   16  N9  UNL     1      35.734  28.346 -18.915  1.00  0.00    -0.150 N 
HETATM   17  C14 UNL     1      35.489  27.172 -18.304  1.00  0.00     0.305 A 
ATOM     18  H9  UNL     1      36.338  29.042 -18.479  1.00  0.00     0.188 HD
HETATM   19  O7  UNL     1      36.021  26.934 -17.162  1.00  0.00    -0.263 OA
BRANCH  14  20
HETATM   20  N1  UNL     1      35.406  29.819 -20.738  1.00  0.00    -0.086 N 
ATOM     21  H1  UNL     1      35.744  29.857 -21.699  1.00  0.00     0.214 HD
BRANCH  20  22
HETATM   22  O3  UNL     1      35.167  30.969 -20.029  1.00  0.00    -0.182 OA
BRANCH  22  23
HETATM   23  C1  UNL     1      36.156  31.972 -20.114  1.00  0.00     0.304 C 
HETATM   24  O1  UNL     1      37.301  31.616 -20.477  1.00  0.00    -0.261 OA
BRANCH  23  25
HETATM   25  C2  UNL     1      35.887  33.390 -19.795  1.00  0.00     0.277 C 
BRANCH  25  26
HETATM   26  O2  UNL     1      35.224  33.445 -18.570  1.00  0.00    -0.391 OA
ATOM     27  H2  UNL     1      34.756  34.270 -18.521  1.00  0.00     0.210 HD
ENDBRANCH  25  26
ENDBRANCH  23  25
ENDBRANCH  22  23
ENDBRANCH  20  22
ENDBRANCH  14  20
ENDBRANCH   8  10
ENDBRANCH   1   8
BRANCH   5  28
HETATM   28  C10 UNL     1      31.942  23.060 -14.651  1.00  0.00     0.270 C 
BRANCH  28  29
HETATM   29  O4  UNL     1      30.919  23.490 -13.769  1.00  0.00    -0.371 OA
ATOM     30  H4  UNL     1      30.490  22.732 -13.391  1.00  0.00     0.212 HD
ENDBRANCH  28  29
BRANCH  28  31
HETATM   31  N5  UNL     1      33.175  22.826 -13.939  1.00  0.00    -0.338 N 
HETATM   32  C11 UNL     1      33.207  21.856 -13.056  1.00  0.00     0.163 A 
HETATM   33  N6  UNL     1      34.253  21.497 -12.309  1.00  0.00    -0.279 N 
HETATM   34  S1  UNL     1      32.020  20.749 -12.525  1.00  0.00    -0.033 SA
HETATM   35  N7  UNL     1      34.123  20.540 -11.488  1.00  0.00    -0.291 N 
ATOM     36  H6  UNL     1      35.144  21.985 -12.397  1.00  0.00     0.189 HD
HETATM   37  C12 UNL     1      32.970  19.905 -11.371  1.00  0.00     0.124 A 
ATOM     38  H7  UNL     1      34.915  20.257 -10.912  1.00  0.00     0.187 HD
ATOM     39  H5  UNL     1      34.001  23.398 -14.118  1.00  0.00     0.164 HD
BRANCH  37  40
HETATM   40  C13 UNL     1      32.558  18.753 -10.486  1.00  0.00     0.314 C 
BRANCH  40  41
HETATM   41  O5  UNL     1      33.617  18.504  -9.627  1.00  0.00    -0.365 OA
ATOM     42  H5  UNL     1      33.246  18.172  -8.818  1.00  0.00     0.213 HD
ENDBRANCH  40  41
BRANCH  40  43
HETATM   43  O6  UNL     1      31.398  19.154  -9.814  1.00  0.00    -0.365 OA
ATOM     44  H6  UNL     1      31.624  19.220  -8.894  1.00  0.00     0.213 HD
ENDBRANCH  40  43
ENDBRANCH  37  40
ENDBRANCH  28  31
ENDBRANCH   5  28
TORSDOF 13
ENDMDL
MODEL 3
REMARK VINA RESULT: -7.626022860      1.579      1.835
REMARK  13 active torsions:
REMARK  status: ('A' for Active; 'I' for Inactive)
REMARK    1  A    between atoms: C1_2  and  C2_3 
REMARK    2  A    between atoms: C1_2  and  O3_6 
REMARK    3  A    between atoms: C2_3  and  O2_4 
REMARK    4  A    between atoms: O3_6  and  N1_7 
REMARK    5  A    between atoms: N1_7  and  C3_9 
REMARK    6  A    between atoms: C4_14  and  N4_15 
REMARK    7  A    between atoms: N4_15  and  C5_17 
REMARK    8  A    between atoms: C9_21  and  C10_22 
REMARK    9  A    between atoms: C10_22  and  O4_23 
REMARK   10  A    between atoms: C10_22  and  N5_25 
REMARK   11  A    between atoms: C12_32  and  C13_33 
REMARK   12  A    between atoms: C13_33  and  O5_34 
REMARK   13  A    between atoms: C13_33  and  O6_36 
ROOT
HETATM    1  C5  UNL     1      33.821  24.758 -17.630  1.00  0.00     0.107 A 
HETATM    2  C6  UNL     1      32.467  25.056 -17.813  1.00  0.00     0.048 A 
HETATM    3  C7  UNL     1      31.565  24.808 -16.817  1.00  0.00     0.006 A 
HETATM    4  C8  UNL     1      32.030  24.266 -15.646  1.00  0.00     0.029 A 
HETATM    5  C9  UNL     1      33.370  23.973 -15.458  1.00  0.00     0.059 A 
HETATM    6  N8  UNL     1      34.218  24.229 -16.461  1.00  0.00    -0.342 N 
ATOM      7  H8  UNL     1      35.207  24.013 -16.332  1.00  0.00     0.167 HD
ENDROOT
BRANCH   1   8
HETATM    8  N4  UNL     1      34.726  25.014 -18.699  1.00  0.00    -0.323 N 
ATOM      9  H4  UNL     1      35.279  24.254 -19.094  1.00  0.00     0.169 HD
BRANCH   8  10
HETATM   10  C4  UNL     1      34.846  26.208 -19.167  1.00  0.00     0.192 A 
HETATM   11  N3  UNL     1      34.328  26.534 -20.346  1.00  0.00    -0.267 N 
HETATM   12  N2  UNL     1      34.424  27.766 -20.821  1.00  0.00    -0.129 N 
ATOM     13  H3  UNL     1      33.848  25.821 -20.897  1.00  0.00     0.189 HD
HETATM   14  C3  UNL     1      35.066  28.695 -20.082  1.00  0.00     0.720 A 
ATOM     15  H2  UNL     1      34.022  28.009 -21.726  1.00  0.00     0.205 HD
HETATM   16  N9  UNL     1      35.604  28.408 -18.891  1.00  0.00    -0.150 N 
HETATM   17  C14 UNL     1      35.498  27.153 -18.415  1.00  0.00     0.305 A 
ATOM     18  H9  UNL     1      36.086  29.128 -18.353  1.00  0.00     0.188 HD
HETATM   19  O7  UNL     1      36.008  26.868 -17.274  1.00  0.00    -0.263 OA
BRANCH  14  20
HETATM   20  N1  UNL     1      35.154  30.009 -20.574  1.00  0.00    -0.086 N 
ATOM     21  H1  UNL     1      34.897  30.226 -21.537  1.00  0.00     0.214 HD
BRANCH  20  22
HETATM   22  O3  UNL     1      35.595  30.993 -19.725  1.00  0.00    -0.182 OA
BRANCH  22  23
HETATM   23  C1  UNL     1      36.135  32.147 -20.331  1.00  0.00     0.304 C 
HETATM   24  O1  UNL     1      36.772  31.987 -21.399  1.00  0.00    -0.261 OA
BRANCH  23  25
HETATM   25  C2  UNL     1      35.976  33.501 -19.759  1.00  0.00     0.277 C 
BRANCH  25  26
HETATM   26  O2  UNL     1      35.233  33.395 -18.585  1.00  0.00    -0.391 OA
ATOM     27  H2  UNL     1      34.349  33.695 -18.763  1.00  0.00     0.210 HD
ENDBRANCH  25  26
ENDBRANCH  23  25
ENDBRANCH  22  23
ENDBRANCH  20  22
ENDBRANCH  14  20
ENDBRANCH   8  10
ENDBRANCH   1   8
BRANCH   5  28
HETATM   28  C10 UNL     1      33.790  23.389 -14.175  1.00  0.00     0.270 C 
BRANCH  28  29
HETATM   29  O4  UNL     1      34.757  24.231 -13.570  1.00  0.00    -0.371 OA
ATOM     30  H4  UNL     1      34.491  24.425 -12.680  1.00  0.00     0.212 HD
ENDBRANCH  28  29
BRANCH  28  31
HETATM   31  N5  UNL     1      34.268  22.031 -14.262  1.00  0.00    -0.338 N 
HETATM   32  C11 UNL     1      33.584  21.092 -13.654  1.00  0.00     0.163 A 
HETATM   33  N6  UNL     1      33.873  19.789 -13.627  1.00  0.00    -0.279 N 
HETATM   34  S1  UNL     1      32.162  21.139 -12.708  1.00  0.00    -0.033 SA
HETATM   35  N7  UNL     1      33.115  19.003 -12.983  1.00  0.00    -0.291 N 
ATOM     36  H6  UNL     1      34.693  19.431 -14.117  1.00  0.00     0.189 HD
HETATM   37  C12 UNL     1      32.053  19.465 -12.347  1.00  0.00     0.124 A 
ATOM     38  H7  UNL     1      33.327  18.006 -12.956  1.00  0.00     0.187 HD
ATOM     39  H5  UNL     1      35.116  21.806 -14.784  1.00  0.00     0.164 HD
BRANCH  37  40
HETATM   40  C13 UNL     1      31.006  18.754 -11.522  1.00  0.00     0.314 C 
BRANCH  40  41
HETATM   41  O5  UNL     1      31.179  19.162 -10.209  1.00  0.00    -0.365 OA
ATOM     42  H5  UNL     1      31.487  18.407  -9.722  1.00  0.00     0.213 HD
ENDBRANCH  40  41
BRANCH  40  43
HETATM   43  O6  UNL     1      29.761  19.122 -12.044  1.00  0.00    -0.365 OA
ATOM     44  H6  UNL     1      29.115  18.559 -11.635  1.00  0.00     0.213 HD
ENDBRANCH  40  43
ENDBRANCH  37  40
ENDBRANCH  28  31
ENDBRANCH   5  28
TORSDOF 13
ENDMDL
MODEL 4
REMARK VINA RESULT: -7.328544308      1.469      1.719
REMARK  13 active torsions:
REMARK  status: ('A' for Active; 'I' for Inactive)
REMARK    1  A    between atoms: C1_2  and  C2_3 
REMARK    2  A    between atoms: C1_2  and  O3_6 
REMARK    3  A    between atoms: C2_3  and  O2_4 
REMARK    4  A    between atoms: O3_6  and  N1_7 
REMARK    5  A    between atoms: N1_7  and  C3_9 
REMARK    6  A    between atoms: C4_14  and  N4_15 
REMARK    7  A    between atoms: N4_15  and  C5_17 
REMARK    8  A    between atoms: C9_21  and  C10_22 
REMARK    9  A    between atoms: C10_22  and  O4_23 
REMARK   10  A    between atoms: C10_22  and  N5_25 
REMARK   11  A    between atoms: C12_32  and  C13_33 
REMARK   12  A    between atoms: C13_33  and  O5_34 
REMARK   13  A    between atoms: C13_33  and  O6_36 
ROOT
HETATM    1  C5  UNL     1      33.905  25.242 -17.995  1.00  0.00     0.107 A 
HETATM    2  C6  UNL     1      32.632  25.703 -18.345  1.00  0.00     0.048 A 
HETATM    3  C7  UNL     1      31.557  25.440 -17.541  1.00  0.00     0.006 A 
HETATM    4  C8  UNL     1      31.771  24.719 -16.395  1.00  0.00     0.029 A 
HETATM    5  C9  UNL     1      33.030  24.263 -16.042  1.00  0.00     0.059 A 
HETATM    6  N8  UNL     1      34.053  24.540 -16.859  1.00  0.00    -0.342 N 
ATOM      7  H8  UNL     1      34.983  24.206 -16.609  1.00  0.00     0.167 HD
ENDROOT
BRANCH   1   8
HETATM    8  N4  UNL     1      34.994  25.521 -18.869  1.00  0.00    -0.323 N 
ATOM      9  H4  UNL     1      35.686  24.799 -19.069  1.00  0.00     0.169 HD
BRANCH   8  10
HETATM   10  C4  UNL     1      35.104  26.686 -19.405  1.00  0.00     0.192 A 
HETATM   11  N3  UNL     1      35.441  27.744 -18.675  1.00  0.00    -0.267 N 
HETATM   12  N2  UNL     1      35.582  28.941 -19.225  1.00  0.00    -0.129 N 
ATOM     13  H3  UNL     1      35.593  27.633 -17.672  1.00  0.00     0.189 HD
HETATM   14  C3  UNL     1      35.373  29.070 -20.551  1.00  0.00     0.720 A 
ATOM     15  H2  UNL     1      35.842  29.747 -18.657  1.00  0.00     0.205 HD
HETATM   16  N9  UNL     1      35.030  28.032 -21.322  1.00  0.00    -0.150 N 
HETATM   17  C14 UNL     1      34.893  26.819 -20.754  1.00  0.00     0.305 A 
ATOM     18  H9  UNL     1      34.876  28.157 -22.322  1.00  0.00     0.188 HD
HETATM   19  O7  UNL     1      34.567  25.817 -21.484  1.00  0.00    -0.263 OA
BRANCH  14  20
HETATM   20  N1  UNL     1      35.539  30.336 -21.142  1.00  0.00    -0.086 N 
ATOM     21  H1  UNL     1      36.129  30.456 -21.965  1.00  0.00     0.214 HD
BRANCH  20  22
HETATM   22  O3  UNL     1      34.887  31.405 -20.581  1.00  0.00    -0.182 OA
BRANCH  22  23
HETATM   23  C1  UNL     1      35.702  32.422 -20.041  1.00  0.00     0.304 C 
HETATM   24  O1  UNL     1      35.329  32.940 -18.962  1.00  0.00    -0.261 OA
BRANCH  23  25
HETATM   25  C2  UNL     1      36.946  32.882 -20.693  1.00  0.00     0.277 C 
BRANCH  25  26
HETATM   26  O2  UNL     1      37.992  32.066 -20.265  1.00  0.00    -0.391 OA
ATOM     27  H2  UNL     1      38.441  32.506 -19.552  1.00  0.00     0.210 HD
ENDBRANCH  25  26
ENDBRANCH  23  25
ENDBRANCH  22  23
ENDBRANCH  20  22
ENDBRANCH  14  20
ENDBRANCH   8  10
ENDBRANCH   1   8
BRANCH   5  28
HETATM   28  C10 UNL     1      33.177  23.493 -14.798  1.00  0.00     0.270 C 
BRANCH  28  29
HETATM   29  O4  UNL     1      34.016  24.203 -13.903  1.00  0.00    -0.371 OA
ATOM     30  H4  UNL     1      33.483  24.757 -13.345  1.00  0.00     0.212 HD
ENDBRANCH  28  29
BRANCH  28  31
HETATM   31  N5  UNL     1      33.643  22.140 -14.982  1.00  0.00    -0.338 N 
HETATM   32  C11 UNL     1      33.118  21.196 -14.237  1.00  0.00     0.163 A 
HETATM   33  N6  UNL     1      33.424  19.897 -14.270  1.00  0.00    -0.279 N 
HETATM   34  S1  UNL     1      31.934  21.232 -13.008  1.00  0.00    -0.033 SA
HETATM   35  N7  UNL     1      32.833  19.106 -13.475  1.00  0.00    -0.291 N 
ATOM     36  H6  UNL     1      34.124  19.546 -14.924  1.00  0.00     0.189 HD
HETATM   37  C12 UNL     1      31.927  19.558 -12.626  1.00  0.00     0.124 A 
ATOM     38  H7  UNL     1      33.058  18.112 -13.490  1.00  0.00     0.187 HD
ATOM     39  H5  UNL     1      34.362  21.922 -15.673  1.00  0.00     0.164 HD
BRANCH  37  40
HETATM   40  C13 UNL     1      31.092  18.839 -11.592  1.00  0.00     0.314 C 
BRANCH  40  41
HETATM   41  O5  UNL     1      31.439  19.361 -10.357  1.00  0.00    -0.365 OA
ATOM     42  H5  UNL     1      32.382  19.477 -10.359  1.00  0.00     0.213 HD
ENDBRANCH  40  41
BRANCH  40  43
HETATM   43  O6  UNL     1      29.752  19.074 -11.922  1.00  0.00    -0.365 OA
ATOM     44  H6  UNL     1      29.668  20.007 -12.077  1.00  0.00     0.213 HD
ENDBRANCH  40  43
ENDBRANCH  37  40
ENDBRANCH  28  31
ENDBRANCH   5  28
TORSDOF 13
ENDMDL
MODEL 5
REMARK VINA RESULT: -7.326248090      3.584      6.589
REMARK  13 active torsions:
REMARK  status: ('A' for Active; 'I' for Inactive)
REMARK    1  A    between atoms: C1_2  and  C2_3 
REMARK    2  A    between atoms: C1_2  and  O3_6 
REMARK    3  A    between atoms: C2_3  and  O2_4 
REMARK    4  A    between atoms: O3_6  and  N1_7 
REMARK    5  A    between atoms: N1_7  and  C3_9 
REMARK    6  A    between atoms: C4_14  and  N4_15 
REMARK    7  A    between atoms: N4_15  and  C5_17 
REMARK    8  A    between atoms: C9_21  and  C10_22 
REMARK    9  A    between atoms: C10_22  and  O4_23 
REMARK   10  A    between atoms: C10_22  and  N5_25 
REMARK   11  A    between atoms: C12_32  and  C13_33 
REMARK   12  A    between atoms: C13_33  and  O5_34 
REMARK   13  A    between atoms: C13_33  and  O6_36 
ROOT
HETATM    1  C5  UNL     1      35.678  29.569 -20.417  1.00  0.00     0.107 A 
HETATM    2  C6  UNL     1      37.036  29.330 -20.190  1.00  0.00     0.048 A 
HETATM    3  C7  UNL     1      37.470  28.079 -19.851  1.00  0.00     0.006 A 
HETATM    4  C8  UNL     1      36.537  27.080 -19.746  1.00  0.00     0.029 A 
HETATM    5  C9  UNL     1      35.191  27.311 -19.973  1.00  0.00     0.059 A 
HETATM    6  N8  UNL     1      34.809  28.551 -20.299  1.00  0.00    -0.342 N 
ATOM      7  H8  UNL     1      33.819  28.731 -20.465  1.00  0.00     0.167 HD
ENDROOT
BRANCH   1   8
HETATM    8  N4  UNL     1      35.265  30.892 -20.750  1.00  0.00    -0.323 N 
ATOM      9  H4  UNL     1      34.281  31.089 -20.929  1.00  0.00     0.169 HD
BRANCH   8  10
HETATM   10  C4  UNL     1      36.136  31.836 -20.824  1.00  0.00     0.192 A 
HETATM   11  N3  UNL     1      37.058  31.840 -21.781  1.00  0.00    -0.267 N 
HETATM   12  N2  UNL     1      37.941  32.822 -21.880  1.00  0.00    -0.129 N 
ATOM     13  H3  UNL     1      37.086  31.072 -22.452  1.00  0.00     0.189 HD
HETATM   14  C3  UNL     1      37.891  33.828 -20.981  1.00  0.00     0.720 A 
ATOM     15  H2  UNL     1      38.643  32.819 -22.619  1.00  0.00     0.205 HD
HETATM   16  N9  UNL     1      36.982  33.861 -20.001  1.00  0.00    -0.150 N 
HETATM   17  C14 UNL     1      36.086  32.859 -19.911  1.00  0.00     0.305 A 
ATOM     18  H9  UNL     1      36.967  34.631 -19.333  1.00  0.00     0.188 HD
HETATM   19  O7  UNL     1      35.209  32.882 -18.976  1.00  0.00    -0.263 OA
BRANCH  14  20
HETATM   20  N1  UNL     1      38.815  34.882 -21.093  1.00  0.00    -0.086 N 
ATOM     21  H1  UNL     1      39.559  35.001 -20.406  1.00  0.00     0.214 HD
BRANCH  20  22
HETATM   22  O3  UNL     1      38.690  35.745 -22.153  1.00  0.00    -0.182 OA
BRANCH  22  23
HETATM   23  C1  UNL     1      37.475  36.458 -22.238  1.00  0.00     0.304 C 
HETATM   24  O1  UNL     1      36.771  36.266 -23.257  1.00  0.00    -0.261 OA
BRANCH  23  25
HETATM   25  C2  UNL     1      37.025  37.399 -21.191  1.00  0.00     0.277 C 
BRANCH  25  26
HETATM   26  O2  UNL     1      36.267  36.690 -20.262  1.00  0.00    -0.391 OA
ATOM     27  H2  UNL     1      36.680  36.777 -19.411  1.00  0.00     0.210 HD
ENDBRANCH  25  26
ENDBRANCH  23  25
ENDBRANCH  22  23
ENDBRANCH  20  22
ENDBRANCH  14  20
ENDBRANCH   8  10
ENDBRANCH   1   8
BRANCH   5  28
HETATM   28  C10 UNL     1      34.250  26.188 -19.836  1.00  0.00     0.270 C 
BRANCH  28  29
HETATM   29  O4  UNL     1      34.122  25.528 -21.084  1.00  0.00    -0.371 OA
ATOM     30  H4  UNL     1      33.318  25.806 -21.505  1.00  0.00     0.212 HD
ENDBRANCH  28  29
BRANCH  28  31
HETATM   31  N5  UNL     1      32.958  26.549 -19.306  1.00  0.00    -0.338 N 
HETATM   32  C11 UNL     1      32.520  25.908 -18.249  1.00  0.00     0.163 A 
HETATM   33  N6  UNL     1      31.356  26.107 -17.626  1.00  0.00    -0.279 N 
HETATM   34  S1  UNL     1      33.189  24.646 -17.314  1.00  0.00    -0.033 SA
HETATM   35  N7  UNL     1      31.069  25.395 -16.617  1.00  0.00    -0.291 N 
ATOM     36  H6  UNL     1      30.707  26.821 -17.957  1.00  0.00     0.189 HD
HETATM   37  C12 UNL     1      31.907  24.469 -16.186  1.00  0.00     0.124 A 
ATOM     38  H7  UNL     1      30.183  25.539 -16.133  1.00  0.00     0.187 HD
ATOM     39  H5  UNL     1      32.400  27.284 -19.741  1.00  0.00     0.164 HD
BRANCH  37  40
HETATM   40  C13 UNL     1      31.808  23.504 -15.028  1.00  0.00     0.314 C 
BRANCH  40  41
HETATM   41  O5  UNL     1      32.716  23.926 -14.071  1.00  0.00    -0.365 OA
ATOM     42  H5  UNL     1      32.228  24.422 -13.424  1.00  0.00     0.213 HD
ENDBRANCH  40  41
BRANCH  40  43
HETATM   43  O6  UNL     1      30.484  23.550 -14.577  1.00  0.00    -0.365 OA
ATOM     44  H6  UNL     1      30.376  24.382 -14.132  1.00  0.00     0.213 HD
ENDBRANCH  40  43
ENDBRANCH  37  40
ENDBRANCH  28  31
ENDBRANCH   5  28
TORSDOF 13
ENDMDL
