MODEL 1
REMARK VINA RESULT: -5.791832923      0.000      0.000
REMARK  11 active torsions:
REMARK  status: ('A' for Active; 'I' for Inactive)
REMARK       I    between atoms: C2_2  and  N1_4 
REMARK    1  A    between atoms: N1_4  and  C3_6 
REMARK    2  A    between atoms: C5_13  and  N5_14 
REMARK    3  A    between atoms: N5_14  and  C6_16 
REMARK    4  A    between atoms: C6_16  and  O2_18 
REMARK    5  A    between atoms: C8_20  and  C9_21 
REMARK    6  A    between atoms: C9_21  and  O3_22 
REMARK    7  A    between atoms: C9_21  and  C10_24 
REMARK    8  A    between atoms: C10_24  and  O4_25 
REMARK    9  A    between atoms: C10_24  and  C11_27 
REMARK   10  A    between atoms: C11_27  and  O5_28 
REMARK   11  A    between atoms: C13_32  and  C14_33 
ROOT
HETATM    1  C3  UNL     1      34.009  26.810 -19.262  1.00  0.00     0.720 C 
HETATM    2  N2  UNL     1      34.561  27.998 -19.537  1.00  0.00    -0.113 N 
ATOM      3  H2  UNL     1      33.968  28.827 -19.569  1.00  0.00     0.206 HD
HETATM    4  N3  UNL     1      35.950  28.133 -19.784  1.00  0.00    -0.096 N 
HETATM    5  C4  UNL     1      36.269  29.428 -20.333  1.00  0.00     0.704 A 
HETATM    6  N4  UNL     1      35.737  30.628 -20.006  1.00  0.00    -0.173 N 
ATOM      7  H4  UNL     1      35.023  30.812 -19.302  1.00  0.00     0.186 HD
HETATM    8  C5  UNL     1      36.337  31.522 -20.792  1.00  0.00     0.145 A 
HETATM    9  C8  UNL     1      37.260  30.851 -21.619  1.00  0.00     0.104 A 
HETATM   10  N6  UNL     1      37.192  29.558 -21.308  1.00  0.00    -0.176 N 
HETATM   11  C12 UNL     1      37.750  28.318 -21.771  1.00  0.00     0.194 C 
HETATM   12  C13 UNL     1      38.012  27.282 -20.742  1.00  0.00     0.140 C 
HETATM   13  O6  UNL     1      37.533  25.991 -21.071  1.00  0.00    -0.336 OA
HETATM   14  C15 UNL     1      36.871  25.806 -19.836  1.00  0.00     0.319 C 
HETATM   15  O7  UNL     1      35.664  25.219 -20.020  1.00  0.00    -0.231 OA
HETATM   16  N8  UNL     1      34.713  25.591 -19.139  1.00  0.00    -0.092 N 
ATOM     17  H8  UNL     1      34.497  24.973 -18.358  1.00  0.00     0.213 HD
HETATM   18  C16 UNL     1      37.025  27.228 -19.595  1.00  0.00     0.226 C 
ENDROOT
BRANCH   9  19
HETATM   19  C9  UNL     1      37.975  31.519 -22.712  1.00  0.00     0.203 C 
BRANCH  19  20
HETATM   20  O3  UNL     1      37.854  30.610 -23.865  1.00  0.00    -0.387 OA
ATOM     21  H3  UNL     1      37.411  31.116 -24.535  1.00  0.00     0.210 HD
ENDBRANCH  19  20
BRANCH  19  22
HETATM   22  C10 UNL     1      39.456  31.623 -22.571  1.00  0.00     0.176 C 
BRANCH  22  23
HETATM   23  O4  UNL     1      39.936  31.316 -21.360  1.00  0.00    -0.390 OA
ATOM     24  H4  UNL     1      39.817  30.412 -21.094  1.00  0.00     0.210 HD
ENDBRANCH  22  23
BRANCH  22  25
HETATM   25  C11 UNL     1      40.107  30.739 -23.634  1.00  0.00     0.198 C 
BRANCH  25  26
HETATM   26  O5  UNL     1      40.659  29.630 -22.950  1.00  0.00    -0.398 OA
ATOM     27  H5  UNL     1      41.593  29.792 -22.885  1.00  0.00     0.209 HD
ENDBRANCH  25  26
ENDBRANCH  22  25
ENDBRANCH  19  22
ENDBRANCH   9  19
BRANCH   8  28
HETATM   28  N5  UNL     1      36.085  32.910 -20.773  1.00  0.00    -0.348 N 
ATOM     29  H5  UNL     1      35.752  33.361 -21.625  1.00  0.00     0.163 HD
BRANCH  28  30
HETATM   30  C6  UNL     1      36.281  33.713 -19.598  1.00  0.00     0.215 C 
HETATM   31  C7  UNL     1      36.107  35.184 -20.006  1.00  0.00     0.063 C 
BRANCH  30  32
HETATM   32  O2  UNL     1      35.263  33.494 -18.655  1.00  0.00    -0.377 OA
ATOM     33  H2  UNL     1      35.414  33.994 -17.862  1.00  0.00     0.212 HD
ENDBRANCH  30  32
ENDBRANCH  28  30
ENDBRANCH   8  28
BRANCH  12  34
HETATM   34  C14 UNL     1      39.386  27.301 -20.188  1.00  0.00     0.095 C 
HETATM   35  N7  UNL     1      39.984  28.411 -20.154  1.00  0.00    -0.408 N 
ATOM     36  H72 UNL     1      39.525  29.254 -20.499  1.00  0.00     0.155 HD
ATOM     37  H71 UNL     1      40.930  28.425 -19.772  1.00  0.00     0.155 HD
ENDBRANCH  12  34
BRANCH   1  38
HETATM   38  N1  UNL     1      32.621  26.871 -19.047  1.00  0.00    -0.157 N 
HETATM   39  C2  UNL     1      31.958  26.113 -18.068  1.00  0.00     0.232 C 
HETATM   40  C1  UNL     1      30.477  26.275 -17.956  1.00  0.00     0.118 C 
HETATM   41  O1  UNL     1      32.551  25.334 -17.315  1.00  0.00    -0.273 OA
ATOM     42  H1  UNL     1      32.068  27.498 -19.631  1.00  0.00     0.187 HD
ENDBRANCH   1  38
TORSDOF 11
ENDMDL
MODEL 2
REMARK VINA RESULT: -5.608214142      9.316     13.967
REMARK  11 active torsions:
REMARK  status: ('A' for Active; 'I' for Inactive)
REMARK       I    between atoms: C2_2  and  N1_4 
REMARK    1  A    between atoms: N1_4  and  C3_6 
REMARK    2  A    between atoms: C5_13  and  N5_14 
REMARK    3  A    between atoms: N5_14  and  C6_16 
REMARK    4  A    between atoms: C6_16  and  O2_18 
REMARK    5  A    between atoms: C8_20  and  C9_21 
REMARK    6  A    between atoms: C9_21  and  O3_22 
REMARK    7  A    between atoms: C9_21  and  C10_24 
REMARK    8  A    between atoms: C10_24  and  O4_25 
REMARK    9  A    between atoms: C10_24  and  C11_27 
REMARK   10  A    between atoms: C11_27  and  O5_28 
REMARK   11  A    between atoms: C13_32  and  C14_33 
ROOT
HETATM    1  C3  UNL     1      31.546  23.322 -14.496  1.00  0.00     0.720 C 
HETATM    2  N2  UNL     1      31.356  22.031 -14.197  1.00  0.00    -0.113 N 
ATOM      3  H2  UNL     1      30.410  21.651 -14.212  1.00  0.00     0.206 HD
HETATM    4  N3  UNL     1      32.437  21.179 -13.859  1.00  0.00    -0.096 N 
HETATM    5  C4  UNL     1      31.977  19.931 -13.303  1.00  0.00     0.704 A 
HETATM    6  N4  UNL     1      30.905  19.195 -13.675  1.00  0.00    -0.173 N 
ATOM      7  H4  UNL     1      30.248  19.403 -14.427  1.00  0.00     0.186 HD
HETATM    8  C5  UNL     1      30.881  18.140 -12.860  1.00  0.00     0.145 A 
HETATM    9  C8  UNL     1      31.968  18.235 -11.967  1.00  0.00     0.104 A 
HETATM   10  N6  UNL     1      32.623  19.353 -12.269  1.00  0.00    -0.176 N 
HETATM   11  C12 UNL     1      33.730  20.114 -11.758  1.00  0.00     0.194 C 
HETATM   12  C13 UNL     1      34.571  20.819 -12.757  1.00  0.00     0.140 C 
HETATM   13  O6  UNL     1      34.840  22.173 -12.449  1.00  0.00    -0.336 OA
HETATM   14  C15 UNL     1      34.458  22.650 -13.723  1.00  0.00     0.319 C 
HETATM   15  O7  UNL     1      33.746  23.798 -13.614  1.00  0.00    -0.231 OA
HETATM   16  N8  UNL     1      32.800  23.969 -14.560  1.00  0.00    -0.092 N 
ATOM     17  H8  UNL     1      32.998  24.585 -15.348  1.00  0.00     0.213 HD
HETATM   18  C16 UNL     1      33.838  21.362 -13.967  1.00  0.00     0.226 C 
ENDROOT
BRANCH   9  19
HETATM   19  C9  UNL     1      32.144  17.318 -10.835  1.00  0.00     0.203 C 
BRANCH  19  20
HETATM   20  O3  UNL     1      32.316  18.187  -9.658  1.00  0.00    -0.387 OA
ATOM     21  H3  UNL     1      32.502  17.596  -8.938  1.00  0.00     0.210 HD
ENDBRANCH  19  20
BRANCH  19  22
HETATM   22  C10 UNL     1      33.410  16.531 -10.809  1.00  0.00     0.176 C 
BRANCH  22  23
HETATM   23  O4  UNL     1      34.181  16.655 -11.896  1.00  0.00    -0.390 OA
ATOM     24  H4  UNL     1      33.812  16.301 -12.696  1.00  0.00     0.210 HD
ENDBRANCH  22  23
BRANCH  22  25
HETATM   25  C11 UNL     1      34.197  16.920  -9.558  1.00  0.00     0.198 C 
BRANCH  25  26
HETATM   26  O5  UNL     1      35.337  17.628 -10.007  1.00  0.00    -0.398 OA
ATOM     27  H5  UNL     1      35.022  18.455 -10.353  1.00  0.00     0.209 HD
ENDBRANCH  25  26
ENDBRANCH  22  25
ENDBRANCH  19  22
ENDBRANCH   9  19
BRANCH   8  28
HETATM   28  N5  UNL     1      29.926  17.104 -12.909  1.00  0.00    -0.348 N 
ATOM     29  H5  UNL     1      30.210  16.191 -13.265  1.00  0.00     0.163 HD
BRANCH  28  30
HETATM   30  C6  UNL     1      28.568  17.285 -12.477  1.00  0.00     0.215 C 
HETATM   31  C7  UNL     1      28.368  16.443 -11.207  1.00  0.00     0.063 C 
BRANCH  30  32
HETATM   32  O2  UNL     1      28.340  18.606 -12.055  1.00  0.00    -0.377 OA
ATOM     33  H2  UNL     1      27.885  19.107 -12.721  1.00  0.00     0.212 HD
ENDBRANCH  30  32
ENDBRANCH  28  30
ENDBRANCH   8  28
BRANCH  12  34
HETATM   34  C14 UNL     1      35.750  20.050 -13.219  1.00  0.00     0.095 C 
HETATM   35  N7  UNL     1      36.026  18.983 -12.605  1.00  0.00    -0.408 N 
ATOM     36  H72 UNL     1      35.449  18.675 -11.823  1.00  0.00     0.155 HD
ATOM     37  H71 UNL     1      36.839  18.454 -12.923  1.00  0.00     0.155 HD
ENDBRANCH  12  34
BRANCH   1  38
HETATM   38  N1  UNL     1      30.359  24.008 -14.804  1.00  0.00    -0.157 N 
HETATM   39  C2  UNL     1      30.260  24.954 -15.838  1.00  0.00     0.232 C 
HETATM   40  C1  UNL     1      28.934  25.611 -16.048  1.00  0.00     0.118 C 
HETATM   41  O1  UNL     1      31.215  25.251 -16.562  1.00  0.00    -0.273 OA
ATOM     42  H1  UNL     1      29.526  23.810 -14.249  1.00  0.00     0.187 HD
ENDBRANCH   1  38
TORSDOF 11
ENDMDL
MODEL 3
REMARK VINA RESULT: -5.567213100      0.806      1.146
REMARK  11 active torsions:
REMARK  status: ('A' for Active; 'I' for Inactive)
REMARK       I    between atoms: C2_2  and  N1_4 
REMARK    1  A    between atoms: N1_4  and  C3_6 
REMARK    2  A    between atoms: C5_13  and  N5_14 
REMARK    3  A    between atoms: N5_14  and  C6_16 
REMARK    4  A    between atoms: C6_16  and  O2_18 
REMARK    5  A    between atoms: C8_20  and  C9_21 
REMARK    6  A    between atoms: C9_21  and  O3_22 
REMARK    7  A    between atoms: C9_21  and  C10_24 
REMARK    8  A    between atoms: C10_24  and  O4_25 
REMARK    9  A    between atoms: C10_24  and  C11_27 
REMARK   10  A    between atoms: C11_27  and  O5_28 
REMARK   11  A    between atoms: C13_32  and  C14_33 
ROOT
HETATM    1  C3  UNL     1      34.077  26.831 -19.344  1.00  0.00     0.720 C 
HETATM    2  N2  UNL     1      34.619  28.027 -19.609  1.00  0.00    -0.113 N 
ATOM      3  H2  UNL     1      34.027  28.857 -19.586  1.00  0.00     0.206 HD
HETATM    4  N3  UNL     1      35.994  28.167 -19.922  1.00  0.00    -0.096 N 
HETATM    5  C4  UNL     1      36.289  29.478 -20.446  1.00  0.00     0.704 A 
HETATM    6  N4  UNL     1      35.778  30.668 -20.056  1.00  0.00    -0.173 N 
ATOM      7  H4  UNL     1      35.100  30.831 -19.312  1.00  0.00     0.186 HD
HETATM    8  C5  UNL     1      36.339  31.586 -20.843  1.00  0.00     0.145 A 
HETATM    9  C8  UNL     1      37.218  30.939 -21.736  1.00  0.00     0.104 A 
HETATM   10  N6  UNL     1      37.161  29.637 -21.462  1.00  0.00    -0.176 N 
HETATM   11  C12 UNL     1      37.692  28.411 -21.991  1.00  0.00     0.194 C 
HETATM   12  C13 UNL     1      38.003  27.343 -21.009  1.00  0.00     0.140 C 
HETATM   13  O6  UNL     1      37.504  26.064 -21.352  1.00  0.00    -0.336 OA
HETATM   14  C15 UNL     1      36.904  25.842 -20.092  1.00  0.00     0.319 C 
HETATM   15  O7  UNL     1      35.687  25.262 -20.233  1.00  0.00    -0.231 OA
HETATM   16  N8  UNL     1      34.784  25.608 -19.294  1.00  0.00    -0.092 N 
ATOM     17  H8  UNL     1      34.605  24.966 -18.522  1.00  0.00     0.213 HD
HETATM   18  C16 UNL     1      37.074  27.255 -19.815  1.00  0.00     0.226 C 
ENDROOT
BRANCH   9  19
HETATM   19  C9  UNL     1      37.879  31.640 -22.843  1.00  0.00     0.203 C 
BRANCH  19  20
HETATM   20  O3  UNL     1      37.818  30.706 -23.982  1.00  0.00    -0.387 OA
ATOM     21  H3  UNL     1      38.471  31.020 -24.595  1.00  0.00     0.210 HD
ENDBRANCH  19  20
BRANCH  19  22
HETATM   22  C10 UNL     1      39.349  31.850 -22.712  1.00  0.00     0.176 C 
BRANCH  22  23
HETATM   23  O4  UNL     1      40.015  31.953 -23.869  1.00  0.00    -0.390 OA
ATOM     24  H4  UNL     1      40.724  32.585 -23.871  1.00  0.00     0.210 HD
ENDBRANCH  22  23
BRANCH  22  25
HETATM   25  C11 UNL     1      39.587  33.092 -21.854  1.00  0.00     0.198 C 
BRANCH  25  26
HETATM   26  O5  UNL     1      38.648  34.060 -22.281  1.00  0.00    -0.398 OA
ATOM     27  H5  UNL     1      39.100  34.895 -22.273  1.00  0.00     0.209 HD
ENDBRANCH  25  26
ENDBRANCH  22  25
ENDBRANCH  19  22
ENDBRANCH   9  19
BRANCH   8  28
HETATM   28  N5  UNL     1      36.093  32.973 -20.769  1.00  0.00    -0.348 N 
ATOM     29  H5  UNL     1      35.772  33.460 -21.606  1.00  0.00     0.163 HD
BRANCH  28  30
HETATM   30  C6  UNL     1      36.277  33.724 -19.559  1.00  0.00     0.215 C 
HETATM   31  C7  UNL     1      36.235  35.215 -19.927  1.00  0.00     0.063 C 
BRANCH  30  32
HETATM   32  O2  UNL     1      35.192  33.554 -18.683  1.00  0.00    -0.377 OA
ATOM     33  H2  UNL     1      35.258  32.734 -18.208  1.00  0.00     0.212 HD
ENDBRANCH  30  32
ENDBRANCH  28  30
ENDBRANCH   8  28
BRANCH  12  34
HETATM   34  C14 UNL     1      39.402  27.344 -20.524  1.00  0.00     0.095 C 
HETATM   35  N7  UNL     1      39.898  28.451 -20.178  1.00  0.00    -0.408 N 
ATOM     36  H72 UNL     1      39.343  29.304 -20.235  1.00  0.00     0.155 HD
ATOM     37  H71 UNL     1      40.862  28.451 -19.844  1.00  0.00     0.155 HD
ENDBRANCH  12  34
BRANCH   1  38
HETATM   38  N1  UNL     1      32.703  26.888 -19.057  1.00  0.00    -0.157 N 
HETATM   39  C2  UNL     1      32.080  26.066 -18.103  1.00  0.00     0.232 C 
HETATM   40  C1  UNL     1      30.607  26.232 -17.907  1.00  0.00     0.118 C 
HETATM   41  O1  UNL     1      32.699  25.230 -17.438  1.00  0.00    -0.273 OA
ATOM     42  H1  UNL     1      32.129  27.559 -19.566  1.00  0.00     0.187 HD
ENDBRANCH   1  38
TORSDOF 11
ENDMDL
MODEL 4
REMARK VINA RESULT: -5.491853388      4.096      5.468
REMARK  11 active torsions:
REMARK  status: ('A' for Active; 'I' for Inactive)
REMARK       I    between atoms: C2_2  and  N1_4 
REMARK    1  A    between atoms: N1_4  and  C3_6 
REMARK    2  A    between atoms: C5_13  and  N5_14 
REMARK    3  A    between atoms: N5_14  and  C6_16 
REMARK    4  A    between atoms: C6_16  and  O2_18 
REMARK    5  A    between atoms: C8_20  and  C9_21 
REMARK    6  A    between atoms: C9_21  and  O3_22 
REMARK    7  A    between atoms: C9_21  and  C10_24 
REMARK    8  A    between atoms: C10_24  and  O4_25 
REMARK    9  A    between atoms: C10_24  and  C11_27 
REMARK   10  A    between atoms: C11_27  and  O5_28 
REMARK   11  A    between atoms: C13_32  and  C14_33 
ROOT
HETATM    1  C3  UNL     1      32.872  26.559 -25.368  1.00  0.00     0.720 C 
HETATM    2  N2  UNL     1      33.470  26.976 -24.245  1.00  0.00    -0.113 N 
ATOM      3  H2  UNL     1      32.914  27.087 -23.397  1.00  0.00     0.206 HD
HETATM    4  N3  UNL     1      34.856  27.267 -24.204  1.00  0.00    -0.096 N 
HETATM    5  C4  UNL     1      35.219  27.963 -22.995  1.00  0.00     0.704 A 
HETATM    6  N4  UNL     1      34.751  27.761 -21.742  1.00  0.00    -0.173 N 
ATOM      7  H4  UNL     1      34.064  27.066 -21.448  1.00  0.00     0.186 HD
HETATM    8  C5  UNL     1      35.369  28.654 -20.970  1.00  0.00     0.145 A 
HETATM    9  C8  UNL     1      36.238  29.421 -21.771  1.00  0.00     0.104 A 
HETATM   10  N6  UNL     1      36.120  28.966 -23.017  1.00  0.00    -0.176 N 
HETATM   11  C12 UNL     1      36.608  29.301 -24.327  1.00  0.00     0.194 C 
HETATM   12  C13 UNL     1      36.851  28.169 -25.254  1.00  0.00     0.140 C 
HETATM   13  O6  UNL     1      36.306  28.341 -26.548  1.00  0.00    -0.336 OA
HETATM   14  C15 UNL     1      35.669  27.079 -26.564  1.00  0.00     0.319 C 
HETATM   15  O7  UNL     1      34.432  27.170 -27.110  1.00  0.00    -0.231 OA
HETATM   16  N8  UNL     1      33.524  26.316 -26.598  1.00  0.00    -0.092 N 
ATOM     17  H8  UNL     1      33.300  25.466 -27.115  1.00  0.00     0.213 HD
HETATM   18  C16 UNL     1      35.893  27.001 -25.134  1.00  0.00     0.226 C 
ENDROOT
BRANCH   9  19
HETATM   19  C9  UNL     1      36.953  30.597 -21.263  1.00  0.00     0.203 C 
BRANCH  19  20
HETATM   20  O3  UNL     1      37.488  30.186 -19.952  1.00  0.00    -0.387 OA
ATOM     21  H3  UNL     1      37.211  30.863 -19.347  1.00  0.00     0.210 HD
ENDBRANCH  19  20
BRANCH  19  22
HETATM   22  C10 UNL     1      36.115  31.770 -20.884  1.00  0.00     0.176 C 
BRANCH  22  23
HETATM   23  O4  UNL     1      35.629  31.746 -19.637  1.00  0.00    -0.390 OA
ATOM     24  H4  UNL     1      35.611  30.889 -19.227  1.00  0.00     0.210 HD
ENDBRANCH  22  23
BRANCH  22  25
HETATM   25  C11 UNL     1      36.932  33.042 -21.106  1.00  0.00     0.198 C 
BRANCH  25  26
HETATM   26  O5  UNL     1      38.087  32.922 -20.295  1.00  0.00    -0.398 OA
ATOM     27  H5  UNL     1      38.187  33.753 -19.846  1.00  0.00     0.209 HD
ENDBRANCH  25  26
ENDBRANCH  22  25
ENDBRANCH  19  22
ENDBRANCH   9  19
BRANCH   8  28
HETATM   28  N5  UNL     1      35.181  28.784 -19.578  1.00  0.00    -0.348 N 
ATOM     29  H5  UNL     1      34.947  29.701 -19.197  1.00  0.00     0.163 HD
BRANCH  28  30
HETATM   30  C6  UNL     1      35.305  27.673 -18.676  1.00  0.00     0.215 C 
HETATM   31  C7  UNL     1      33.887  27.211 -18.309  1.00  0.00     0.063 C 
BRANCH  30  32
HETATM   32  O2  UNL     1      35.877  26.559 -19.314  1.00  0.00    -0.377 OA
ATOM     33  H2  UNL     1      35.319  26.239 -20.013  1.00  0.00     0.212 HD
ENDBRANCH  30  32
ENDBRANCH  28  30
ENDBRANCH   8  28
BRANCH  12  34
HETATM   34  C14 UNL     1      38.238  27.650 -25.240  1.00  0.00     0.095 C 
HETATM   35  N7  UNL     1      38.537  26.812 -24.345  1.00  0.00    -0.408 N 
ATOM     36  H72 UNL     1      37.838  26.513 -23.666  1.00  0.00     0.155 HD
ATOM     37  H71 UNL     1      39.493  26.455 -24.335  1.00  0.00     0.155 HD
ENDBRANCH  12  34
BRANCH   1  38
HETATM   38  N1  UNL     1      31.495  26.321 -25.217  1.00  0.00    -0.157 N 
HETATM   39  C2  UNL     1      30.930  25.035 -25.205  1.00  0.00     0.232 C 
HETATM   40  C1  UNL     1      29.448  24.934 -25.043  1.00  0.00     0.118 C 
HETATM   41  O1  UNL     1      31.608  24.010 -25.323  1.00  0.00    -0.273 OA
ATOM     42  H1  UNL     1      30.874  27.123 -25.110  1.00  0.00     0.187 HD
ENDBRANCH   1  38
TORSDOF 11
ENDMDL
MODEL 5
REMARK VINA RESULT: -5.390285412      2.815      5.661
REMARK  11 active torsions:
REMARK  status: ('A' for Active; 'I' for Inactive)
REMARK       I    between atoms: C2_2  and  N1_4 
REMARK    1  A    between atoms: N1_4  and  C3_6 
REMARK    2  A    between atoms: C5_13  and  N5_14 
REMARK    3  A    between atoms: N5_14  and  C6_16 
REMARK    4  A    between atoms: C6_16  and  O2_18 
REMARK    5  A    between atoms: C8_20  and  C9_21 
REMARK    6  A    between atoms: C9_21  and  O3_22 
REMARK    7  A    between atoms: C9_21  and  C10_24 
REMARK    8  A    between atoms: C10_24  and  O4_25 
REMARK    9  A    between atoms: C10_24  and  C11_27 
REMARK   10  A    between atoms: C11_27  and  O5_28 
REMARK   11  A    between atoms: C13_32  and  C14_33 
ROOT
HETATM    1  C3  UNL     1      39.490  27.820 -20.017  1.00  0.00     0.720 C 
HETATM    2  N2  UNL     1      39.262  29.007 -20.596  1.00  0.00    -0.113 N 
ATOM      3  H2  UNL     1      40.036  29.660 -20.711  1.00  0.00     0.206 HD
HETATM    4  N3  UNL     1      37.972  29.376 -21.051  1.00  0.00    -0.096 N 
HETATM    5  C4  UNL     1      37.903  30.781 -21.369  1.00  0.00     0.704 A 
HETATM    6  N4  UNL     1      38.843  31.551 -21.963  1.00  0.00    -0.173 N 
ATOM      7  H4  UNL     1      39.760  31.253 -22.295  1.00  0.00     0.186 HD
HETATM    8  C5  UNL     1      38.328  32.779 -22.026  1.00  0.00     0.145 A 
HETATM    9  C8  UNL     1      37.038  32.758 -21.457  1.00  0.00     0.104 A 
HETATM   10  N6  UNL     1      36.809  31.508 -21.061  1.00  0.00    -0.176 N 
HETATM   11  C12 UNL     1      35.790  30.782 -20.352  1.00  0.00     0.194 C 
HETATM   12  C13 UNL     1      35.560  29.378 -20.774  1.00  0.00     0.140 C 
HETATM   13  O6  UNL     1      35.505  28.446 -19.711  1.00  0.00    -0.336 OA
HETATM   14  C15 UNL     1      36.427  27.554 -20.303  1.00  0.00     0.319 C 
HETATM   15  O7  UNL     1      37.285  27.062 -19.376  1.00  0.00    -0.231 OA
HETATM   16  N8  UNL     1      38.526  26.803 -19.835  1.00  0.00    -0.092 N 
ATOM     17  H8  UNL     1      38.777  25.840 -20.060  1.00  0.00     0.213 HD
HETATM   18  C16 UNL     1      36.789  28.615 -21.223  1.00  0.00     0.226 C 
ENDROOT
BRANCH   9  19
HETATM   19  C9  UNL     1      36.256  33.977 -21.224  1.00  0.00     0.203 C 
BRANCH  19  20
HETATM   20  O3  UNL     1      36.658  34.904 -22.297  1.00  0.00    -0.387 OA
ATOM     21  H3  UNL     1      36.150  34.640 -23.055  1.00  0.00     0.210 HD
ENDBRANCH  19  20
BRANCH  19  22
HETATM   22  C10 UNL     1      36.604  34.766 -20.008  1.00  0.00     0.176 C 
BRANCH  22  23
HETATM   23  O4  UNL     1      37.000  36.024 -20.238  1.00  0.00    -0.390 OA
ATOM     24  H4  UNL     1      37.362  36.478 -19.487  1.00  0.00     0.210 HD
ENDBRANCH  22  23
BRANCH  22  25
HETATM   25  C11 UNL     1      35.404  34.757 -19.063  1.00  0.00     0.198 C 
BRANCH  25  26
HETATM   26  O5  UNL     1      35.305  33.439 -18.554  1.00  0.00    -0.398 OA
ATOM     27  H5  UNL     1      35.151  33.522 -17.620  1.00  0.00     0.209 HD
ENDBRANCH  25  26
ENDBRANCH  22  25
ENDBRANCH  19  22
ENDBRANCH   9  19
BRANCH   8  28
HETATM   28  N5  UNL     1      38.976  33.898 -22.588  1.00  0.00    -0.348 N 
ATOM     29  H5  UNL     1      38.738  34.177 -23.540  1.00  0.00     0.163 HD
BRANCH  28  30
HETATM   30  C6  UNL     1      39.960  34.660 -21.871  1.00  0.00     0.215 C 
HETATM   31  C7  UNL     1      41.174  34.840 -22.796  1.00  0.00     0.063 C 
BRANCH  30  32
HETATM   32  O2  UNL     1      39.513  35.970 -21.629  1.00  0.00    -0.377 OA
ATOM     33  H2  UNL     1      38.894  36.251 -22.292  1.00  0.00     0.212 HD
ENDBRANCH  30  32
ENDBRANCH  28  30
ENDBRANCH   8  28
BRANCH  12  34
HETATM   34  C14 UNL     1      34.496  29.209 -21.790  1.00  0.00     0.095 C 
HETATM   35  N7  UNL     1      34.817  28.672 -22.885  1.00  0.00    -0.408 N 
ATOM     36  H72 UNL     1      35.777  28.370 -23.048  1.00  0.00     0.155 HD
ATOM     37  H71 UNL     1      34.084  28.556 -23.585  1.00  0.00     0.155 HD
ENDBRANCH  12  34
BRANCH   1  38
HETATM   38  N1  UNL     1      40.827  27.631 -19.630  1.00  0.00    -0.157 N 
HETATM   39  C2  UNL     1      41.903  27.661 -20.533  1.00  0.00     0.232 C 
HETATM   40  C1  UNL     1      43.273  27.437 -19.980  1.00  0.00     0.118 C 
HETATM   41  O1  UNL     1      41.752  27.862 -21.741  1.00  0.00    -0.273 OA
ATOM     42  H1  UNL     1      41.027  27.464 -18.644  1.00  0.00     0.187 HD
ENDBRANCH   1  38
TORSDOF 11
ENDMDL
