MODEL 1
REMARK VINA RESULT: -10.235433810      0.000      0.000
REMARK  7 active torsions:
REMARK  status: ('A' for Active; 'I' for Inactive)
REMARK    1  A    between atoms: C2_5  and  C3_6 
REMARK    2  A    between atoms: C3_6  and  C4_7 
REMARK    3  A    between atoms: C4_7  and  C5_9 
REMARK    4  A    between atoms: C13_19  and  C14_20 
REMARK    5  A    between atoms: C20_26  and  C21_27 
REMARK    6  A    between atoms: C21_27  and  O2_28 
REMARK    7  A    between atoms: C21_27  and  C22_30 
ROOT
HETATM    1  N1  UNL     1      11.092  24.183  38.117  1.00  0.00    -0.082 NA
HETATM    2  C1  UNL     1      11.083  24.701  36.797  1.00  0.00     0.130 A 
HETATM    3  N2  UNL     1      10.300  25.680  36.313  1.00  0.00    -0.346 N 
ATOM      4  H2  UNL     1       9.600  26.183  36.859  1.00  0.00     0.167 HD
HETATM    5  C2  UNL     1      10.556  25.907  35.037  1.00  0.00     0.030 A 
HETATM    6  C13 UNL     1      11.581  25.024  34.619  1.00  0.00     0.013 A 
HETATM    7  C20 UNL     1      11.901  24.283  35.716  1.00  0.00     0.052 A 
ENDROOT
BRANCH   5   8
HETATM    8  C3  UNL     1       9.933  26.932  34.160  1.00  0.00     0.142 C 
BRANCH   8   9
HETATM    9  C4  UNL     1       8.476  27.020  34.527  1.00  0.00     0.167 C 
HETATM   10  O1  UNL     1       8.140  27.733  35.492  1.00  0.00    -0.292 OA
BRANCH   9  11
HETATM   11  C5  UNL     1       7.523  26.270  33.724  1.00  0.00     0.038 A 
HETATM   12  C6  UNL     1       7.393  26.272  32.350  1.00  0.00     0.104 A 
HETATM   13  N3  UNL     1       6.369  25.455  31.985  1.00  0.00    -0.364 N 
HETATM   14  C7  UNL     1       5.860  24.943  33.113  1.00  0.00     0.043 A 
ATOM     15  H3  UNL     1       6.050  25.268  31.034  1.00  0.00     0.165 HD
HETATM   16  C8  UNL     1       4.795  24.060  33.282  1.00  0.00     0.030 A 
HETATM   17  C12 UNL     1       6.551  25.425  34.215  1.00  0.00     0.006 A 
HETATM   18  C9  UNL     1       4.437  23.670  34.532  1.00  0.00     0.002 A 
HETATM   19  C10 UNL     1       5.114  24.138  35.652  1.00  0.00     0.001 A 
HETATM   20  C11 UNL     1       6.161  25.010  35.456  1.00  0.00     0.014 A 
ENDBRANCH   9  11
ENDBRANCH   8   9
ENDBRANCH   5   8
BRANCH   6  21
HETATM   21  C14 UNL     1      12.128  25.044  33.275  1.00  0.00    -0.023 A 
HETATM   22  C15 UNL     1      13.161  25.907  32.893  1.00  0.00     0.012 A 
HETATM   23  C16 UNL     1      13.735  25.937  31.669  1.00  0.00     0.001 A 
HETATM   24  C17 UNL     1      13.271  25.050  30.715  1.00  0.00     0.000 A 
HETATM   25  C18 UNL     1      12.251  24.166  31.015  1.00  0.00     0.001 A 
HETATM   26  C19 UNL     1      11.681  24.165  32.299  1.00  0.00     0.012 A 
ENDBRANCH   6  21
BRANCH   7  27
HETATM   27  C21 UNL     1      12.946  23.312  35.897  1.00  0.00     0.090 C 
BRANCH  27  28
HETATM   28  O2  UNL     1      13.524  23.334  37.128  1.00  0.00    -0.359 OA
ATOM     29  H2  UNL     1      13.402  22.538  37.632  1.00  0.00     0.217 HD
ENDBRANCH  27  28
BRANCH  27  30
HETATM   30  C22 UNL     1      13.555  22.312  35.111  1.00  0.00    -0.002 A 
HETATM   31  C23 UNL     1      13.099  20.988  35.224  1.00  0.00     0.014 A 
HETATM   32  C24 UNL     1      13.563  19.953  34.451  1.00  0.00     0.001 A 
HETATM   33  C25 UNL     1      14.538  20.212  33.497  1.00  0.00     0.000 A 
HETATM   34  C26 UNL     1      15.023  21.490  33.340  1.00  0.00     0.001 A 
HETATM   35  C27 UNL     1      14.516  22.501  34.151  1.00  0.00     0.014 A 
ENDBRANCH  27  30
ENDBRANCH   7  27
TORSDOF 7
ENDMDL
MODEL 2
REMARK VINA RESULT: -10.050864335      2.818      4.815
REMARK  7 active torsions:
REMARK  status: ('A' for Active; 'I' for Inactive)
REMARK    1  A    between atoms: C2_5  and  C3_6 
REMARK    2  A    between atoms: C3_6  and  C4_7 
REMARK    3  A    between atoms: C4_7  and  C5_9 
REMARK    4  A    between atoms: C13_19  and  C14_20 
REMARK    5  A    between atoms: C20_26  and  C21_27 
REMARK    6  A    between atoms: C21_27  and  O2_28 
REMARK    7  A    between atoms: C21_27  and  C22_30 
ROOT
HETATM    1  N1  UNL     1      15.414  20.723  31.980  1.00  0.00    -0.082 NA
HETATM    2  C1  UNL     1      14.771  21.818  32.613  1.00  0.00     0.130 A 
HETATM    3  N2  UNL     1      14.681  23.081  32.162  1.00  0.00    -0.346 N 
ATOM      4  H2  UNL     1      15.077  23.408  31.280  1.00  0.00     0.167 HD
HETATM    5  C2  UNL     1      14.013  23.842  33.010  1.00  0.00     0.030 A 
HETATM    6  C13 UNL     1      13.621  23.049  34.115  1.00  0.00     0.013 A 
HETATM    7  C20 UNL     1      14.094  21.797  33.859  1.00  0.00     0.052 A 
ENDROOT
BRANCH   5   8
HETATM    8  C3  UNL     1      13.669  25.279  32.854  1.00  0.00     0.142 C 
BRANCH   8   9
HETATM    9  C4  UNL     1      12.457  25.362  31.965  1.00  0.00     0.167 C 
HETATM   10  O1  UNL     1      12.614  25.351  30.729  1.00  0.00    -0.292 OA
BRANCH   9  11
HETATM   11  C5  UNL     1      11.150  25.444  32.600  1.00  0.00     0.038 A 
HETATM   12  C6  UNL     1      10.056  24.631  32.382  1.00  0.00     0.104 A 
HETATM   13  N3  UNL     1       9.015  25.047  33.153  1.00  0.00    -0.364 N 
HETATM   14  C7  UNL     1       9.447  26.107  33.848  1.00  0.00     0.043 A 
ATOM     15  H3  UNL     1       8.085  24.630  33.193  1.00  0.00     0.165 HD
HETATM   16  C8  UNL     1       8.763  26.898  34.769  1.00  0.00     0.030 A 
HETATM   17  C12 UNL     1      10.768  26.385  33.532  1.00  0.00     0.006 A 
HETATM   18  C9  UNL     1       9.398  27.942  35.360  1.00  0.00     0.002 A 
HETATM   19  C10 UNL     1      10.722  28.241  35.060  1.00  0.00     0.001 A 
HETATM   20  C11 UNL     1      11.373  27.443  34.147  1.00  0.00     0.014 A 
ENDBRANCH   9  11
ENDBRANCH   8   9
ENDBRANCH   5   8
BRANCH   6  21
HETATM   21  C14 UNL     1      12.830  23.577  35.212  1.00  0.00    -0.023 A 
HETATM   22  C15 UNL     1      13.376  24.387  36.215  1.00  0.00     0.012 A 
HETATM   23  C16 UNL     1      12.677  24.939  37.232  1.00  0.00     0.001 A 
HETATM   24  C17 UNL     1      11.319  24.688  37.295  1.00  0.00     0.000 A 
HETATM   25  C18 UNL     1      10.705  23.896  36.342  1.00  0.00     0.001 A 
HETATM   26  C19 UNL     1      11.466  23.342  35.300  1.00  0.00     0.012 A 
ENDBRANCH   6  21
BRANCH   7  27
HETATM   27  C21 UNL     1      13.896  20.574  34.587  1.00  0.00     0.090 C 
BRANCH  27  28
HETATM   28  O2  UNL     1      12.979  20.659  35.588  1.00  0.00    -0.359 OA
ATOM     29  H2  UNL     1      13.288  20.346  36.430  1.00  0.00     0.217 HD
ENDBRANCH  27  28
BRANCH  27  30
HETATM   30  C22 UNL     1      14.421  19.265  34.543  1.00  0.00    -0.002 A 
HETATM   31  C23 UNL     1      13.535  18.183  34.418  1.00  0.00     0.014 A 
HETATM   32  C24 UNL     1      13.940  16.878  34.283  1.00  0.00     0.001 A 
HETATM   33  C25 UNL     1      15.299  16.595  34.269  1.00  0.00     0.000 A 
HETATM   34  C26 UNL     1      16.214  17.615  34.387  1.00  0.00     0.001 A 
HETATM   35  C27 UNL     1      15.748  18.919  34.520  1.00  0.00     0.014 A 
ENDBRANCH  27  30
ENDBRANCH   7  27
TORSDOF 7
ENDMDL
MODEL 3
REMARK VINA RESULT: -10.021891990      2.768      4.710
REMARK  7 active torsions:
REMARK  status: ('A' for Active; 'I' for Inactive)
REMARK    1  A    between atoms: C2_5  and  C3_6 
REMARK    2  A    between atoms: C3_6  and  C4_7 
REMARK    3  A    between atoms: C4_7  and  C5_9 
REMARK    4  A    between atoms: C13_19  and  C14_20 
REMARK    5  A    between atoms: C20_26  and  C21_27 
REMARK    6  A    between atoms: C21_27  and  O2_28 
REMARK    7  A    between atoms: C21_27  and  C22_30 
ROOT
HETATM    1  N1  UNL     1      15.106  20.488  32.101  1.00  0.00    -0.082 NA
HETATM    2  C1  UNL     1      14.533  21.614  32.747  1.00  0.00     0.130 A 
HETATM    3  N2  UNL     1      14.684  22.907  32.414  1.00  0.00    -0.346 N 
ATOM      4  H2  UNL     1      15.244  23.240  31.629  1.00  0.00     0.167 HD
HETATM    5  C2  UNL     1      14.011  23.692  33.237  1.00  0.00     0.030 A 
HETATM    6  C13 UNL     1      13.358  22.882  34.197  1.00  0.00     0.013 A 
HETATM    7  C20 UNL     1      13.686  21.598  33.885  1.00  0.00     0.052 A 
ENDROOT
BRANCH   5   8
HETATM    8  C3  UNL     1      13.893  25.171  33.179  1.00  0.00     0.142 C 
BRANCH   8   9
HETATM    9  C4  UNL     1      12.589  25.497  32.502  1.00  0.00     0.167 C 
HETATM   10  O1  UNL     1      12.409  25.122  31.328  1.00  0.00    -0.292 OA
BRANCH   9  11
HETATM   11  C5  UNL     1      11.591  26.234  33.262  1.00  0.00     0.038 A 
HETATM   12  C6  UNL     1      11.796  27.312  34.098  1.00  0.00     0.104 A 
HETATM   13  N3  UNL     1      10.612  27.704  34.641  1.00  0.00    -0.364 N 
HETATM   14  C7  UNL     1       9.673  26.884  34.154  1.00  0.00     0.043 A 
ATOM     15  H3  UNL     1      10.468  28.474  35.295  1.00  0.00     0.165 HD
HETATM   16  C8  UNL     1       8.302  26.860  34.406  1.00  0.00     0.030 A 
HETATM   17  C12 UNL     1      10.241  25.957  33.293  1.00  0.00     0.006 A 
HETATM   18  C9  UNL     1       7.524  25.926  33.803  1.00  0.00     0.002 A 
HETATM   19  C10 UNL     1       8.070  24.987  32.936  1.00  0.00     0.001 A 
HETATM   20  C11 UNL     1       9.426  25.033  32.705  1.00  0.00     0.014 A 
ENDBRANCH   9  11
ENDBRANCH   8   9
ENDBRANCH   5   8
BRANCH   6  21
HETATM   21  C14 UNL     1      12.496  23.435  35.227  1.00  0.00    -0.023 A 
HETATM   22  C15 UNL     1      12.986  24.204  36.288  1.00  0.00     0.012 A 
HETATM   23  C16 UNL     1      12.224  24.777  37.248  1.00  0.00     0.001 A 
HETATM   24  C17 UNL     1      10.855  24.594  37.182  1.00  0.00     0.000 A 
HETATM   25  C18 UNL     1      10.294  23.846  36.163  1.00  0.00     0.001 A 
HETATM   26  C19 UNL     1      11.120  23.268  35.185  1.00  0.00     0.012 A 
ENDBRANCH   6  21
BRANCH   7  27
HETATM   27  C21 UNL     1      13.220  20.364  34.457  1.00  0.00     0.090 C 
BRANCH  27  28
HETATM   28  O2  UNL     1      11.894  20.354  34.760  1.00  0.00    -0.359 OA
ATOM     29  H2  UNL     1      11.532  19.487  34.901  1.00  0.00     0.217 HD
ENDBRANCH  27  28
BRANCH  27  30
HETATM   30  C22 UNL     1      13.790  19.122  34.803  1.00  0.00    -0.002 A 
HETATM   31  C23 UNL     1      13.927  18.137  33.812  1.00  0.00     0.014 A 
HETATM   32  C24 UNL     1      14.539  16.926  34.018  1.00  0.00     0.001 A 
HETATM   33  C25 UNL     1      15.058  16.642  35.274  1.00  0.00     0.000 A 
HETATM   34  C26 UNL     1      14.954  17.569  36.286  1.00  0.00     0.001 A 
HETATM   35  C27 UNL     1      14.323  18.780  36.020  1.00  0.00     0.014 A 
ENDBRANCH  27  30
ENDBRANCH   7  27
TORSDOF 7
ENDMDL
MODEL 4
REMARK VINA RESULT: -9.931480364      1.872      6.721
REMARK  7 active torsions:
REMARK  status: ('A' for Active; 'I' for Inactive)
REMARK    1  A    between atoms: C2_5  and  C3_6 
REMARK    2  A    between atoms: C3_6  and  C4_7 
REMARK    3  A    between atoms: C4_7  and  C5_9 
REMARK    4  A    between atoms: C13_19  and  C14_20 
REMARK    5  A    between atoms: C20_26  and  C21_27 
REMARK    6  A    between atoms: C21_27  and  O2_28 
REMARK    7  A    between atoms: C21_27  and  C22_30 
ROOT
HETATM    1  N1  UNL     1       9.144  28.010  37.310  1.00  0.00    -0.082 NA
HETATM    2  C1  UNL     1       9.838  26.849  36.883  1.00  0.00     0.130 A 
HETATM    3  N2  UNL     1      10.924  26.295  37.449  1.00  0.00    -0.346 N 
ATOM      4  H2  UNL     1      11.388  26.657  38.282  1.00  0.00     0.167 HD
HETATM    5  C2  UNL     1      11.310  25.220  36.786  1.00  0.00     0.030 A 
HETATM    6  C13 UNL     1      10.432  25.026  35.692  1.00  0.00     0.013 A 
HETATM    7  C20 UNL     1       9.523  26.039  35.762  1.00  0.00     0.052 A 
ENDROOT
BRANCH   5   8
HETATM    8  C3  UNL     1      12.439  24.313  37.116  1.00  0.00     0.142 C 
BRANCH   8   9
HETATM    9  C4  UNL     1      13.683  24.890  36.497  1.00  0.00     0.167 C 
HETATM   10  O1  UNL     1      14.617  25.245  37.240  1.00  0.00    -0.292 OA
BRANCH   9  11
HETATM   11  C5  UNL     1      13.737  24.997  35.047  1.00  0.00     0.038 A 
HETATM   12  C6  UNL     1      13.453  26.104  34.273  1.00  0.00     0.104 A 
HETATM   13  N3  UNL     1      13.599  25.793  32.957  1.00  0.00    -0.364 N 
HETATM   14  C7  UNL     1      13.971  24.508  32.901  1.00  0.00     0.043 A 
ATOM     15  H3  UNL     1      13.453  26.420  32.165  1.00  0.00     0.165 HD
HETATM   16  C8  UNL     1      14.239  23.713  31.788  1.00  0.00     0.030 A 
HETATM   17  C12 UNL     1      14.068  23.979  34.179  1.00  0.00     0.006 A 
HETATM   18  C9  UNL     1      14.599  22.416  31.961  1.00  0.00     0.002 A 
HETATM   19  C10 UNL     1      14.703  21.862  33.232  1.00  0.00     0.001 A 
HETATM   20  C11 UNL     1      14.433  22.670  34.312  1.00  0.00     0.014 A 
ENDBRANCH   9  11
ENDBRANCH   8   9
ENDBRANCH   5   8
BRANCH   6  21
HETATM   21  C14 UNL     1      10.555  23.901  34.783  1.00  0.00    -0.023 A 
HETATM   22  C15 UNL     1      10.407  24.031  33.397  1.00  0.00     0.012 A 
HETATM   23  C16 UNL     1      10.554  23.027  32.503  1.00  0.00     0.001 A 
HETATM   24  C17 UNL     1      10.875  21.773  32.987  1.00  0.00     0.000 A 
HETATM   25  C18 UNL     1      11.038  21.563  34.344  1.00  0.00     0.001 A 
HETATM   26  C19 UNL     1      10.878  22.632  35.240  1.00  0.00     0.012 A 
ENDBRANCH   6  21
BRANCH   7  27
HETATM   27  C21 UNL     1       8.346  26.274  34.972  1.00  0.00     0.090 C 
BRANCH  27  28
HETATM   28  O2  UNL     1       8.294  27.505  34.396  1.00  0.00    -0.359 OA
ATOM     29  H2  UNL     1       7.544  27.640  33.829  1.00  0.00     0.217 HD
ENDBRANCH  27  28
BRANCH  27  30
HETATM   30  C22 UNL     1       7.188  25.545  34.626  1.00  0.00    -0.002 A 
HETATM   31  C23 UNL     1       6.958  25.239  33.276  1.00  0.00     0.014 A 
HETATM   32  C24 UNL     1       5.910  24.468  32.836  1.00  0.00     0.001 A 
HETATM   33  C25 UNL     1       5.017  23.955  33.768  1.00  0.00     0.000 A 
HETATM   34  C26 UNL     1       5.193  24.222  35.106  1.00  0.00     0.001 A 
HETATM   35  C27 UNL     1       6.273  25.009  35.495  1.00  0.00     0.014 A 
ENDBRANCH  27  30
ENDBRANCH   7  27
TORSDOF 7
ENDMDL
MODEL 5
REMARK VINA RESULT: -9.736924894      2.040      7.317
REMARK  7 active torsions:
REMARK  status: ('A' for Active; 'I' for Inactive)
REMARK    1  A    between atoms: C2_5  and  C3_6 
REMARK    2  A    between atoms: C3_6  and  C4_7 
REMARK    3  A    between atoms: C4_7  and  C5_9 
REMARK    4  A    between atoms: C13_19  and  C14_20 
REMARK    5  A    between atoms: C20_26  and  C21_27 
REMARK    6  A    between atoms: C21_27  and  O2_28 
REMARK    7  A    between atoms: C21_27  and  C22_30 
ROOT
HETATM    1  N1  UNL     1       8.305  24.770  36.503  1.00  0.00    -0.082 NA
HETATM    2  C1  UNL     1       9.544  24.524  35.858  1.00  0.00     0.130 A 
HETATM    3  N2  UNL     1      10.532  23.713  36.276  1.00  0.00    -0.346 N 
ATOM      4  H2  UNL     1      10.501  23.160  37.133  1.00  0.00     0.167 HD
HETATM    5  C2  UNL     1      11.547  23.726  35.432  1.00  0.00     0.030 A 
HETATM    6  C13 UNL     1      11.236  24.604  34.366  1.00  0.00     0.013 A 
HETATM    7  C20 UNL     1       9.993  25.092  34.639  1.00  0.00     0.052 A 
ENDROOT
BRANCH   5   8
HETATM    8  C3  UNL     1      12.804  22.938  35.519  1.00  0.00     0.142 C 
BRANCH   8   9
HETATM    9  C4  UNL     1      12.605  21.676  34.724  1.00  0.00     0.167 C 
HETATM   10  O1  UNL     1      11.448  21.242  34.560  1.00  0.00    -0.292 OA
BRANCH   9  11
HETATM   11  C5  UNL     1      13.783  21.023  34.174  1.00  0.00     0.038 A 
HETATM   12  C6  UNL     1      14.818  21.605  33.471  1.00  0.00     0.104 A 
HETATM   13  N3  UNL     1      15.719  20.653  33.109  1.00  0.00    -0.364 N 
HETATM   14  C7  UNL     1      15.260  19.486  33.577  1.00  0.00     0.043 A 
ATOM     15  H3  UNL     1      16.580  20.801  32.582  1.00  0.00     0.165 HD
HETATM   16  C8  UNL     1      15.810  18.210  33.466  1.00  0.00     0.030 A 
HETATM   17  C12 UNL     1      14.059  19.674  34.245  1.00  0.00     0.006 A 
HETATM   18  C9  UNL     1      15.165  17.150  34.017  1.00  0.00     0.002 A 
HETATM   19  C10 UNL     1      13.961  17.313  34.691  1.00  0.00     0.001 A 
HETATM   20  C11 UNL     1      13.441  18.584  34.786  1.00  0.00     0.014 A 
ENDBRANCH   9  11
ENDBRANCH   8   9
ENDBRANCH   5   8
BRANCH   6  21
HETATM   21  C14 UNL     1      12.130  24.814  33.241  1.00  0.00    -0.023 A 
HETATM   22  C15 UNL     1      12.148  23.971  32.124  1.00  0.00     0.012 A 
HETATM   23  C16 UNL     1      12.927  24.145  31.033  1.00  0.00     0.001 A 
HETATM   24  C17 UNL     1      13.775  25.237  31.012  1.00  0.00     0.000 A 
HETATM   25  C18 UNL     1      13.816  26.116  32.078  1.00  0.00     0.001 A 
HETATM   26  C19 UNL     1      12.990  25.901  33.193  1.00  0.00     0.012 A 
ENDBRANCH   6  21
BRANCH   7  27
HETATM   27  C21 UNL     1       9.143  25.937  33.846  1.00  0.00     0.090 C 
BRANCH  27  28
HETATM   28  O2  UNL     1       9.543  27.236  33.787  1.00  0.00    -0.359 OA
ATOM     29  H2  UNL     1       8.897  27.859  34.099  1.00  0.00     0.217 HD
ENDBRANCH  27  28
BRANCH  27  30
HETATM   30  C22 UNL     1       7.962  25.776  33.092  1.00  0.00    -0.002 A 
HETATM   31  C23 UNL     1       7.198  24.611  33.268  1.00  0.00     0.014 A 
HETATM   32  C24 UNL     1       5.994  24.387  32.648  1.00  0.00     0.001 A 
HETATM   33  C25 UNL     1       5.488  25.359  31.795  1.00  0.00     0.000 A 
HETATM   34  C26 UNL     1       6.193  26.522  31.583  1.00  0.00     0.001 A 
HETATM   35  C27 UNL     1       7.408  26.695  32.238  1.00  0.00     0.014 A 
ENDBRANCH  27  30
ENDBRANCH   7  27
TORSDOF 7
ENDMDL
