MODEL 1
REMARK VINA RESULT: -13.093835771      0.000      0.000
REMARK  5 active torsions:
REMARK  status: ('A' for Active; 'I' for Inactive)
REMARK       I    between atoms: C1_4  and  N3_6 
REMARK       I    between atoms: N3_6  and  C2_8 
REMARK    1  A    between atoms: C2_8  and  C3_10 
REMARK    2  A    between atoms: C6_13  and  C7_14 
REMARK    3  A    between atoms: C11_18  and  C12_19 
REMARK    4  A    between atoms: C16_23  and  O2_24 
REMARK    5  A    between atoms: O2_24  and  C17_25 
ROOT
HETATM    1  C7  UNL     1      13.961  21.714  33.477  1.00  0.00    -0.025 A 
HETATM    2  C8  UNL     1      14.641  22.263  32.413  1.00  0.00     0.012 A 
HETATM    3  C9  UNL     1      14.570  23.633  32.166  1.00  0.00     0.002 A 
HETATM    4  C10 UNL     1      13.822  24.466  32.975  1.00  0.00     0.012 A 
HETATM    5  C11 UNL     1      13.140  23.922  34.041  1.00  0.00    -0.025 A 
HETATM    6  C24 UNL     1      13.213  22.547  34.285  1.00  0.00     0.024 A 
ENDROOT
BRANCH   1   7
HETATM    7  C6  UNL     1      14.009  20.269  33.772  1.00  0.00    -0.026 A 
HETATM    8  C5  UNL     1      14.832  19.422  33.074  1.00  0.00     0.013 A 
HETATM    9  C4  UNL     1      14.877  18.071  33.350  1.00  0.00     0.018 A 
HETATM   10  C3  UNL     1      14.098  17.521  34.335  1.00  0.00     0.032 A 
HETATM   11  C26 UNL     1      13.272  18.372  35.036  1.00  0.00     0.018 A 
HETATM   12  C25 UNL     1      13.215  19.731  34.772  1.00  0.00     0.013 A 
BRANCH  10  13
HETATM   13  C2  UNL     1      14.132  16.113  34.636  1.00  0.00     0.258 C 
HETATM   14  N3  UNL     1      15.241  15.301  34.280  1.00  0.00    -0.297 N 
HETATM   15  C1  UNL     1      15.225  13.904  34.602  1.00  0.00     0.188 C 
ATOM     16  H3  UNL     1      16.042  15.708  33.799  1.00  0.00     0.171 HD
HETATM   17  N1  UNL     1      16.210  13.143  34.296  1.00  0.00    -0.373 N 
HETATM   18  N2  UNL     1      14.109  13.346  35.271  1.00  0.00    -0.064 NA
ATOM     19  H12 UNL     1      16.200  12.149  34.525  1.00  0.00     0.158 HD
ATOM     20  H11 UNL     1      17.014  13.545  33.814  1.00  0.00     0.158 HD
HETATM   21  O1  UNL     1      13.122  15.613  35.239  1.00  0.00    -0.267 OA
ENDBRANCH  10  13
ENDBRANCH   1   7
BRANCH   5  22
HETATM   22  C12 UNL     1      12.350  24.803  34.893  1.00  0.00    -0.023 A 
HETATM   23  C13 UNL     1      12.632  24.882  36.242  1.00  0.00     0.012 A 
HETATM   24  C14 UNL     1      11.868  25.732  37.049  1.00  0.00     0.004 A 
HETATM   25  C15 UNL     1      10.836  26.490  36.512  1.00  0.00     0.037 A 
HETATM   26  C16 UNL     1      10.559  26.408  35.165  1.00  0.00     0.076 A 
HETATM   27  C23 UNL     1      11.326  25.562  34.382  1.00  0.00     0.049 A 
BRANCH  26  28
HETATM   28  O2  UNL     1       9.524  27.174  34.643  1.00  0.00    -0.311 OA
BRANCH  28  29
HETATM   29  C17 UNL     1       8.357  26.590  34.145  1.00  0.00     0.076 A 
HETATM   30  C18 UNL     1       8.100  26.586  32.789  1.00  0.00     0.037 A 
HETATM   31  C19 UNL     1       6.937  25.999  32.341  1.00  0.00     0.003 A 
HETATM   32  C20 UNL     1       6.076  25.437  33.277  1.00  0.00     0.000 A 
HETATM   33  C21 UNL     1       6.323  25.437  34.621  1.00  0.00     0.003 A 
HETATM   34  C22 UNL     1       7.495  26.030  35.061  1.00  0.00     0.037 A 
ENDBRANCH  28  29
ENDBRANCH  26  28
ENDBRANCH   5  22
TORSDOF 5
ENDMDL
MODEL 2
REMARK VINA RESULT: -12.876216370      1.970      3.544
REMARK  5 active torsions:
REMARK  status: ('A' for Active; 'I' for Inactive)
REMARK       I    between atoms: C1_4  and  N3_6 
REMARK       I    between atoms: N3_6  and  C2_8 
REMARK    1  A    between atoms: C2_8  and  C3_10 
REMARK    2  A    between atoms: C6_13  and  C7_14 
REMARK    3  A    between atoms: C11_18  and  C12_19 
REMARK    4  A    between atoms: C16_23  and  O2_24 
REMARK    5  A    between atoms: O2_24  and  C17_25 
ROOT
HETATM    1  C7  UNL     1      12.882  23.827  33.710  1.00  0.00    -0.025 A 
HETATM    2  C8  UNL     1      13.753  24.871  33.932  1.00  0.00     0.012 A 
HETATM    3  C9  UNL     1      13.310  26.189  33.829  1.00  0.00     0.002 A 
HETATM    4  C10 UNL     1      11.999  26.478  33.505  1.00  0.00     0.012 A 
HETATM    5  C11 UNL     1      11.124  25.438  33.283  1.00  0.00    -0.025 A 
HETATM    6  C24 UNL     1      11.572  24.117  33.386  1.00  0.00     0.024 A 
ENDROOT
BRANCH   1   7
HETATM    7  C6  UNL     1      13.311  22.419  33.808  1.00  0.00    -0.026 A 
HETATM    8  C5  UNL     1      14.444  21.970  33.179  1.00  0.00     0.013 A 
HETATM    9  C4  UNL     1      14.845  20.653  33.270  1.00  0.00     0.018 A 
HETATM   10  C3  UNL     1      14.123  19.739  33.995  1.00  0.00     0.032 A 
HETATM   11  C26 UNL     1      12.985  20.191  34.626  1.00  0.00     0.018 A 
HETATM   12  C25 UNL     1      12.569  21.511  34.545  1.00  0.00     0.013 A 
BRANCH  10  13
HETATM   13  C2  UNL     1      14.526  18.361  34.100  1.00  0.00     0.258 C 
HETATM   14  N3  UNL     1      13.582  17.322  34.317  1.00  0.00    -0.297 N 
HETATM   15  C1  UNL     1      14.035  15.965  34.414  1.00  0.00     0.188 C 
ATOM     16  H3  UNL     1      12.590  17.540  34.402  1.00  0.00     0.171 HD
HETATM   17  N1  UNL     1      13.210  15.004  34.608  1.00  0.00    -0.373 N 
HETATM   18  N2  UNL     1      15.415  15.671  34.294  1.00  0.00    -0.064 NA
ATOM     19  H12 UNL     1      13.531  14.039  34.678  1.00  0.00     0.158 HD
ATOM     20  H11 UNL     1      12.216  15.216  34.695  1.00  0.00     0.158 HD
HETATM   21  O1  UNL     1      15.772  18.099  33.992  1.00  0.00    -0.267 OA
ENDBRANCH  10  13
ENDBRANCH   1   7
BRANCH   5  22
HETATM   22  C12 UNL     1       9.740  25.746  32.941  1.00  0.00    -0.023 A 
HETATM   23  C13 UNL     1       9.411  27.007  32.488  1.00  0.00     0.012 A 
HETATM   24  C14 UNL     1       8.080  27.290  32.163  1.00  0.00     0.004 A 
HETATM   25  C15 UNL     1       7.093  26.321  32.289  1.00  0.00     0.037 A 
HETATM   26  C16 UNL     1       7.427  25.063  32.742  1.00  0.00     0.076 A 
HETATM   27  C23 UNL     1       8.748  24.802  33.059  1.00  0.00     0.049 A 
BRANCH  26  28
HETATM   28  O2  UNL     1       6.427  24.105  32.863  1.00  0.00    -0.311 OA
BRANCH  28  29
HETATM   29  C17 UNL     1       5.297  24.319  33.655  1.00  0.00     0.076 A 
HETATM   30  C18 UNL     1       5.414  24.431  35.026  1.00  0.00     0.037 A 
HETATM   31  C19 UNL     1       4.272  24.643  35.769  1.00  0.00     0.003 A 
HETATM   32  C20 UNL     1       3.056  24.733  35.101  1.00  0.00     0.000 A 
HETATM   33  C21 UNL     1       2.932  24.624  33.745  1.00  0.00     0.003 A 
HETATM   34  C22 UNL     1       4.085  24.412  33.007  1.00  0.00     0.037 A 
ENDBRANCH  28  29
ENDBRANCH  26  28
ENDBRANCH   5  22
TORSDOF 5
ENDMDL
MODEL 3
REMARK VINA RESULT: -12.628317563      1.712      2.794
REMARK  5 active torsions:
REMARK  status: ('A' for Active; 'I' for Inactive)
REMARK       I    between atoms: C1_4  and  N3_6 
REMARK       I    between atoms: N3_6  and  C2_8 
REMARK    1  A    between atoms: C2_8  and  C3_10 
REMARK    2  A    between atoms: C6_13  and  C7_14 
REMARK    3  A    between atoms: C11_18  and  C12_19 
REMARK    4  A    between atoms: C16_23  and  O2_24 
REMARK    5  A    between atoms: O2_24  and  C17_25 
ROOT
HETATM    1  C7  UNL     1      13.113  23.414  33.564  1.00  0.00    -0.025 A 
HETATM    2  C8  UNL     1      13.994  24.374  33.118  1.00  0.00     0.012 A 
HETATM    3  C9  UNL     1      13.589  25.703  33.014  1.00  0.00     0.002 A 
HETATM    4  C10 UNL     1      12.305  26.088  33.351  1.00  0.00     0.012 A 
HETATM    5  C11 UNL     1      11.421  25.131  33.797  1.00  0.00    -0.025 A 
HETATM    6  C24 UNL     1      11.830  23.798  33.901  1.00  0.00     0.024 A 
ENDROOT
BRANCH   1   7
HETATM    7  C6  UNL     1      13.502  21.996  33.689  1.00  0.00    -0.026 A 
HETATM    8  C5  UNL     1      14.554  21.476  32.978  1.00  0.00     0.013 A 
HETATM    9  C4  UNL     1      14.917  20.150  33.095  1.00  0.00     0.018 A 
HETATM   10  C3  UNL     1      14.237  19.298  33.927  1.00  0.00     0.032 A 
HETATM   11  C26 UNL     1      13.181  19.820  34.640  1.00  0.00     0.018 A 
HETATM   12  C25 UNL     1      12.803  21.150  34.534  1.00  0.00     0.013 A 
BRANCH  10  13
HETATM   13  C2  UNL     1      14.602  17.911  34.060  1.00  0.00     0.258 C 
HETATM   14  N3  UNL     1      13.633  16.906  34.315  1.00  0.00    -0.297 N 
HETATM   15  C1  UNL     1      14.047  15.539  34.439  1.00  0.00     0.188 C 
ATOM     16  H3  UNL     1      12.648  17.155  34.410  1.00  0.00     0.171 HD
HETATM   17  N1  UNL     1      13.198  14.608  34.668  1.00  0.00    -0.373 N 
HETATM   18  N2  UNL     1      15.417  15.202  34.305  1.00  0.00    -0.064 NA
ATOM     19  H12 UNL     1      13.492  13.635  34.756  1.00  0.00     0.158 HD
ATOM     20  H11 UNL     1      12.212  14.850  34.765  1.00  0.00     0.158 HD
HETATM   21  O1  UNL     1      15.839  17.611  33.939  1.00  0.00    -0.267 OA
ENDBRANCH  10  13
ENDBRANCH   1   7
BRANCH   5  22
HETATM   22  C12 UNL     1      10.066  25.539  34.153  1.00  0.00    -0.023 A 
HETATM   23  C13 UNL     1       9.816  26.064  35.404  1.00  0.00     0.012 A 
HETATM   24  C14 UNL     1       8.513  26.452  35.733  1.00  0.00     0.004 A 
HETATM   25  C15 UNL     1       7.475  26.314  34.821  1.00  0.00     0.037 A 
HETATM   26  C16 UNL     1       7.730  25.789  33.572  1.00  0.00     0.076 A 
HETATM   27  C23 UNL     1       9.026  25.412  33.265  1.00  0.00     0.049 A 
BRANCH  26  28
HETATM   28  O2  UNL     1       6.681  25.658  32.671  1.00  0.00    -0.311 OA
BRANCH  28  29
HETATM   29  C17 UNL     1       5.398  25.293  33.084  1.00  0.00     0.076 A 
HETATM   30  C18 UNL     1       4.394  26.236  33.165  1.00  0.00     0.037 A 
HETATM   31  C19 UNL     1       3.142  25.831  33.578  1.00  0.00     0.003 A 
HETATM   32  C20 UNL     1       2.952  24.491  33.893  1.00  0.00     0.000 A 
HETATM   33  C21 UNL     1       3.940  23.551  33.816  1.00  0.00     0.003 A 
HETATM   34  C22 UNL     1       5.195  23.968  33.400  1.00  0.00     0.037 A 
ENDBRANCH  28  29
ENDBRANCH  26  28
ENDBRANCH   5  22
TORSDOF 5
ENDMDL
MODEL 4
REMARK VINA RESULT: -12.576542324      1.372      2.239
REMARK  5 active torsions:
REMARK  status: ('A' for Active; 'I' for Inactive)
REMARK       I    between atoms: C1_4  and  N3_6 
REMARK       I    between atoms: N3_6  and  C2_8 
REMARK    1  A    between atoms: C2_8  and  C3_10 
REMARK    2  A    between atoms: C6_13  and  C7_14 
REMARK    3  A    between atoms: C11_18  and  C12_19 
REMARK    4  A    between atoms: C16_23  and  O2_24 
REMARK    5  A    between atoms: O2_24  and  C17_25 
ROOT
HETATM    1  C7  UNL     1      13.407  23.318  33.334  1.00  0.00    -0.025 A 
HETATM    2  C8  UNL     1      14.094  24.134  32.461  1.00  0.00     0.012 A 
HETATM    3  C9  UNL     1      13.748  25.478  32.338  1.00  0.00     0.002 A 
HETATM    4  C10 UNL     1      12.718  26.022  33.081  1.00  0.00     0.012 A 
HETATM    5  C11 UNL     1      12.028  25.211  33.954  1.00  0.00    -0.025 A 
HETATM    6  C24 UNL     1      12.377  23.862  34.075  1.00  0.00     0.024 A 
ENDROOT
BRANCH   1   7
HETATM    7  C6  UNL     1      13.740  21.890  33.493  1.00  0.00    -0.026 A 
HETATM    8  C5  UNL     1      14.738  21.301  32.758  1.00  0.00     0.013 A 
HETATM    9  C4  UNL     1      15.049  19.965  32.908  1.00  0.00     0.018 A 
HETATM   10  C3  UNL     1      14.371  19.173  33.798  1.00  0.00     0.032 A 
HETATM   11  C26 UNL     1      13.370  19.765  34.535  1.00  0.00     0.018 A 
HETATM   12  C25 UNL     1      13.044  21.105  34.397  1.00  0.00     0.013 A 
BRANCH  10  13
HETATM   13  C2  UNL     1      14.682  17.777  33.965  1.00  0.00     0.258 C 
HETATM   14  N3  UNL     1      13.682  16.823  34.293  1.00  0.00    -0.297 N 
HETATM   15  C1  UNL     1      14.044  15.445  34.449  1.00  0.00     0.188 C 
ATOM     16  H3  UNL     1      12.713  17.117  34.416  1.00  0.00     0.171 HD
HETATM   17  N1  UNL     1      13.166  14.559  34.743  1.00  0.00    -0.373 N 
HETATM   18  N2  UNL     1      15.392  15.045  34.275  1.00  0.00    -0.064 NA
ATOM     19  H12 UNL     1      13.423  13.578  34.854  1.00  0.00     0.158 HD
ATOM     20  H11 UNL     1      12.196  14.847  34.868  1.00  0.00     0.158 HD
HETATM   21  O1  UNL     1      15.899  17.419  33.809  1.00  0.00    -0.267 OA
ENDBRANCH  10  13
ENDBRANCH   1   7
BRANCH   5  22
HETATM   22  C12 UNL     1      10.940  25.786  34.737  1.00  0.00    -0.023 A 
HETATM   23  C13 UNL     1      11.152  26.121  36.059  1.00  0.00     0.012 A 
HETATM   24  C14 UNL     1      10.100  26.673  36.799  1.00  0.00     0.004 A 
HETATM   25  C15 UNL     1       8.855  26.885  36.222  1.00  0.00     0.037 A 
HETATM   26  C16 UNL     1       8.649  26.549  34.901  1.00  0.00     0.076 A 
HETATM   27  C23 UNL     1       9.701  26.005  34.185  1.00  0.00     0.049 A 
BRANCH  26  28
HETATM   28  O2  UNL     1       7.398  26.769  34.339  1.00  0.00    -0.311 OA
BRANCH  28  29
HETATM   29  C17 UNL     1       6.496  25.724  34.124  1.00  0.00     0.076 A 
HETATM   30  C18 UNL     1       5.898  25.086  35.191  1.00  0.00     0.037 A 
HETATM   31  C19 UNL     1       5.013  24.060  34.933  1.00  0.00     0.003 A 
HETATM   32  C20 UNL     1       4.765  23.719  33.608  1.00  0.00     0.000 A 
HETATM   33  C21 UNL     1       5.353  24.346  32.547  1.00  0.00     0.003 A 
HETATM   34  C22 UNL     1       6.240  25.375  32.816  1.00  0.00     0.037 A 
ENDBRANCH  28  29
ENDBRANCH  26  28
ENDBRANCH   5  22
TORSDOF 5
ENDMDL
MODEL 5
REMARK VINA RESULT: -12.431567373      1.682      2.795
REMARK  5 active torsions:
REMARK  status: ('A' for Active; 'I' for Inactive)
REMARK       I    between atoms: C1_4  and  N3_6 
REMARK       I    between atoms: N3_6  and  C2_8 
REMARK    1  A    between atoms: C2_8  and  C3_10 
REMARK    2  A    between atoms: C6_13  and  C7_14 
REMARK    3  A    between atoms: C11_18  and  C12_19 
REMARK    4  A    between atoms: C16_23  and  O2_24 
REMARK    5  A    between atoms: O2_24  and  C17_25 
ROOT
HETATM    1  C7  UNL     1      13.185  23.671  33.537  1.00  0.00    -0.025 A 
HETATM    2  C8  UNL     1      14.004  24.535  32.845  1.00  0.00     0.012 A 
HETATM    3  C9  UNL     1      13.648  25.875  32.701  1.00  0.00     0.002 A 
HETATM    4  C10 UNL     1      12.476  26.365  33.243  1.00  0.00     0.012 A 
HETATM    5  C11 UNL     1      11.653  25.505  33.935  1.00  0.00    -0.025 A 
HETATM    6  C24 UNL     1      12.013  24.161  34.078  1.00  0.00     0.024 A 
ENDROOT
BRANCH   1   7
HETATM    7  C6  UNL     1      13.524  22.246  33.712  1.00  0.00    -0.026 A 
HETATM    8  C5  UNL     1      12.767  21.421  34.504  1.00  0.00     0.013 A 
HETATM    9  C4  UNL     1      13.085  20.088  34.667  1.00  0.00     0.018 A 
HETATM   10  C3  UNL     1      14.174  19.536  34.042  1.00  0.00     0.032 A 
HETATM   11  C26 UNL     1      14.934  20.365  33.247  1.00  0.00     0.018 A 
HETATM   12  C25 UNL     1      14.628  21.706  33.072  1.00  0.00     0.013 A 
BRANCH  10  13
HETATM   13  C2  UNL     1      14.521  18.147  34.202  1.00  0.00     0.258 C 
HETATM   14  N3  UNL     1      13.528  17.137  34.304  1.00  0.00    -0.297 N 
HETATM   15  C1  UNL     1      13.926  15.769  34.462  1.00  0.00     0.188 C 
ATOM     16  H3  UNL     1      12.539  17.384  34.265  1.00  0.00     0.171 HD
HETATM   17  N1  UNL     1      13.055  14.834  34.556  1.00  0.00    -0.373 N 
HETATM   18  N2  UNL     1      15.301  15.435  34.515  1.00  0.00    -0.064 NA
ATOM     19  H12 UNL     1      13.338  13.860  34.669  1.00  0.00     0.158 HD
ATOM     20  H11 UNL     1      12.065  15.074  34.518  1.00  0.00     0.158 HD
HETATM   21  O1  UNL     1      15.763  17.850  34.250  1.00  0.00    -0.267 OA
ENDBRANCH  10  13
ENDBRANCH   1   7
BRANCH   5  22
HETATM   22  C12 UNL     1      10.416  26.024  34.506  1.00  0.00    -0.023 A 
HETATM   23  C13 UNL     1      10.259  27.384  34.677  1.00  0.00     0.012 A 
HETATM   24  C14 UNL     1       9.067  27.870  35.226  1.00  0.00     0.004 A 
HETATM   25  C15 UNL     1       8.047  27.004  35.598  1.00  0.00     0.037 A 
HETATM   26  C16 UNL     1       8.209  25.645  35.425  1.00  0.00     0.076 A 
HETATM   27  C23 UNL     1       9.395  25.184  34.881  1.00  0.00     0.049 A 
BRANCH  26  28
HETATM   28  O2  UNL     1       7.179  24.792  35.802  1.00  0.00    -0.311 OA
BRANCH  28  29
HETATM   29  C17 UNL     1       6.051  24.603  35.000  1.00  0.00     0.076 A 
HETATM   30  C18 UNL     1       6.158  24.632  33.625  1.00  0.00     0.037 A 
HETATM   31  C19 UNL     1       5.020  24.439  32.872  1.00  0.00     0.003 A 
HETATM   32  C20 UNL     1       3.816  24.226  33.535  1.00  0.00     0.000 A 
HETATM   33  C21 UNL     1       3.702  24.196  34.896  1.00  0.00     0.003 A 
HETATM   34  C22 UNL     1       4.852  24.390  35.644  1.00  0.00     0.037 A 
ENDBRANCH  28  29
ENDBRANCH  26  28
ENDBRANCH   5  22
TORSDOF 5
ENDMDL
