MODEL 1
REMARK VINA RESULT: -7.554656603      0.000      0.000
REMARK  7 active torsions:
REMARK  status: ('A' for Active; 'I' for Inactive)
REMARK    1  A    between atoms: N1_1  and  C1_5 
REMARK    2  A    between atoms: C1_5  and  C2_6 
REMARK    3  A    between atoms: C6_10  and  C7_11 
REMARK    4  A    between atoms: C7_11  and  C14_22 
REMARK    5  A    between atoms: N2_12  and  N3_14 
REMARK    6  A    between atoms: N3_14  and  C8_16 
REMARK    7  A    between atoms: C15_23  and  C16_24 
ROOT
HETATM    1  C7  UNL     1       9.375  25.032  33.396  1.00  0.00     0.071 C 
HETATM    2  N2  UNL     1       9.227  23.926  32.741  1.00  0.00    -0.299 N 
ATOM      3  H2  UNL     1       8.258  23.654  32.572  1.00  0.00     0.187 HD
ENDROOT
BRANCH   1   4
HETATM    4  C6  UNL     1      10.744  25.417  33.632  1.00  0.00    -0.007 A 
HETATM    5  C5  UNL     1      11.488  26.049  32.645  1.00  0.00     0.014 A 
HETATM    6  C4  UNL     1      12.820  26.384  32.820  1.00  0.00     0.002 A 
HETATM    7  C3  UNL     1      13.468  26.103  33.987  1.00  0.00     0.009 A 
HETATM    8  C2  UNL     1      12.770  25.478  34.992  1.00  0.00    -0.032 A 
HETATM    9  C28 UNL     1      11.454  25.156  34.798  1.00  0.00     0.022 A 
BRANCH   8  10
HETATM   10  C1  UNL     1      13.482  25.174  36.265  1.00  0.00     0.268 C 
BRANCH  10  11
HETATM   11  N1  UNL     1      12.825  24.119  36.976  1.00  0.00    -0.075 N 
ATOM     12  H13 UNL     1      12.915  23.225  36.493  1.00  0.00     0.274 HD
ATOM     13  H12 UNL     1      13.317  23.880  37.836  1.00  0.00     0.274 HD
ATOM     14  H11 UNL     1      11.848  24.356  37.153  1.00  0.00     0.274 HD
ENDBRANCH  10  11
ENDBRANCH   8  10
ENDBRANCH   1   4
BRANCH   1  15
HETATM   15  C14 UNL     1       8.199  25.681  33.920  1.00  0.00     0.033 A 
HETATM   16  C15 UNL     1       8.049  26.542  34.954  1.00  0.00     0.056 A 
HETATM   17  N4  UNL     1       6.717  26.568  35.295  1.00  0.00    -0.354 N 
HETATM   18  C22 UNL     1       6.046  25.756  34.488  1.00  0.00     0.043 A 
ATOM     19  H4  UNL     1       6.309  27.123  36.048  1.00  0.00     0.166 HD
HETATM   20  C23 UNL     1       4.686  25.427  34.402  1.00  0.00     0.030 A 
HETATM   21  C27 UNL     1       6.895  25.156  33.588  1.00  0.00     0.005 A 
HETATM   22  C24 UNL     1       4.214  24.549  33.462  1.00  0.00     0.002 A 
HETATM   23  C25 UNL     1       5.078  23.961  32.572  1.00  0.00     0.001 A 
HETATM   24  C26 UNL     1       6.444  24.276  32.641  1.00  0.00     0.014 A 
BRANCH  16  25
HETATM   25  C16 UNL     1       9.010  27.443  35.599  1.00  0.00    -0.009 A 
HETATM   26  C17 UNL     1       9.645  28.434  34.828  1.00  0.00     0.014 A 
HETATM   27  C18 UNL     1      10.650  29.222  35.276  1.00  0.00     0.001 A 
HETATM   28  C19 UNL     1      11.087  29.045  36.583  1.00  0.00     0.000 A 
HETATM   29  C20 UNL     1      10.519  28.100  37.400  1.00  0.00     0.001 A 
HETATM   30  C21 UNL     1       9.488  27.324  36.869  1.00  0.00     0.014 A 
ENDBRANCH  16  25
ENDBRANCH   1  15
BRANCH   2  31
HETATM   31  N3  UNL     1      10.151  23.072  32.243  1.00  0.00    -0.300 N 
ATOM     32  H3  UNL     1      10.082  22.807  31.261  1.00  0.00     0.187 HD
BRANCH  31  33
HETATM   33  C8  UNL     1      11.224  22.519  33.022  1.00  0.00     0.048 A 
HETATM   34  C9  UNL     1      11.014  21.785  34.168  1.00  0.00     0.031 A 
HETATM   35  C10 UNL     1      12.042  21.253  34.913  1.00  0.00     0.002 A 
HETATM   36  C11 UNL     1      13.345  21.460  34.498  1.00  0.00     0.000 A 
HETATM   37  C12 UNL     1      13.591  22.183  33.367  1.00  0.00     0.002 A 
HETATM   38  C13 UNL     1      12.530  22.707  32.637  1.00  0.00     0.031 A 
ENDBRANCH  31  33
ENDBRANCH   2  31
TORSDOF 7
ENDMDL
MODEL 2
REMARK VINA RESULT: -6.748205058      0.974      1.525
REMARK  7 active torsions:
REMARK  status: ('A' for Active; 'I' for Inactive)
REMARK    1  A    between atoms: N1_1  and  C1_5 
REMARK    2  A    between atoms: C1_5  and  C2_6 
REMARK    3  A    between atoms: C6_10  and  C7_11 
REMARK    4  A    between atoms: C7_11  and  C14_22 
REMARK    5  A    between atoms: N2_12  and  N3_14 
REMARK    6  A    between atoms: N3_14  and  C8_16 
REMARK    7  A    between atoms: C15_23  and  C16_24 
ROOT
HETATM    1  C7  UNL     1       9.574  24.984  33.726  1.00  0.00     0.071 C 
HETATM    2  N2  UNL     1       9.463  23.927  32.987  1.00  0.00    -0.299 N 
ATOM      3  H2  UNL     1       8.534  23.774  32.596  1.00  0.00     0.187 HD
ENDROOT
BRANCH   1   4
HETATM    4  C6  UNL     1      10.889  25.200  34.277  1.00  0.00    -0.007 A 
HETATM    5  C5  UNL     1      11.758  26.121  33.709  1.00  0.00     0.014 A 
HETATM    6  C4  UNL     1      13.045  26.316  34.181  1.00  0.00     0.002 A 
HETATM    7  C3  UNL     1      13.522  25.600  35.239  1.00  0.00     0.009 A 
HETATM    8  C2  UNL     1      12.695  24.677  35.834  1.00  0.00    -0.032 A 
HETATM    9  C28 UNL     1      11.426  24.501  35.352  1.00  0.00     0.022 A 
BRANCH   8  10
HETATM   10  C1  UNL     1      13.220  23.898  36.990  1.00  0.00     0.268 C 
BRANCH  10  11
HETATM   11  N1  UNL     1      14.395  24.515  37.527  1.00  0.00    -0.075 N 
ATOM     12  H13 UNL     1      15.223  23.936  37.387  1.00  0.00     0.274 HD
ATOM     13  H12 UNL     1      14.679  25.326  36.979  1.00  0.00     0.274 HD
ATOM     14  H11 UNL     1      14.262  24.752  38.511  1.00  0.00     0.274 HD
ENDBRANCH  10  11
ENDBRANCH   8  10
ENDBRANCH   1   4
BRANCH   1  15
HETATM   15  C14 UNL     1       8.384  25.742  34.022  1.00  0.00     0.033 A 
HETATM   16  C15 UNL     1       8.168  26.741  34.909  1.00  0.00     0.056 A 
HETATM   17  N4  UNL     1       6.810  26.864  35.088  1.00  0.00    -0.354 N 
HETATM   18  C22 UNL     1       6.190  25.976  34.323  1.00  0.00     0.043 A 
ATOM     19  H4  UNL     1       6.353  27.532  35.709  1.00  0.00     0.166 HD
HETATM   20  C23 UNL     1       4.831  25.691  34.124  1.00  0.00     0.030 A 
HETATM   21  C27 UNL     1       7.098  25.227  33.613  1.00  0.00     0.005 A 
HETATM   22  C24 UNL     1       4.419  24.711  33.260  1.00  0.00     0.002 A 
HETATM   23  C25 UNL     1       5.342  23.975  32.559  1.00  0.00     0.001 A 
HETATM   24  C26 UNL     1       6.708  24.243  32.744  1.00  0.00     0.014 A 
BRANCH  16  25
HETATM   25  C16 UNL     1       9.100  27.685  35.537  1.00  0.00    -0.009 A 
HETATM   26  C17 UNL     1       9.701  28.682  34.747  1.00  0.00     0.014 A 
HETATM   27  C18 UNL     1      10.680  29.511  35.181  1.00  0.00     0.001 A 
HETATM   28  C19 UNL     1      11.124  29.371  36.490  1.00  0.00     0.000 A 
HETATM   29  C20 UNL     1      10.588  28.423  37.324  1.00  0.00     0.001 A 
HETATM   30  C21 UNL     1       9.583  27.604  36.808  1.00  0.00     0.014 A 
ENDBRANCH  16  25
ENDBRANCH   1  15
BRANCH   2  31
HETATM   31  N3  UNL     1      10.382  22.993  32.651  1.00  0.00    -0.300 N 
ATOM     32  H3  UNL     1      10.089  22.017  32.628  1.00  0.00     0.187 HD
BRANCH  31  33
HETATM   33  C8  UNL     1      11.747  23.300  32.324  1.00  0.00     0.048 A 
HETATM   34  C9  UNL     1      12.095  24.227  31.367  1.00  0.00     0.031 A 
HETATM   35  C10 UNL     1      13.403  24.524  31.055  1.00  0.00     0.002 A 
HETATM   36  C11 UNL     1      14.416  23.865  31.728  1.00  0.00     0.000 A 
HETATM   37  C12 UNL     1      14.108  22.940  32.682  1.00  0.00     0.002 A 
HETATM   38  C13 UNL     1      12.777  22.664  32.973  1.00  0.00     0.031 A 
ENDBRANCH  31  33
ENDBRANCH   2  31
TORSDOF 7
ENDMDL
MODEL 3
REMARK VINA RESULT: -6.712883094      1.199      1.982
REMARK  7 active torsions:
REMARK  status: ('A' for Active; 'I' for Inactive)
REMARK    1  A    between atoms: N1_1  and  C1_5 
REMARK    2  A    between atoms: C1_5  and  C2_6 
REMARK    3  A    between atoms: C6_10  and  C7_11 
REMARK    4  A    between atoms: C7_11  and  C14_22 
REMARK    5  A    between atoms: N2_12  and  N3_14 
REMARK    6  A    between atoms: N3_14  and  C8_16 
REMARK    7  A    between atoms: C15_23  and  C16_24 
ROOT
HETATM    1  C7  UNL     1       9.390  24.788  34.019  1.00  0.00     0.071 C 
HETATM    2  N2  UNL     1       9.517  24.079  32.944  1.00  0.00    -0.299 N 
ATOM      3  H2  UNL     1       8.832  24.280  32.215  1.00  0.00     0.187 HD
ENDROOT
BRANCH   1   4
HETATM    4  C6  UNL     1      10.360  24.505  35.048  1.00  0.00    -0.007 A 
HETATM    5  C5  UNL     1       9.995  23.833  36.206  1.00  0.00     0.014 A 
HETATM    6  C4  UNL     1      10.888  23.591  37.236  1.00  0.00     0.002 A 
HETATM    7  C3  UNL     1      12.184  24.011  37.156  1.00  0.00     0.009 A 
HETATM    8  C2  UNL     1      12.589  24.680  36.026  1.00  0.00    -0.032 A 
HETATM    9  C28 UNL     1      11.690  24.908  35.020  1.00  0.00     0.022 A 
BRANCH   8  10
HETATM   10  C1  UNL     1      14.005  25.136  35.943  1.00  0.00     0.268 C 
BRANCH  10  11
HETATM   11  N1  UNL     1      14.660  24.991  37.208  1.00  0.00    -0.075 N 
ATOM     12  H13 UNL     1      14.249  24.240  37.762  1.00  0.00     0.274 HD
ATOM     13  H12 UNL     1      15.600  24.609  37.104  1.00  0.00     0.274 HD
ATOM     14  H11 UNL     1      14.666  25.876  37.716  1.00  0.00     0.274 HD
ENDBRANCH  10  11
ENDBRANCH   8  10
ENDBRANCH   1   4
BRANCH   1  15
HETATM   15  C14 UNL     1       8.253  25.668  34.131  1.00  0.00     0.033 A 
HETATM   16  C15 UNL     1       8.058  26.773  34.888  1.00  0.00     0.056 A 
HETATM   17  N4  UNL     1       6.707  27.023  34.934  1.00  0.00    -0.354 N 
HETATM   18  C22 UNL     1       6.071  26.108  34.215  1.00  0.00     0.043 A 
ATOM     19  H4  UNL     1       6.264  27.790  35.441  1.00  0.00     0.166 HD
HETATM   20  C23 UNL     1       4.712  25.912  33.931  1.00  0.00     0.030 A 
HETATM   21  C27 UNL     1       6.962  25.215  33.668  1.00  0.00     0.005 A 
HETATM   22  C24 UNL     1       4.282  24.879  33.141  1.00  0.00     0.002 A 
HETATM   23  C25 UNL     1       5.187  23.998  32.603  1.00  0.00     0.001 A 
HETATM   24  C26 UNL     1       6.553  24.175  32.876  1.00  0.00     0.014 A 
BRANCH  16  25
HETATM   25  C16 UNL     1       9.019  27.703  35.492  1.00  0.00    -0.009 A 
HETATM   26  C17 UNL     1       9.689  28.626  34.668  1.00  0.00     0.014 A 
HETATM   27  C18 UNL     1      10.697  29.428  35.086  1.00  0.00     0.001 A 
HETATM   28  C19 UNL     1      11.098  29.338  36.413  1.00  0.00     0.000 A 
HETATM   29  C20 UNL     1      10.495  28.463  37.280  1.00  0.00     0.001 A 
HETATM   30  C21 UNL     1       9.464  27.667  36.778  1.00  0.00     0.014 A 
ENDBRANCH  16  25
ENDBRANCH   1  15
BRANCH   2  31
HETATM   31  N3  UNL     1      10.412  23.115  32.632  1.00  0.00    -0.300 N 
ATOM     32  H3  UNL     1      10.077  22.156  32.547  1.00  0.00     0.187 HD
BRANCH  31  33
HETATM   33  C8  UNL     1      11.810  23.366  32.412  1.00  0.00     0.048 A 
HETATM   34  C9  UNL     1      12.802  22.547  32.903  1.00  0.00     0.031 A 
HETATM   35  C10 UNL     1      14.141  22.786  32.690  1.00  0.00     0.002 A 
HETATM   36  C11 UNL     1      14.513  23.896  31.954  1.00  0.00     0.000 A 
HETATM   37  C12 UNL     1      13.557  24.730  31.453  1.00  0.00     0.002 A 
HETATM   38  C13 UNL     1      12.213  24.461  31.685  1.00  0.00     0.031 A 
ENDBRANCH  31  33
ENDBRANCH   2  31
TORSDOF 7
ENDMDL
MODEL 4
REMARK VINA RESULT: -6.624006937      1.963      6.920
REMARK  7 active torsions:
REMARK  status: ('A' for Active; 'I' for Inactive)
REMARK    1  A    between atoms: N1_1  and  C1_5 
REMARK    2  A    between atoms: C1_5  and  C2_6 
REMARK    3  A    between atoms: C6_10  and  C7_11 
REMARK    4  A    between atoms: C7_11  and  C14_22 
REMARK    5  A    between atoms: N2_12  and  N3_14 
REMARK    6  A    between atoms: N3_14  and  C8_16 
REMARK    7  A    between atoms: C15_23  and  C16_24 
ROOT
HETATM    1  C7  UNL     1      11.006  23.879  33.745  1.00  0.00     0.071 C 
HETATM    2  N2  UNL     1       9.871  23.542  33.223  1.00  0.00    -0.299 N 
ATOM      3  H2  UNL     1       9.940  23.007  32.357  1.00  0.00     0.187 HD
ENDROOT
BRANCH   1   4
HETATM    4  C6  UNL     1      10.908  24.634  34.970  1.00  0.00    -0.007 A 
HETATM    5  C5  UNL     1      11.023  24.010  36.204  1.00  0.00     0.014 A 
HETATM    6  C4  UNL     1      10.882  24.695  37.398  1.00  0.00     0.002 A 
HETATM    7  C3  UNL     1      10.618  26.034  37.414  1.00  0.00     0.009 A 
HETATM    8  C2  UNL     1      10.498  26.693  36.214  1.00  0.00    -0.032 A 
HETATM    9  C28 UNL     1      10.641  25.996  35.046  1.00  0.00     0.022 A 
BRANCH   8  10
HETATM   10  C1  UNL     1      10.211  28.155  36.236  1.00  0.00     0.268 C 
BRANCH  10  11
HETATM   11  N1  UNL     1       9.603  28.573  35.009  1.00  0.00    -0.075 N 
ATOM     12  H13 UNL     1      10.264  29.069  34.410  1.00  0.00     0.274 HD
ATOM     13  H12 UNL     1       9.406  27.781  34.397  1.00  0.00     0.274 HD
ATOM     14  H11 UNL     1       8.767  29.129  35.190  1.00  0.00     0.274 HD
ENDBRANCH  10  11
ENDBRANCH   8  10
ENDBRANCH   1   4
BRANCH   1  15
HETATM   15  C14 UNL     1      12.212  23.591  33.009  1.00  0.00     0.033 A 
HETATM   16  C15 UNL     1      13.196  22.689  33.239  1.00  0.00     0.056 A 
HETATM   17  N4  UNL     1      14.293  23.060  32.497  1.00  0.00    -0.354 N 
HETATM   18  C22 UNL     1      14.002  24.157  31.809  1.00  0.00     0.043 A 
ATOM     19  H4  UNL     1      15.187  22.570  32.478  1.00  0.00     0.166 HD
HETATM   20  C23 UNL     1      14.749  24.928  30.909  1.00  0.00     0.030 A 
HETATM   21  C27 UNL     1      12.713  24.562  32.065  1.00  0.00     0.005 A 
HETATM   22  C24 UNL     1      14.224  26.040  30.303  1.00  0.00     0.002 A 
HETATM   23  C25 UNL     1      12.935  26.429  30.571  1.00  0.00     0.001 A 
HETATM   24  C26 UNL     1      12.169  25.670  31.471  1.00  0.00     0.014 A 
BRANCH  16  25
HETATM   25  C16 UNL     1      13.189  21.436  34.001  1.00  0.00    -0.009 A 
HETATM   26  C17 UNL     1      14.311  20.589  33.937  1.00  0.00     0.014 A 
HETATM   27  C18 UNL     1      14.360  19.348  34.476  1.00  0.00     0.001 A 
HETATM   28  C19 UNL     1      13.234  18.876  35.137  1.00  0.00     0.000 A 
HETATM   29  C20 UNL     1      12.100  19.641  35.244  1.00  0.00     0.001 A 
HETATM   30  C21 UNL     1      12.122  20.910  34.663  1.00  0.00     0.014 A 
ENDBRANCH  16  25
ENDBRANCH   1  15
BRANCH   2  31
HETATM   31  N3  UNL     1       8.608  23.786  33.641  1.00  0.00    -0.300 N 
ATOM     32  H3  UNL     1       8.259  23.267  34.446  1.00  0.00     0.187 HD
BRANCH  31  33
HETATM   33  C8  UNL     1       7.731  24.736  33.014  1.00  0.00     0.048 A 
HETATM   34  C9  UNL     1       8.151  25.981  32.601  1.00  0.00     0.031 A 
HETATM   35  C10 UNL     1       7.312  26.890  31.997  1.00  0.00     0.002 A 
HETATM   36  C11 UNL     1       5.988  26.545  31.794  1.00  0.00     0.000 A 
HETATM   37  C12 UNL     1       5.537  25.320  32.191  1.00  0.00     0.002 A 
HETATM   38  C13 UNL     1       6.410  24.425  32.797  1.00  0.00     0.031 A 
ENDBRANCH  31  33
ENDBRANCH   2  31
TORSDOF 7
ENDMDL
MODEL 5
REMARK VINA RESULT: -6.456276354      1.941      6.250
REMARK  7 active torsions:
REMARK  status: ('A' for Active; 'I' for Inactive)
REMARK    1  A    between atoms: N1_1  and  C1_5 
REMARK    2  A    between atoms: C1_5  and  C2_6 
REMARK    3  A    between atoms: C6_10  and  C7_11 
REMARK    4  A    between atoms: C7_11  and  C14_22 
REMARK    5  A    between atoms: N2_12  and  N3_14 
REMARK    6  A    between atoms: N3_14  and  C8_16 
REMARK    7  A    between atoms: C15_23  and  C16_24 
ROOT
HETATM    1  C7  UNL     1      10.403  25.523  34.428  1.00  0.00     0.071 C 
HETATM    2  N2  UNL     1       9.477  25.832  35.278  1.00  0.00    -0.299 N 
ATOM      3  H2  UNL     1       9.492  26.802  35.594  1.00  0.00     0.187 HD
ENDROOT
BRANCH   1   4
HETATM    4  C6  UNL     1      10.380  24.152  33.981  1.00  0.00    -0.007 A 
HETATM    5  C5  UNL     1       9.697  23.789  32.829  1.00  0.00     0.014 A 
HETATM    6  C4  UNL     1       9.611  22.476  32.401  1.00  0.00     0.002 A 
HETATM    7  C3  UNL     1      10.202  21.467  33.103  1.00  0.00     0.009 A 
HETATM    8  C2  UNL     1      10.890  21.781  34.250  1.00  0.00    -0.032 A 
HETATM    9  C28 UNL     1      10.963  23.086  34.655  1.00  0.00     0.022 A 
BRANCH   8  10
HETATM   10  C1  UNL     1      11.535  20.675  35.014  1.00  0.00     0.268 C 
BRANCH  10  11
HETATM   11  N1  UNL     1      10.711  19.505  35.007  1.00  0.00    -0.075 N 
ATOM     12  H13 UNL     1       9.908  19.612  34.386  1.00  0.00     0.274 HD
ATOM     13  H12 UNL     1      11.167  18.725  34.534  1.00  0.00     0.274 HD
ATOM     14  H11 UNL     1      10.425  19.257  35.954  1.00  0.00     0.274 HD
ENDBRANCH  10  11
ENDBRANCH   8  10
ENDBRANCH   1   4
BRANCH   1  15
HETATM   15  C14 UNL     1      11.410  26.508  34.123  1.00  0.00     0.033 A 
HETATM   16  C15 UNL     1      12.736  26.376  33.887  1.00  0.00     0.056 A 
HETATM   17  N4  UNL     1      13.318  27.614  34.031  1.00  0.00    -0.354 N 
HETATM   18  C22 UNL     1      12.381  28.502  34.335  1.00  0.00     0.043 A 
ATOM     19  H4  UNL     1      14.312  27.817  33.921  1.00  0.00     0.166 HD
HETATM   20  C23 UNL     1      12.435  29.882  34.574  1.00  0.00     0.030 A 
HETATM   21  C27 UNL     1      11.147  27.899  34.411  1.00  0.00     0.005 A 
HETATM   22  C24 UNL     1      11.311  30.607  34.870  1.00  0.00     0.002 A 
HETATM   23  C25 UNL     1      10.088  29.987  34.941  1.00  0.00     0.001 A 
HETATM   24  C26 UNL     1      10.012  28.605  34.705  1.00  0.00     0.014 A 
BRANCH  16  25
HETATM   25  C16 UNL     1      13.518  25.223  33.426  1.00  0.00    -0.009 A 
HETATM   26  C17 UNL     1      13.649  24.993  32.044  1.00  0.00     0.014 A 
HETATM   27  C18 UNL     1      14.219  23.889  31.507  1.00  0.00     0.001 A 
HETATM   28  C19 UNL     1      14.708  22.918  32.371  1.00  0.00     0.000 A 
HETATM   29  C20 UNL     1      14.620  23.068  33.732  1.00  0.00     0.001 A 
HETATM   30  C21 UNL     1      14.019  24.232  34.214  1.00  0.00     0.014 A 
ENDBRANCH  16  25
ENDBRANCH   1  15
BRANCH   2  31
HETATM   31  N3  UNL     1       8.492  25.075  35.814  1.00  0.00    -0.300 N 
ATOM     32  H3  UNL     1       8.730  24.453  36.586  1.00  0.00     0.187 HD
BRANCH  31  33
HETATM   33  C8  UNL     1       7.130  25.100  35.358  1.00  0.00     0.048 A 
HETATM   34  C9  UNL     1       6.735  25.771  34.221  1.00  0.00     0.031 A 
HETATM   35  C10 UNL     1       5.431  25.793  33.782  1.00  0.00     0.002 A 
HETATM   36  C11 UNL     1       4.470  25.115  34.508  1.00  0.00     0.000 A 
HETATM   37  C12 UNL     1       4.825  24.440  35.640  1.00  0.00     0.002 A 
HETATM   38  C13 UNL     1       6.150  24.437  36.057  1.00  0.00     0.031 A 
ENDBRANCH  31  33
ENDBRANCH   2  31
TORSDOF 7
ENDMDL
