MODEL 1
REMARK VINA RESULT: -10.161424769      0.000      0.000
REMARK  5 active torsions:
REMARK  status: ('A' for Active; 'I' for Inactive)
REMARK    1  A    between atoms: C1_4  and  C2_6 
REMARK    2  A    between atoms: C8_14  and  C9_15 
REMARK    3  A    between atoms: C13_19  and  O1_20 
REMARK    4  A    between atoms: O1_20  and  C14_21 
REMARK    5  A    between atoms: C20_31  and  C21_32 
ROOT
HETATM    1  C2  UNL     1       6.624  25.070  33.404  1.00  0.00     0.005 A 
HETATM    2  C3  UNL     1       6.023  25.389  34.597  1.00  0.00     0.015 A 
HETATM    3  C4  UNL     1       6.808  25.380  35.736  1.00  0.00     0.002 A 
HETATM    4  C5  UNL     1       8.149  25.069  35.722  1.00  0.00     0.014 A 
HETATM    5  C6  UNL     1       8.741  24.751  34.522  1.00  0.00    -0.006 A 
HETATM    6  C7  UNL     1      10.146  24.419  34.450  1.00  0.00     0.072 A 
HETATM    7  N3  UNL     1      10.704  23.268  34.048  1.00  0.00    -0.339 N 
ATOM      8  H3  UNL     1      10.194  22.444  33.732  1.00  0.00     0.167 HD
HETATM    9  C8  UNL     1      12.065  23.373  34.130  1.00  0.00     0.116 A 
HETATM   10  N5  UNL     1      12.360  24.597  34.585  1.00  0.00    -0.339 N 
ATOM     11  H5  UNL     1      13.295  24.971  34.752  1.00  0.00     0.167 HD
HETATM   12  C20 UNL     1      11.201  25.238  34.782  1.00  0.00     0.072 A 
HETATM   13  C27 UNL     1       7.944  24.760  33.366  1.00  0.00     0.028 A 
ENDROOT
BRANCH   9  14
HETATM   14  C9  UNL     1      13.064  22.366  33.793  1.00  0.00     0.011 A 
HETATM   15  C10 UNL     1      13.891  22.639  32.702  1.00  0.00     0.015 A 
HETATM   16  C11 UNL     1      14.844  21.733  32.347  1.00  0.00     0.004 A 
HETATM   17  C12 UNL     1      14.961  20.553  33.096  1.00  0.00     0.037 A 
HETATM   18  C13 UNL     1      14.168  20.261  34.165  1.00  0.00     0.078 A 
HETATM   19  C19 UNL     1      13.197  21.221  34.500  1.00  0.00     0.052 A 
BRANCH  18  20
HETATM   20  O1  UNL     1      14.247  19.139  34.912  1.00  0.00    -0.294 OA
BRANCH  20  21
HETATM   21  C14 UNL     1      14.293  17.817  34.659  1.00  0.00     0.147 A 
HETATM   22  C15 UNL     1      15.570  17.287  34.399  1.00  0.00     0.056 A 
HETATM   23  C16 UNL     1      15.758  15.962  34.128  1.00  0.00     0.006 A 
HETATM   24  C17 UNL     1      14.636  15.147  34.118  1.00  0.00     0.017 A 
HETATM   25  C18 UNL     1      13.396  15.681  34.376  1.00  0.00     0.090 A 
HETATM   26  N4  UNL     1      13.267  16.974  34.633  1.00  0.00    -0.347 N 
ATOM     27  H4  UNL     1      12.333  17.340  34.819  1.00  0.00     0.167 HD
ENDBRANCH  20  21
ENDBRANCH  18  20
ENDBRANCH   9  14
BRANCH  12  28
HETATM   28  C21 UNL     1      11.024  26.602  35.274  1.00  0.00    -0.007 A 
HETATM   29  C22 UNL     1      10.833  26.854  36.608  1.00  0.00     0.014 A 
HETATM   30  C23 UNL     1      10.671  28.110  37.073  1.00  0.00     0.001 A 
HETATM   31  C24 UNL     1      10.688  29.197  36.234  1.00  0.00     0.000 A 
HETATM   32  C25 UNL     1      10.881  28.928  34.888  1.00  0.00     0.001 A 
HETATM   33  C26 UNL     1      11.048  27.666  34.405  1.00  0.00     0.014 A 
ENDBRANCH  12  28
BRANCH   1  34
HETATM   34  C1  UNL     1       5.856  25.059  32.162  1.00  0.00     0.120 C 
HETATM   35  N1  UNL     1       6.159  25.854  31.190  1.00  0.00    -0.387 N 
ATOM     36  H12 UNL     1       5.622  25.847  30.323  1.00  0.00     0.157 HD
ATOM     37  H11 UNL     1       6.953  26.474  31.348  1.00  0.00     0.157 HD
HETATM   38  N2  UNL     1       4.745  24.192  31.942  1.00  0.00    -0.082 NA
ENDBRANCH   1  34
TORSDOF 5
ENDMDL
MODEL 2
REMARK VINA RESULT: -9.714120291      0.545      1.180
REMARK  5 active torsions:
REMARK  status: ('A' for Active; 'I' for Inactive)
REMARK    1  A    between atoms: C1_4  and  C2_6 
REMARK    2  A    between atoms: C8_14  and  C9_15 
REMARK    3  A    between atoms: C13_19  and  O1_20 
REMARK    4  A    between atoms: O1_20  and  C14_21 
REMARK    5  A    between atoms: C20_31  and  C21_32 
ROOT
HETATM    1  C2  UNL     1       6.620  25.062  33.384  1.00  0.00     0.005 A 
HETATM    2  C3  UNL     1       6.016  25.318  34.589  1.00  0.00     0.015 A 
HETATM    3  C4  UNL     1       6.804  25.283  35.726  1.00  0.00     0.002 A 
HETATM    4  C5  UNL     1       8.152  25.005  35.698  1.00  0.00     0.014 A 
HETATM    5  C6  UNL     1       8.747  24.749  34.485  1.00  0.00    -0.006 A 
HETATM    6  C7  UNL     1      10.159  24.453  34.398  1.00  0.00     0.072 A 
HETATM    7  N3  UNL     1      10.744  23.332  33.950  1.00  0.00    -0.339 N 
ATOM      8  H3  UNL     1      10.253  22.509  33.601  1.00  0.00     0.167 HD
HETATM    9  C8  UNL     1      12.102  23.466  34.034  1.00  0.00     0.116 A 
HETATM   10  N5  UNL     1      12.370  24.677  34.537  1.00  0.00    -0.339 N 
ATOM     11  H5  UNL     1      13.295  25.067  34.717  1.00  0.00     0.167 HD
HETATM   12  C20 UNL     1      11.196  25.283  34.760  1.00  0.00     0.072 A 
HETATM   13  C27 UNL     1       7.948  24.784  33.332  1.00  0.00     0.028 A 
ENDROOT
BRANCH   9  14
HETATM   14  C9  UNL     1      13.124  22.497  33.655  1.00  0.00     0.011 A 
HETATM   15  C10 UNL     1      13.860  22.776  32.503  1.00  0.00     0.015 A 
HETATM   16  C11 UNL     1      14.831  21.906  32.107  1.00  0.00     0.004 A 
HETATM   17  C12 UNL     1      15.055  20.755  32.877  1.00  0.00     0.037 A 
HETATM   18  C13 UNL     1      14.351  20.457  34.006  1.00  0.00     0.078 A 
HETATM   19  C19 UNL     1      13.359  21.381  34.382  1.00  0.00     0.052 A 
BRANCH  18  20
HETATM   20  O1  UNL     1      14.534  19.363  34.775  1.00  0.00    -0.294 OA
BRANCH  20  21
HETATM   21  C14 UNL     1      14.726  18.050  34.548  1.00  0.00     0.147 A 
HETATM   22  C15 UNL     1      13.585  17.236  34.659  1.00  0.00     0.056 A 
HETATM   23  C16 UNL     1      13.639  15.887  34.454  1.00  0.00     0.006 A 
HETATM   24  C17 UNL     1      14.871  15.340  34.128  1.00  0.00     0.017 A 
HETATM   25  C18 UNL     1      15.976  16.150  34.022  1.00  0.00     0.090 A 
HETATM   26  N4  UNL     1      15.871  17.454  34.231  1.00  0.00    -0.347 N 
ATOM     27  H4  UNL     1      16.709  18.028  34.146  1.00  0.00     0.167 HD
ENDBRANCH  20  21
ENDBRANCH  18  20
ENDBRANCH   9  14
BRANCH  12  28
HETATM   28  C21 UNL     1      10.988  26.621  35.307  1.00  0.00    -0.007 A 
HETATM   29  C22 UNL     1      10.988  27.726  34.495  1.00  0.00     0.014 A 
HETATM   30  C23 UNL     1      10.795  28.966  34.991  1.00  0.00     0.001 A 
HETATM   31  C24 UNL     1      10.589  29.183  36.331  1.00  0.00     0.000 A 
HETATM   32  C25 UNL     1      10.592  28.058  37.140  1.00  0.00     0.001 A 
HETATM   33  C26 UNL     1      10.784  26.801  36.654  1.00  0.00     0.014 A 
ENDBRANCH  12  28
BRANCH   1  34
HETATM   34  C1  UNL     1       5.850  25.082  32.144  1.00  0.00     0.120 C 
HETATM   35  N1  UNL     1       6.142  25.911  31.197  1.00  0.00    -0.387 N 
ATOM     36  H12 UNL     1       5.604  25.925  30.331  1.00  0.00     0.157 HD
ATOM     37  H11 UNL     1       6.930  26.533  31.373  1.00  0.00     0.157 HD
HETATM   38  N2  UNL     1       4.747  24.210  31.899  1.00  0.00    -0.082 NA
ENDBRANCH   1  34
TORSDOF 5
ENDMDL
MODEL 3
REMARK VINA RESULT: -9.288679108      0.514      1.017
REMARK  5 active torsions:
REMARK  status: ('A' for Active; 'I' for Inactive)
REMARK    1  A    between atoms: C1_4  and  C2_6 
REMARK    2  A    between atoms: C8_14  and  C9_15 
REMARK    3  A    between atoms: C13_19  and  O1_20 
REMARK    4  A    between atoms: O1_20  and  C14_21 
REMARK    5  A    between atoms: C20_31  and  C21_32 
ROOT
HETATM    1  C2  UNL     1       6.603  25.144  33.443  1.00  0.00     0.005 A 
HETATM    2  C3  UNL     1       6.029  25.522  34.631  1.00  0.00     0.015 A 
HETATM    3  C4  UNL     1       6.831  25.539  35.758  1.00  0.00     0.002 A 
HETATM    4  C5  UNL     1       8.165  25.198  35.736  1.00  0.00     0.014 A 
HETATM    5  C6  UNL     1       8.730  24.821  34.540  1.00  0.00    -0.006 A 
HETATM    6  C7  UNL     1      10.126  24.455  34.460  1.00  0.00     0.072 A 
HETATM    7  N3  UNL     1      10.653  23.277  34.095  1.00  0.00    -0.339 N 
ATOM      8  H3  UNL     1      10.120  22.453  33.819  1.00  0.00     0.167 HD
HETATM    9  C8  UNL     1      12.017  23.355  34.153  1.00  0.00     0.116 A 
HETATM   10  N5  UNL     1      12.346  24.588  34.556  1.00  0.00    -0.339 N 
ATOM     11  H5  UNL     1      13.291  24.948  34.694  1.00  0.00     0.167 HD
HETATM   12  C20 UNL     1      11.204  25.262  34.744  1.00  0.00     0.072 A 
HETATM   13  C27 UNL     1       7.916  24.803  33.398  1.00  0.00     0.028 A 
ENDROOT
BRANCH   9  14
HETATM   14  C9  UNL     1      12.989  22.313  33.840  1.00  0.00     0.011 A 
HETATM   15  C10 UNL     1      13.972  22.631  32.903  1.00  0.00     0.015 A 
HETATM   16  C11 UNL     1      14.908  21.695  32.577  1.00  0.00     0.004 A 
HETATM   17  C12 UNL     1      14.847  20.441  33.201  1.00  0.00     0.037 A 
HETATM   18  C13 UNL     1      13.897  20.103  34.119  1.00  0.00     0.078 A 
HETATM   19  C19 UNL     1      12.951  21.096  34.428  1.00  0.00     0.052 A 
BRANCH  18  20
HETATM   20  O1  UNL     1      13.803  18.909  34.741  1.00  0.00    -0.294 OA
BRANCH  20  21
HETATM   21  C14 UNL     1      14.294  17.673  34.530  1.00  0.00     0.147 A 
HETATM   22  C15 UNL     1      13.366  16.621  34.628  1.00  0.00     0.056 A 
HETATM   23  C16 UNL     1      13.731  15.319  34.437  1.00  0.00     0.006 A 
HETATM   24  C17 UNL     1      15.062  15.066  34.139  1.00  0.00     0.017 A 
HETATM   25  C18 UNL     1      15.955  16.107  34.046  1.00  0.00     0.090 A 
HETATM   26  N4  UNL     1      15.550  17.353  34.241  1.00  0.00    -0.347 N 
ATOM     27  H4  UNL     1      16.237  18.103  34.166  1.00  0.00     0.167 HD
ENDBRANCH  20  21
ENDBRANCH  18  20
ENDBRANCH   9  14
BRANCH  12  28
HETATM   28  C21 UNL     1      11.065  26.648  35.186  1.00  0.00    -0.007 A 
HETATM   29  C22 UNL     1      10.786  26.949  36.494  1.00  0.00     0.014 A 
HETATM   30  C23 UNL     1      10.658  28.226  36.912  1.00  0.00     0.001 A 
HETATM   31  C24 UNL     1      10.799  29.284  36.049  1.00  0.00     0.000 A 
HETATM   32  C25 UNL     1      11.079  28.965  34.729  1.00  0.00     0.001 A 
HETATM   33  C26 UNL     1      11.213  27.682  34.294  1.00  0.00     0.014 A 
ENDBRANCH  12  28
BRANCH   1  34
HETATM   34  C1  UNL     1       5.815  25.102  32.214  1.00  0.00     0.120 C 
HETATM   35  N1  UNL     1       4.830  24.276  32.088  1.00  0.00    -0.387 N 
ATOM     36  H12 UNL     1       4.280  24.246  31.230  1.00  0.00     0.157 HD
ATOM     37  H11 UNL     1       4.646  23.671  32.888  1.00  0.00     0.157 HD
HETATM   38  N2  UNL     1       6.073  25.948  31.095  1.00  0.00    -0.082 NA
ENDBRANCH   1  34
TORSDOF 5
ENDMDL
MODEL 4
REMARK VINA RESULT: -8.897371757      2.142      3.747
REMARK  5 active torsions:
REMARK  status: ('A' for Active; 'I' for Inactive)
REMARK    1  A    between atoms: C1_4  and  C2_6 
REMARK    2  A    between atoms: C8_14  and  C9_15 
REMARK    3  A    between atoms: C13_19  and  O1_20 
REMARK    4  A    between atoms: O1_20  and  C14_21 
REMARK    5  A    between atoms: C20_31  and  C21_32 
ROOT
HETATM    1  C2  UNL     1       8.725  25.830  34.184  1.00  0.00     0.005 A 
HETATM    2  C3  UNL     1       9.266  27.079  34.358  1.00  0.00     0.015 A 
HETATM    3  C4  UNL     1      10.643  27.178  34.448  1.00  0.00     0.002 A 
HETATM    4  C5  UNL     1      11.482  26.089  34.372  1.00  0.00     0.014 A 
HETATM    5  C6  UNL     1      10.929  24.842  34.199  1.00  0.00    -0.006 A 
HETATM    6  C7  UNL     1      11.763  23.665  34.110  1.00  0.00     0.072 A 
HETATM    7  N3  UNL     1      11.780  22.599  34.925  1.00  0.00    -0.339 N 
ATOM      8  H3  UNL     1      11.188  22.475  35.745  1.00  0.00     0.167 HD
HETATM    9  C8  UNL     1      12.717  21.707  34.482  1.00  0.00     0.116 A 
HETATM   10  N5  UNL     1      13.289  22.216  33.384  1.00  0.00    -0.339 N 
ATOM     11  H5  UNL     1      14.025  21.780  32.828  1.00  0.00     0.167 HD
HETATM   12  C20 UNL     1      12.716  23.404  33.152  1.00  0.00     0.072 A 
HETATM   13  C27 UNL     1       9.532  24.741  34.107  1.00  0.00     0.028 A 
ENDROOT
BRANCH   9  14
HETATM   14  C9  UNL     1      13.069  20.416  35.061  1.00  0.00     0.011 A 
HETATM   15  C10 UNL     1      13.096  20.337  36.454  1.00  0.00     0.015 A 
HETATM   16  C11 UNL     1      13.416  19.153  37.047  1.00  0.00     0.004 A 
HETATM   17  C12 UNL     1      13.705  18.050  36.231  1.00  0.00     0.037 A 
HETATM   18  C13 UNL     1      13.686  18.098  34.868  1.00  0.00     0.078 A 
HETATM   19  C19 UNL     1      13.352  19.338  34.295  1.00  0.00     0.052 A 
BRANCH  18  20
HETATM   20  O1  UNL     1      13.958  17.062  34.047  1.00  0.00    -0.294 OA
BRANCH  20  21
HETATM   21  C14 UNL     1      14.123  15.734  34.196  1.00  0.00     0.147 A 
HETATM   22  C15 UNL     1      15.453  15.278  34.186  1.00  0.00     0.056 A 
HETATM   23  C16 UNL     1      15.761  13.954  34.328  1.00  0.00     0.006 A 
HETATM   24  C17 UNL     1      14.708  13.067  34.485  1.00  0.00     0.017 A 
HETATM   25  C18 UNL     1      13.414  13.531  34.495  1.00  0.00     0.090 A 
HETATM   26  N4  UNL     1      13.168  14.824  34.352  1.00  0.00    -0.347 N 
ATOM     27  H4  UNL     1      12.197  15.137  34.362  1.00  0.00     0.167 HD
ENDBRANCH  20  21
ENDBRANCH  18  20
ENDBRANCH   9  14
BRANCH  12  28
HETATM   28  C21 UNL     1      13.019  24.327  32.060  1.00  0.00    -0.007 A 
HETATM   29  C22 UNL     1      12.269  24.337  30.913  1.00  0.00     0.014 A 
HETATM   30  C23 UNL     1      12.540  25.188  29.901  1.00  0.00     0.001 A 
HETATM   31  C24 UNL     1      13.578  26.083  29.970  1.00  0.00     0.000 A 
HETATM   32  C25 UNL     1      14.329  26.061  31.135  1.00  0.00     0.001 A 
HETATM   33  C26 UNL     1      14.067  25.209  32.164  1.00  0.00     0.014 A 
ENDBRANCH  12  28
BRANCH   1  34
HETATM   34  C1  UNL     1       7.279  25.650  34.082  1.00  0.00     0.120 C 
HETATM   35  N1  UNL     1       6.772  24.879  33.179  1.00  0.00    -0.387 N 
ATOM     36  H12 UNL     1       5.762  24.754  33.107  1.00  0.00     0.157 HD
ATOM     37  H11 UNL     1       7.435  24.415  32.559  1.00  0.00     0.157 HD
HETATM   38  N2  UNL     1       6.351  26.300  34.949  1.00  0.00    -0.082 NA
ENDBRANCH   1  34
TORSDOF 5
ENDMDL
MODEL 5
REMARK VINA RESULT: -8.457328846      3.385      4.592
REMARK  5 active torsions:
REMARK  status: ('A' for Active; 'I' for Inactive)
REMARK    1  A    between atoms: C1_4  and  C2_6 
REMARK    2  A    between atoms: C8_14  and  C9_15 
REMARK    3  A    between atoms: C13_19  and  O1_20 
REMARK    4  A    between atoms: O1_20  and  C14_21 
REMARK    5  A    between atoms: C20_31  and  C21_32 
ROOT
HETATM    1  C2  UNL     1      12.390  25.218  31.256  1.00  0.00     0.005 A 
HETATM    2  C3  UNL     1      11.120  25.642  31.562  1.00  0.00     0.015 A 
HETATM    3  C4  UNL     1      10.450  24.988  32.580  1.00  0.00     0.002 A 
HETATM    4  C5  UNL     1      10.997  23.943  33.290  1.00  0.00     0.014 A 
HETATM    5  C6  UNL     1      12.269  23.526  32.976  1.00  0.00    -0.006 A 
HETATM    6  C7  UNL     1      12.892  22.436  33.691  1.00  0.00     0.072 A 
HETATM    7  N3  UNL     1      13.312  21.259  33.204  1.00  0.00    -0.339 N 
ATOM      8  H3  UNL     1      13.243  20.965  32.230  1.00  0.00     0.167 HD
HETATM    9  C8  UNL     1      13.847  20.514  34.218  1.00  0.00     0.116 A 
HETATM   10  N5  UNL     1      13.762  21.228  35.347  1.00  0.00    -0.339 N 
ATOM     11  H5  UNL     1      14.078  20.938  36.272  1.00  0.00     0.167 HD
HETATM   12  C20 UNL     1      13.183  22.396  35.036  1.00  0.00     0.072 A 
HETATM   13  C27 UNL     1      12.949  24.189  31.943  1.00  0.00     0.028 A 
ENDROOT
BRANCH   9  14
HETATM   14  C9  UNL     1      14.424  19.177  34.141  1.00  0.00     0.011 A 
HETATM   15  C10 UNL     1      15.790  19.096  33.870  1.00  0.00     0.015 A 
HETATM   16  C11 UNL     1      16.381  17.870  33.791  1.00  0.00     0.004 A 
HETATM   17  C12 UNL     1      15.588  16.730  33.988  1.00  0.00     0.037 A 
HETATM   18  C13 UNL     1      14.252  16.780  34.254  1.00  0.00     0.078 A 
HETATM   19  C19 UNL     1      13.681  18.063  34.328  1.00  0.00     0.052 A 
BRANCH  18  20
HETATM   20  O1  UNL     1      13.455  15.709  34.449  1.00  0.00    -0.294 OA
BRANCH  20  21
HETATM   21  C14 UNL     1      13.646  14.393  34.662  1.00  0.00     0.147 A 
HETATM   22  C15 UNL     1      14.586  13.768  33.824  1.00  0.00     0.056 A 
HETATM   23  C16 UNL     1      14.876  12.437  33.933  1.00  0.00     0.006 A 
HETATM   24  C17 UNL     1      14.206  11.716  34.910  1.00  0.00     0.017 A 
HETATM   25  C18 UNL     1      13.292  12.344  35.722  1.00  0.00     0.090 A 
HETATM   26  N4  UNL     1      13.045  13.637  35.574  1.00  0.00    -0.347 N 
ATOM     27  H4  UNL     1      12.360  14.074  36.192  1.00  0.00     0.167 HD
ENDBRANCH  20  21
ENDBRANCH  18  20
ENDBRANCH   9  14
BRANCH  12  28
HETATM   28  C21 UNL     1      12.882  23.497  35.947  1.00  0.00    -0.007 A 
HETATM   29  C22 UNL     1      11.611  23.695  36.422  1.00  0.00     0.014 A 
HETATM   30  C23 UNL     1      11.323  24.709  37.265  1.00  0.00     0.001 A 
HETATM   31  C24 UNL     1      12.287  25.590  37.689  1.00  0.00     0.000 A 
HETATM   32  C25 UNL     1      13.567  25.378  37.201  1.00  0.00     0.001 A 
HETATM   33  C26 UNL     1      13.872  24.360  36.351  1.00  0.00     0.014 A 
ENDBRANCH  12  28
BRANCH   1  34
HETATM   34  C1  UNL     1      13.156  25.862  30.193  1.00  0.00     0.120 C 
HETATM   35  N1  UNL     1      14.375  26.237  30.391  1.00  0.00    -0.387 N 
ATOM     36  H12 UNL     1      14.911  26.687  29.649  1.00  0.00     0.157 HD
ATOM     37  H11 UNL     1      14.756  26.056  31.320  1.00  0.00     0.157 HD
HETATM   38  N2  UNL     1      12.623  26.115  28.894  1.00  0.00    -0.082 NA
ENDBRANCH   1  34
TORSDOF 5
ENDMDL
