MODEL 1
REMARK VINA RESULT: -10.729383473      0.000      0.000
REMARK  5 active torsions:
REMARK  status: ('A' for Active; 'I' for Inactive)
REMARK       I    between atoms: C1_2  and  N1_3 
REMARK       I    between atoms: C1_2  and  N3_21 
REMARK    1  A    between atoms: N1_3  and  C2_5 
REMARK    2  A    between atoms: C5_8  and  N2_9 
REMARK       I    between atoms: N2_9  and  C6_11 
REMARK    3  A    between atoms: C6_11  and  C7_13 
REMARK    4  A    between atoms: N3_21  and  C15_23 
REMARK    5  A    between atoms: C20_29  and  C21_30 
ROOT
HETATM    1  O1  UNL     1      11.278  22.681  35.034  1.00  0.00    -0.247 OA
HETATM    2  C1  UNL     1      12.343  23.165  35.433  1.00  0.00     0.325 C 
HETATM    3  N1  UNL     1      13.466  22.313  35.556  1.00  0.00    -0.309 N 
ATOM      4  H1  UNL     1      14.326  22.746  35.892  1.00  0.00     0.170 HD
HETATM    5  N3  UNL     1      12.452  24.521  35.758  1.00  0.00    -0.308 N 
ATOM      6  H3  UNL     1      13.374  24.823  36.072  1.00  0.00     0.170 HD
ENDROOT
BRANCH   3   7
HETATM    7  C2  UNL     1      13.531  20.939  35.267  1.00  0.00     0.036 A 
HETATM    8  C3  UNL     1      13.960  20.359  34.111  1.00  0.00     0.032 A 
HETATM    9  C4  UNL     1      13.961  18.963  33.926  1.00  0.00     0.032 A 
HETATM   10  C5  UNL     1      13.539  18.091  34.882  1.00  0.00     0.035 A 
HETATM   11  C13 UNL     1      13.095  18.686  36.086  1.00  0.00     0.032 A 
HETATM   12  C14 UNL     1      13.095  20.038  36.259  1.00  0.00     0.032 A 
BRANCH  10  13
HETATM   13  N2  UNL     1      13.529  16.677  34.794  1.00  0.00    -0.323 N 
HETATM   14  C6  UNL     1      14.668  15.897  34.653  1.00  0.00     0.256 C 
HETATM   15  O2  UNL     1      15.809  16.402  34.601  1.00  0.00    -0.267 OA
ATOM     16  H2  UNL     1      12.628  16.203  34.837  1.00  0.00     0.169 HD
BRANCH  14  17
HETATM   17  C7  UNL     1      14.617  14.421  34.556  1.00  0.00     0.032 A 
HETATM   18  C8  UNL     1      15.128  13.744  33.486  1.00  0.00     0.017 A 
HETATM   19  C9  UNL     1      15.069  12.349  33.417  1.00  0.00     0.001 A 
HETATM   20  C10 UNL     1      14.496  11.607  34.417  1.00  0.00     0.000 A 
HETATM   21  C11 UNL     1      13.981  12.281  35.495  1.00  0.00     0.001 A 
HETATM   22  C12 UNL     1      14.038  13.656  35.564  1.00  0.00     0.017 A 
ENDBRANCH  14  17
ENDBRANCH  10  13
ENDBRANCH   3   7
BRANCH   5  23
HETATM   23  C15 UNL     1      11.473  25.523  35.713  1.00  0.00     0.047 A 
HETATM   24  C16 UNL     1      10.756  25.888  36.834  1.00  0.00     0.033 A 
HETATM   25  C17 UNL     1       9.849  26.937  36.735  1.00  0.00     0.044 A 
HETATM   26  C18 UNL     1       9.651  27.615  35.561  1.00  0.00     0.117 A 
HETATM   27  F1  UNL     1       8.749  28.642  35.507  1.00  0.00    -0.206 F 
HETATM   28  C19 UNL     1      10.364  27.246  34.458  1.00  0.00     0.056 A 
HETATM   29  C20 UNL     1      11.280  26.203  34.507  1.00  0.00     0.004 A 
BRANCH  29  30
HETATM   30  C21 UNL     1      11.982  25.807  33.292  1.00  0.00    -0.024 A 
HETATM   31  C22 UNL     1      11.359  24.980  32.387  1.00  0.00     0.012 A 
HETATM   32  C23 UNL     1      12.008  24.539  31.235  1.00  0.00     0.001 A 
HETATM   33  C24 UNL     1      13.297  24.934  30.990  1.00  0.00     0.000 A 
HETATM   34  C25 UNL     1      13.927  25.757  31.887  1.00  0.00     0.001 A 
HETATM   35  C26 UNL     1      13.273  26.187  33.024  1.00  0.00     0.012 A 
ENDBRANCH  29  30
ENDBRANCH   5  23
TORSDOF 5
ENDMDL
MODEL 2
REMARK VINA RESULT: -9.783777173      1.237      1.237
REMARK  5 active torsions:
REMARK  status: ('A' for Active; 'I' for Inactive)
REMARK       I    between atoms: C1_2  and  N1_3 
REMARK       I    between atoms: C1_2  and  N3_21 
REMARK    1  A    between atoms: N1_3  and  C2_5 
REMARK    2  A    between atoms: C5_8  and  N2_9 
REMARK       I    between atoms: N2_9  and  C6_11 
REMARK    3  A    between atoms: C6_11  and  C7_13 
REMARK    4  A    between atoms: N3_21  and  C15_23 
REMARK    5  A    between atoms: C20_29  and  C21_30 
ROOT
HETATM    1  O1  UNL     1      11.052  21.721  34.597  1.00  0.00    -0.247 OA
HETATM    2  C1  UNL     1      11.944  22.410  35.103  1.00  0.00     0.325 C 
HETATM    3  N1  UNL     1      13.188  21.800  35.388  1.00  0.00    -0.309 N 
ATOM      4  H1  UNL     1      13.898  22.398  35.809  1.00  0.00     0.170 HD
HETATM    5  N3  UNL     1      11.744  23.764  35.392  1.00  0.00    -0.308 N 
ATOM      6  H3  UNL     1      12.543  24.247  35.803  1.00  0.00     0.170 HD
ENDROOT
BRANCH   3   7
HETATM    7  C2  UNL     1      13.557  20.464  35.157  1.00  0.00     0.036 A 
HETATM    8  C3  UNL     1      14.173  19.958  34.051  1.00  0.00     0.032 A 
HETATM    9  C4  UNL     1      14.476  18.588  33.921  1.00  0.00     0.032 A 
HETATM   10  C5  UNL     1      14.182  17.672  34.883  1.00  0.00     0.035 A 
HETATM   11  C13 UNL     1      13.544  18.190  36.033  1.00  0.00     0.032 A 
HETATM   12  C14 UNL     1      13.252  19.516  36.154  1.00  0.00     0.032 A 
BRANCH  10  13
HETATM   13  N2  UNL     1      14.472  16.286  34.849  1.00  0.00    -0.323 N 
HETATM   14  C6  UNL     1      13.585  15.314  34.410  1.00  0.00     0.256 C 
HETATM   15  O2  UNL     1      12.442  15.605  33.997  1.00  0.00    -0.267 OA
ATOM     16  H2  UNL     1      15.392  15.983  35.167  1.00  0.00     0.169 HD
BRANCH  14  17
HETATM   17  C7  UNL     1      13.921  13.873  34.398  1.00  0.00     0.032 A 
HETATM   18  C8  UNL     1      14.614  13.296  33.373  1.00  0.00     0.017 A 
HETATM   19  C9  UNL     1      14.920  11.931  33.385  1.00  0.00     0.001 A 
HETATM   20  C10 UNL     1      14.538  11.121  34.422  1.00  0.00     0.000 A 
HETATM   21  C11 UNL     1      13.842  11.695  35.455  1.00  0.00     0.001 A 
HETATM   22  C12 UNL     1      13.539  13.039  35.445  1.00  0.00     0.017 A 
ENDBRANCH  14  17
ENDBRANCH  10  13
ENDBRANCH   3   7
BRANCH   5  23
HETATM   23  C15 UNL     1      10.601  24.552  35.196  1.00  0.00     0.047 A 
HETATM   24  C16 UNL     1       9.539  24.520  36.076  1.00  0.00     0.033 A 
HETATM   25  C17 UNL     1       8.466  25.377  35.859  1.00  0.00     0.044 A 
HETATM   26  C18 UNL     1       8.437  26.248  34.802  1.00  0.00     0.117 A 
HETATM   27  F1  UNL     1       7.362  27.076  34.625  1.00  0.00    -0.206 F 
HETATM   28  C19 UNL     1       9.492  26.271  33.937  1.00  0.00     0.056 A 
HETATM   29  C20 UNL     1      10.585  25.432  34.111  1.00  0.00     0.004 A 
BRANCH  29  30
HETATM   30  C21 UNL     1      11.666  25.451  33.133  1.00  0.00    -0.024 A 
HETATM   31  C22 UNL     1      11.614  24.610  32.046  1.00  0.00     0.012 A 
HETATM   32  C23 UNL     1      12.646  24.561  31.111  1.00  0.00     0.001 A 
HETATM   33  C24 UNL     1      13.743  25.367  31.270  1.00  0.00     0.000 A 
HETATM   34  C25 UNL     1      13.805  26.209  32.350  1.00  0.00     0.001 A 
HETATM   35  C26 UNL     1      12.775  26.248  33.269  1.00  0.00     0.012 A 
ENDBRANCH  29  30
ENDBRANCH   5  23
TORSDOF 5
ENDMDL
MODEL 3
REMARK VINA RESULT: -8.764380539      1.714      1.872
REMARK  5 active torsions:
REMARK  status: ('A' for Active; 'I' for Inactive)
REMARK       I    between atoms: C1_2  and  N1_3 
REMARK       I    between atoms: C1_2  and  N3_21 
REMARK    1  A    between atoms: N1_3  and  C2_5 
REMARK    2  A    between atoms: C5_8  and  N2_9 
REMARK       I    between atoms: N2_9  and  C6_11 
REMARK    3  A    between atoms: C6_11  and  C7_13 
REMARK    4  A    between atoms: N3_21  and  C15_23 
REMARK    5  A    between atoms: C20_29  and  C21_30 
ROOT
HETATM    1  O1  UNL     1      10.739  22.326  33.534  1.00  0.00    -0.247 OA
HETATM    2  C1  UNL     1      11.159  23.001  34.479  1.00  0.00     0.325 C 
HETATM    3  N1  UNL     1      12.164  22.450  35.308  1.00  0.00    -0.309 N 
ATOM      4  H1  UNL     1      12.484  23.034  36.080  1.00  0.00     0.170 HD
HETATM    5  N3  UNL     1      10.664  24.284  34.736  1.00  0.00    -0.308 N 
ATOM      6  H3  UNL     1      11.079  24.761  35.536  1.00  0.00     0.170 HD
ENDROOT
BRANCH   3   7
HETATM    7  C2  UNL     1      12.773  21.188  35.188  1.00  0.00     0.036 A 
HETATM    8  C3  UNL     1      13.751  20.825  34.311  1.00  0.00     0.032 A 
HETATM    9  C4  UNL     1      14.273  19.517  34.268  1.00  0.00     0.032 A 
HETATM   10  C5  UNL     1      13.846  18.523  35.094  1.00  0.00     0.035 A 
HETATM   11  C13 UNL     1      12.832  18.894  36.007  1.00  0.00     0.032 A 
HETATM   12  C14 UNL     1      12.330  20.161  36.045  1.00  0.00     0.032 A 
BRANCH  10  13
HETATM   13  N2  UNL     1      14.330  17.193  35.139  1.00  0.00    -0.323 N 
HETATM   14  C6  UNL     1      13.713  16.118  34.516  1.00  0.00     0.256 C 
HETATM   15  O2  UNL     1      12.666  16.256  33.849  1.00  0.00    -0.267 OA
ATOM     16  H2  UNL     1      15.186  17.014  35.663  1.00  0.00     0.169 HD
BRANCH  14  17
HETATM   17  C7  UNL     1      14.244  14.738  34.593  1.00  0.00     0.032 A 
HETATM   18  C8  UNL     1      15.509  14.422  34.188  1.00  0.00     0.017 A 
HETATM   19  C9  UNL     1      15.988  13.111  34.271  1.00  0.00     0.001 A 
HETATM   20  C10 UNL     1      15.209  12.094  34.761  1.00  0.00     0.000 A 
HETATM   21  C11 UNL     1      13.938  12.407  35.169  1.00  0.00     0.001 A 
HETATM   22  C12 UNL     1      13.464  13.697  35.087  1.00  0.00     0.017 A 
ENDBRANCH  14  17
ENDBRANCH  10  13
ENDBRANCH   3   7
BRANCH   5  23
HETATM   23  C15 UNL     1       9.677  25.006  34.050  1.00  0.00     0.047 A 
HETATM   24  C16 UNL     1       8.361  25.006  34.462  1.00  0.00     0.033 A 
HETATM   25  C17 UNL     1       7.447  25.799  33.777  1.00  0.00     0.044 A 
HETATM   26  C18 UNL     1       7.818  26.576  32.711  1.00  0.00     0.117 A 
HETATM   27  F1  UNL     1       6.887  27.342  32.065  1.00  0.00    -0.206 F 
HETATM   28  C19 UNL     1       9.122  26.567  32.311  1.00  0.00     0.056 A 
HETATM   29  C20 UNL     1      10.071  25.791  32.963  1.00  0.00     0.004 A 
BRANCH  29  30
HETATM   30  C21 UNL     1      11.443  25.770  32.470  1.00  0.00    -0.024 A 
HETATM   31  C22 UNL     1      11.752  25.034  31.349  1.00  0.00     0.012 A 
HETATM   32  C23 UNL     1      13.057  24.948  30.869  1.00  0.00     0.001 A 
HETATM   33  C24 UNL     1      14.063  25.610  31.521  1.00  0.00     0.000 A 
HETATM   34  C25 UNL     1      13.767  26.346  32.639  1.00  0.00     0.001 A 
HETATM   35  C26 UNL     1      12.469  26.423  33.105  1.00  0.00     0.012 A 
ENDBRANCH  29  30
ENDBRANCH   5  23
TORSDOF 5
ENDMDL
MODEL 4
REMARK VINA RESULT: -8.621456350      1.764      3.028
REMARK  5 active torsions:
REMARK  status: ('A' for Active; 'I' for Inactive)
REMARK       I    between atoms: C1_2  and  N1_3 
REMARK       I    between atoms: C1_2  and  N3_21 
REMARK    1  A    between atoms: N1_3  and  C2_5 
REMARK    2  A    between atoms: C5_8  and  N2_9 
REMARK       I    between atoms: N2_9  and  C6_11 
REMARK    3  A    between atoms: C6_11  and  C7_13 
REMARK    4  A    between atoms: N3_21  and  C15_23 
REMARK    5  A    between atoms: C20_29  and  C21_30 
ROOT
HETATM    1  O1  UNL     1      12.063  22.557  33.382  1.00  0.00    -0.247 OA
HETATM    2  C1  UNL     1      13.048  23.216  33.034  1.00  0.00     0.325 C 
HETATM    3  N1  UNL     1      14.279  22.544  32.853  1.00  0.00    -0.309 N 
ATOM      4  H1  UNL     1      15.071  23.120  32.570  1.00  0.00     0.170 HD
HETATM    5  N3  UNL     1      12.963  24.595  32.819  1.00  0.00    -0.308 N 
ATOM      6  H3  UNL     1      13.830  25.047  32.529  1.00  0.00     0.170 HD
ENDROOT
BRANCH   3   7
HETATM    7  C2  UNL     1      14.536  21.171  33.018  1.00  0.00     0.036 A 
HETATM    8  C3  UNL     1      15.151  20.335  32.135  1.00  0.00     0.032 A 
HETATM    9  C4  UNL     1      15.335  18.965  32.401  1.00  0.00     0.032 A 
HETATM   10  C5  UNL     1      14.919  18.373  33.554  1.00  0.00     0.035 A 
HETATM   11  C13 UNL     1      14.280  19.235  34.475  1.00  0.00     0.032 A 
HETATM   12  C14 UNL     1      14.103  20.561  34.212  1.00  0.00     0.032 A 
BRANCH  10  13
HETATM   13  N2  UNL     1      15.084  17.014  33.916  1.00  0.00    -0.323 N 
HETATM   14  C6  UNL     1      14.035  16.132  34.133  1.00  0.00     0.256 C 
HETATM   15  O2  UNL     1      12.843  16.485  34.012  1.00  0.00    -0.267 OA
ATOM     16  H2  UNL     1      16.034  16.662  34.025  1.00  0.00     0.169 HD
BRANCH  14  17
HETATM   17  C7  UNL     1      14.247  14.720  34.520  1.00  0.00     0.032 A 
HETATM   18  C8  UNL     1      15.434  14.078  34.310  1.00  0.00     0.017 A 
HETATM   19  C9  UNL     1      15.610  12.742  34.685  1.00  0.00     0.001 A 
HETATM   20  C10 UNL     1      14.602  12.027  35.278  1.00  0.00     0.000 A 
HETATM   21  C11 UNL     1      13.408  12.667  35.492  1.00  0.00     0.001 A 
HETATM   22  C12 UNL     1      13.233  13.982  35.123  1.00  0.00     0.017 A 
ENDBRANCH  14  17
ENDBRANCH  10  13
ENDBRANCH   3   7
BRANCH   5  23
HETATM   23  C15 UNL     1      11.855  25.445  32.946  1.00  0.00     0.047 A 
HETATM   24  C16 UNL     1      11.185  25.932  31.843  1.00  0.00     0.033 A 
HETATM   25  C17 UNL     1      10.052  26.714  32.041  1.00  0.00     0.044 A 
HETATM   26  C18 UNL     1       9.587  27.011  33.296  1.00  0.00     0.117 A 
HETATM   27  F1  UNL     1       8.469  27.783  33.447  1.00  0.00    -0.206 F 
HETATM   28  C19 UNL     1      10.258  26.525  34.380  1.00  0.00     0.056 A 
HETATM   29  C20 UNL     1      11.395  25.741  34.232  1.00  0.00     0.004 A 
BRANCH  29  30
HETATM   30  C21 UNL     1      12.113  25.287  35.418  1.00  0.00    -0.024 A 
HETATM   31  C22 UNL     1      13.444  25.601  35.568  1.00  0.00     0.012 A 
HETATM   32  C23 UNL     1      14.181  25.150  36.661  1.00  0.00     0.001 A 
HETATM   33  C24 UNL     1      13.574  24.376  37.615  1.00  0.00     0.000 A 
HETATM   34  C25 UNL     1      12.248  24.058  37.475  1.00  0.00     0.001 A 
HETATM   35  C26 UNL     1      11.528  24.511  36.386  1.00  0.00     0.012 A 
ENDBRANCH  29  30
ENDBRANCH   5  23
TORSDOF 5
ENDMDL
MODEL 5
REMARK VINA RESULT: -8.503010436      1.812      3.238
REMARK  5 active torsions:
REMARK  status: ('A' for Active; 'I' for Inactive)
REMARK       I    between atoms: C1_2  and  N1_3 
REMARK       I    between atoms: C1_2  and  N3_21 
REMARK    1  A    between atoms: N1_3  and  C2_5 
REMARK    2  A    between atoms: C5_8  and  N2_9 
REMARK       I    between atoms: N2_9  and  C6_11 
REMARK    3  A    between atoms: C6_11  and  C7_13 
REMARK    4  A    between atoms: N3_21  and  C15_23 
REMARK    5  A    between atoms: C20_29  and  C21_30 
ROOT
HETATM    1  O1  UNL     1      11.809  22.814  32.827  1.00  0.00    -0.247 OA
HETATM    2  C1  UNL     1      12.712  23.587  33.164  1.00  0.00     0.325 C 
HETATM    3  N1  UNL     1      13.959  23.040  33.547  1.00  0.00    -0.309 N 
ATOM      4  H1  UNL     1      14.679  23.708  33.823  1.00  0.00     0.170 HD
HETATM    5  N3  UNL     1      12.521  24.972  33.171  1.00  0.00    -0.308 N 
ATOM      6  H3  UNL     1      13.329  25.524  33.461  1.00  0.00     0.170 HD
ENDROOT
BRANCH   3   7
HETATM    7  C2  UNL     1      14.320  21.682  33.590  1.00  0.00     0.036 A 
HETATM    8  C3  UNL     1      15.173  21.029  32.750  1.00  0.00     0.032 A 
HETATM    9  C4  UNL     1      15.443  19.652  32.877  1.00  0.00     0.032 A 
HETATM   10  C5  UNL     1      14.881  18.875  33.842  1.00  0.00     0.035 A 
HETATM   11  C13 UNL     1      13.997  19.546  34.717  1.00  0.00     0.032 A 
HETATM   12  C14 UNL     1      13.737  20.879  34.589  1.00  0.00     0.032 A 
BRANCH  10  13
HETATM   13  N2  UNL     1      15.114  17.495  34.060  1.00  0.00    -0.323 N 
HETATM   14  C6  UNL     1      14.111  16.548  34.207  1.00  0.00     0.256 C 
HETATM   15  O2  UNL     1      12.902  16.857  34.148  1.00  0.00    -0.267 OA
ATOM     16  H2  UNL     1      16.081  17.177  34.112  1.00  0.00     0.169 HD
BRANCH  14  17
HETATM   17  C7  UNL     1      14.394  15.115  34.443  1.00  0.00     0.032 A 
HETATM   18  C8  UNL     1      15.619  14.565  34.199  1.00  0.00     0.017 A 
HETATM   19  C9  UNL     1      15.862  13.208  34.430  1.00  0.00     0.001 A 
HETATM   20  C10 UNL     1      14.883  12.377  34.910  1.00  0.00     0.000 A 
HETATM   21  C11 UNL     1      13.650  12.924  35.158  1.00  0.00     0.001 A 
HETATM   22  C12 UNL     1      13.409  14.261  34.930  1.00  0.00     0.017 A 
ENDBRANCH  14  17
ENDBRANCH  10  13
ENDBRANCH   3   7
BRANCH   5  23
HETATM   23  C15 UNL     1      11.377  25.710  32.838  1.00  0.00     0.047 A 
HETATM   24  C16 UNL     1      11.167  26.185  31.560  1.00  0.00     0.033 A 
HETATM   25  C17 UNL     1       9.978  26.850  31.281  1.00  0.00     0.044 A 
HETATM   26  C18 UNL     1       9.015  27.044  32.236  1.00  0.00     0.117 A 
HETATM   27  F1  UNL     1       7.859  27.703  31.920  1.00  0.00    -0.206 F 
HETATM   28  C19 UNL     1       9.233  26.571  33.497  1.00  0.00     0.056 A 
HETATM   29  C20 UNL     1      10.405  25.902  33.825  1.00  0.00     0.004 A 
BRANCH  29  30
HETATM   30  C21 UNL     1      10.621  25.461  35.197  1.00  0.00    -0.024 A 
HETATM   31  C22 UNL     1      11.461  26.177  36.018  1.00  0.00     0.012 A 
HETATM   32  C23 UNL     1      11.731  25.768  37.322  1.00  0.00     0.001 A 
HETATM   33  C24 UNL     1      11.152  24.625  37.807  1.00  0.00     0.000 A 
HETATM   34  C25 UNL     1      10.313  23.903  36.997  1.00  0.00     0.001 A 
HETATM   35  C26 UNL     1      10.053  24.320  35.707  1.00  0.00     0.012 A 
ENDBRANCH  29  30
ENDBRANCH   5  23
TORSDOF 5
ENDMDL
