MODEL 1
REMARK VINA RESULT: -12.222021710      0.000      0.000
REMARK  6 active torsions:
REMARK  status: ('A' for Active; 'I' for Inactive)
REMARK    1  A    between atoms: C1_4  and  C2_6 
REMARK    2  A    between atoms: C5_9  and  C6_10 
REMARK    3  A    between atoms: C9_13  and  C10_14 
REMARK    4  A    between atoms: C14_18  and  C15_19 
REMARK       I    between atoms: C15_19  and  N3_21 
REMARK    5  A    between atoms: N3_21  and  C16_23 
REMARK    6  A    between atoms: C16_23  and  C17_24 
ROOT
HETATM    1  C6  UNL     1      14.024  18.643  34.208  1.00  0.00    -0.026 A 
HETATM    2  C7  UNL     1      14.820  19.505  33.486  1.00  0.00     0.013 A 
HETATM    3  C8  UNL     1      14.578  20.883  33.484  1.00  0.00     0.013 A 
HETATM    4  C9  UNL     1      13.529  21.392  34.213  1.00  0.00    -0.026 A 
HETATM    5  C22 UNL     1      12.737  20.537  34.931  1.00  0.00     0.013 A 
HETATM    6  C23 UNL     1      12.979  19.178  34.930  1.00  0.00     0.013 A 
ENDROOT
BRANCH   4   7
HETATM    7  C10 UNL     1      13.262  22.842  34.214  1.00  0.00    -0.025 A 
HETATM    8  C11 UNL     1      14.123  23.645  33.522  1.00  0.00     0.012 A 
HETATM    9  C12 UNL     1      13.880  25.002  33.525  1.00  0.00     0.002 A 
HETATM   10  C13 UNL     1      12.806  25.537  34.201  1.00  0.00     0.017 A 
HETATM   11  C14 UNL     1      11.931  24.739  34.900  1.00  0.00     0.032 A 
HETATM   12  C21 UNL     1      12.188  23.361  34.891  1.00  0.00     0.029 A 
BRANCH  11  13
HETATM   13  C15 UNL     1      10.785  25.250  35.637  1.00  0.00     0.251 C 
HETATM   14  O1  UNL     1      10.971  25.658  36.819  1.00  0.00    -0.268 OA
HETATM   15  N3  UNL     1       9.515  25.290  35.054  1.00  0.00    -0.352 N 
ATOM     16  H3  UNL     1       9.372  24.960  34.100  1.00  0.00     0.163 HD
BRANCH  15  17
HETATM   17  C16 UNL     1       8.393  25.812  35.836  1.00  0.00     0.169 C 
BRANCH  17  18
HETATM   18  C17 UNL     1       7.108  25.246  35.285  1.00  0.00     0.000 A 
HETATM   19  C18 UNL     1       6.108  24.622  35.984  1.00  0.00     0.017 A 
HETATM   20  C19 UNL     1       5.047  24.194  35.291  1.00  0.00     0.008 A 
HETATM   21  C20 UNL     1       5.048  24.414  33.939  1.00  0.00     0.050 A 
HETATM   22  S1  UNL     1       6.531  25.212  33.681  1.00  0.00    -0.105 SA
ENDBRANCH  17  18
ENDBRANCH  15  17
ENDBRANCH  11  13
ENDBRANCH   4   7
BRANCH   1  23
HETATM   23  C5  UNL     1      14.244  17.204  34.229  1.00  0.00    -0.026 A 
HETATM   24  C4  UNL     1      13.191  16.316  34.223  1.00  0.00     0.013 A 
HETATM   25  C3  UNL     1      13.375  14.958  34.243  1.00  0.00     0.015 A 
HETATM   26  C2  UNL     1      14.646  14.392  34.272  1.00  0.00     0.004 A 
HETATM   27  C25 UNL     1      15.710  15.267  34.277  1.00  0.00     0.015 A 
HETATM   28  C24 UNL     1      15.507  16.650  34.256  1.00  0.00     0.013 A 
BRANCH  26  29
HETATM   29  C1  UNL     1      14.807  12.955  34.293  1.00  0.00     0.120 C 
HETATM   30  N1  UNL     1      15.213  12.322  33.272  1.00  0.00    -0.387 N 
ATOM     31  H12 UNL     1      15.327  11.309  33.288  1.00  0.00     0.157 HD
ATOM     32  H11 UNL     1      15.430  12.837  32.420  1.00  0.00     0.157 HD
HETATM   33  N2  UNL     1      14.505  12.238  35.479  1.00  0.00    -0.082 NA
ENDBRANCH  26  29
ENDBRANCH   1  23
TORSDOF 6
ENDMDL
MODEL 2
REMARK VINA RESULT: -11.933258775      1.361      1.522
REMARK  6 active torsions:
REMARK  status: ('A' for Active; 'I' for Inactive)
REMARK    1  A    between atoms: C1_4  and  C2_6 
REMARK    2  A    between atoms: C5_9  and  C6_10 
REMARK    3  A    between atoms: C9_13  and  C10_14 
REMARK    4  A    between atoms: C14_18  and  C15_19 
REMARK       I    between atoms: C15_19  and  N3_21 
REMARK    5  A    between atoms: N3_21  and  C16_23 
REMARK    6  A    between atoms: C16_23  and  C17_24 
ROOT
HETATM    1  C6  UNL     1      13.979  18.664  34.254  1.00  0.00    -0.026 A 
HETATM    2  C7  UNL     1      14.782  19.545  33.564  1.00  0.00     0.013 A 
HETATM    3  C8  UNL     1      14.534  20.922  33.588  1.00  0.00     0.013 A 
HETATM    4  C9  UNL     1      13.472  21.409  34.313  1.00  0.00    -0.026 A 
HETATM    5  C22 UNL     1      12.673  20.536  34.999  1.00  0.00     0.013 A 
HETATM    6  C23 UNL     1      12.922  19.178  34.972  1.00  0.00     0.013 A 
ENDROOT
BRANCH   4   7
HETATM    7  C10 UNL     1      13.198  22.858  34.341  1.00  0.00    -0.025 A 
HETATM    8  C11 UNL     1      14.068  23.654  35.031  1.00  0.00     0.012 A 
HETATM    9  C12 UNL     1      13.813  25.008  35.066  1.00  0.00     0.002 A 
HETATM   10  C13 UNL     1      12.719  25.548  34.427  1.00  0.00     0.017 A 
HETATM   11  C14 UNL     1      11.836  24.758  33.728  1.00  0.00     0.032 A 
HETATM   12  C21 UNL     1      12.106  23.382  33.700  1.00  0.00     0.029 A 
BRANCH  11  13
HETATM   13  C15 UNL     1      10.662  25.273  33.040  1.00  0.00     0.251 C 
HETATM   14  O1  UNL     1      10.840  26.025  32.039  1.00  0.00    -0.268 OA
HETATM   15  N3  UNL     1       9.373  24.947  33.474  1.00  0.00    -0.352 N 
ATOM     16  H3  UNL     1       9.237  24.340  34.281  1.00  0.00     0.163 HD
BRANCH  15  17
HETATM   17  C16 UNL     1       8.224  25.491  32.749  1.00  0.00     0.169 C 
BRANCH  17  18
HETATM   18  C17 UNL     1       6.956  24.986  33.393  1.00  0.00     0.000 A 
HETATM   19  C18 UNL     1       5.926  24.318  32.786  1.00  0.00     0.017 A 
HETATM   20  C19 UNL     1       4.890  23.959  33.552  1.00  0.00     0.008 A 
HETATM   21  C20 UNL     1       4.943  24.290  34.880  1.00  0.00     0.050 A 
HETATM   22  S1  UNL     1       6.442  25.091  35.015  1.00  0.00    -0.105 SA
ENDBRANCH  17  18
ENDBRANCH  15  17
ENDBRANCH  11  13
ENDBRANCH   4   7
BRANCH   1  23
HETATM   23  C5  UNL     1      14.206  17.226  34.247  1.00  0.00    -0.026 A 
HETATM   24  C4  UNL     1      13.157  16.333  34.248  1.00  0.00     0.013 A 
HETATM   25  C3  UNL     1      13.346  14.975  34.242  1.00  0.00     0.015 A 
HETATM   26  C2  UNL     1      14.620  14.415  34.235  1.00  0.00     0.004 A 
HETATM   27  C25 UNL     1      15.681  15.295  34.234  1.00  0.00     0.015 A 
HETATM   28  C24 UNL     1      15.472  16.676  34.239  1.00  0.00     0.013 A 
BRANCH  26  29
HETATM   29  C1  UNL     1      14.788  12.978  34.229  1.00  0.00     0.120 C 
HETATM   30  N1  UNL     1      15.217  12.369  33.204  1.00  0.00    -0.387 N 
ATOM     31  H12 UNL     1      15.335  11.356  33.200  1.00  0.00     0.157 HD
ATOM     32  H11 UNL     1      15.448  12.903  32.367  1.00  0.00     0.157 HD
HETATM   33  N2  UNL     1      14.465  12.235  35.394  1.00  0.00    -0.082 NA
ENDBRANCH  26  29
ENDBRANCH   1  23
TORSDOF 6
ENDMDL
MODEL 3
REMARK VINA RESULT: -11.845114482      1.166      1.241
REMARK  6 active torsions:
REMARK  status: ('A' for Active; 'I' for Inactive)
REMARK    1  A    between atoms: C1_4  and  C2_6 
REMARK    2  A    between atoms: C5_9  and  C6_10 
REMARK    3  A    between atoms: C9_13  and  C10_14 
REMARK    4  A    between atoms: C14_18  and  C15_19 
REMARK       I    between atoms: C15_19  and  N3_21 
REMARK    5  A    between atoms: N3_21  and  C16_23 
REMARK    6  A    between atoms: C16_23  and  C17_24 
ROOT
HETATM    1  C6  UNL     1      13.939  18.612  34.240  1.00  0.00    -0.026 A 
HETATM    2  C7  UNL     1      14.720  19.504  33.538  1.00  0.00     0.013 A 
HETATM    3  C8  UNL     1      14.442  20.875  33.552  1.00  0.00     0.013 A 
HETATM    4  C9  UNL     1      13.374  21.347  34.278  1.00  0.00    -0.026 A 
HETATM    5  C22 UNL     1      12.598  20.462  34.977  1.00  0.00     0.013 A 
HETATM    6  C23 UNL     1      12.875  19.110  34.960  1.00  0.00     0.013 A 
ENDROOT
BRANCH   4   7
HETATM    7  C10 UNL     1      13.070  22.789  34.297  1.00  0.00    -0.025 A 
HETATM    8  C11 UNL     1      14.047  23.637  34.733  1.00  0.00     0.012 A 
HETATM    9  C12 UNL     1      13.766  24.986  34.758  1.00  0.00     0.002 A 
HETATM   10  C13 UNL     1      12.540  25.470  34.355  1.00  0.00     0.017 A 
HETATM   11  C14 UNL     1      11.549  24.627  33.912  1.00  0.00     0.032 A 
HETATM   12  C21 UNL     1      11.846  23.257  33.892  1.00  0.00     0.029 A 
BRANCH  11  13
HETATM   13  C15 UNL     1      10.235  25.082  33.482  1.00  0.00     0.251 C 
HETATM   14  O1  UNL     1       9.760  24.603  32.412  1.00  0.00    -0.268 OA
HETATM   15  N3  UNL     1       9.519  26.023  34.228  1.00  0.00    -0.352 N 
ATOM     16  H3  UNL     1       9.908  26.405  35.090  1.00  0.00     0.163 HD
BRANCH  15  17
HETATM   17  C16 UNL     1       8.202  26.449  33.753  1.00  0.00     0.169 C 
BRANCH  17  18
HETATM   18  C17 UNL     1       7.140  25.669  34.488  1.00  0.00     0.000 A 
HETATM   19  C18 UNL     1       7.239  25.098  35.729  1.00  0.00     0.017 A 
HETATM   20  C19 UNL     1       6.167  24.446  36.193  1.00  0.00     0.008 A 
HETATM   21  C20 UNL     1       5.059  24.402  35.390  1.00  0.00     0.050 A 
HETATM   22  S1  UNL     1       5.552  25.274  34.010  1.00  0.00    -0.105 SA
ENDBRANCH  17  18
ENDBRANCH  15  17
ENDBRANCH  11  13
ENDBRANCH   4   7
BRANCH   1  23
HETATM   23  C5  UNL     1      14.196  17.179  34.244  1.00  0.00    -0.026 A 
HETATM   24  C4  UNL     1      13.166  16.264  34.212  1.00  0.00     0.013 A 
HETATM   25  C3  UNL     1      13.384  14.911  34.216  1.00  0.00     0.015 A 
HETATM   26  C2  UNL     1      14.669  14.377  34.252  1.00  0.00     0.004 A 
HETATM   27  C25 UNL     1      15.710  15.279  34.283  1.00  0.00     0.015 A 
HETATM   28  C24 UNL     1      15.472  16.656  34.279  1.00  0.00     0.013 A 
BRANCH  26  29
HETATM   29  C1  UNL     1      14.867  12.945  34.255  1.00  0.00     0.120 C 
HETATM   30  N1  UNL     1      15.261  12.331  33.218  1.00  0.00    -0.387 N 
ATOM     31  H12 UNL     1      15.400  11.321  33.220  1.00  0.00     0.157 HD
ATOM     32  H11 UNL     1      15.442  12.860  32.365  1.00  0.00     0.157 HD
HETATM   33  N2  UNL     1      14.614  12.209  35.442  1.00  0.00    -0.082 NA
ENDBRANCH  26  29
ENDBRANCH   1  23
TORSDOF 6
ENDMDL
MODEL 4
REMARK VINA RESULT: -11.762285080      1.673      2.264
REMARK  6 active torsions:
REMARK  status: ('A' for Active; 'I' for Inactive)
REMARK    1  A    between atoms: C1_4  and  C2_6 
REMARK    2  A    between atoms: C5_9  and  C6_10 
REMARK    3  A    between atoms: C9_13  and  C10_14 
REMARK    4  A    between atoms: C14_18  and  C15_19 
REMARK       I    between atoms: C15_19  and  N3_21 
REMARK    5  A    between atoms: N3_21  and  C16_23 
REMARK    6  A    between atoms: C16_23  and  C17_24 
ROOT
HETATM    1  C6  UNL     1      14.249  18.101  33.859  1.00  0.00    -0.026 A 
HETATM    2  C7  UNL     1      15.023  18.704  32.893  1.00  0.00     0.013 A 
HETATM    3  C8  UNL     1      14.957  20.084  32.669  1.00  0.00     0.013 A 
HETATM    4  C9  UNL     1      14.107  20.856  33.426  1.00  0.00    -0.026 A 
HETATM    5  C22 UNL     1      13.337  20.259  34.387  1.00  0.00     0.013 A 
HETATM    6  C23 UNL     1      13.406  18.898  34.603  1.00  0.00     0.013 A 
ENDROOT
BRANCH   4   7
HETATM    7  C10 UNL     1      14.026  22.310  33.196  1.00  0.00    -0.025 A 
HETATM    8  C11 UNL     1      14.587  22.804  32.053  1.00  0.00     0.012 A 
HETATM    9  C12 UNL     1      14.519  24.163  31.837  1.00  0.00     0.002 A 
HETATM   10  C13 UNL     1      13.905  25.003  32.740  1.00  0.00     0.017 A 
HETATM   11  C14 UNL     1      13.335  24.519  33.894  1.00  0.00     0.032 A 
HETATM   12  C21 UNL     1      13.410  23.135  34.103  1.00  0.00     0.029 A 
BRANCH  11  13
HETATM   13  C15 UNL     1      12.680  25.360  34.884  1.00  0.00     0.251 C 
HETATM   14  O1  UNL     1      12.634  26.605  34.672  1.00  0.00    -0.268 OA
HETATM   15  N3  UNL     1      12.116  24.806  36.038  1.00  0.00    -0.352 N 
ATOM     16  H3  UNL     1      12.156  23.801  36.203  1.00  0.00     0.163 HD
BRANCH  15  17
HETATM   17  C16 UNL     1      11.469  25.693  37.005  1.00  0.00     0.169 C 
BRANCH  17  18
HETATM   18  C17 UNL     1      10.191  26.224  36.404  1.00  0.00     0.000 A 
HETATM   19  C18 UNL     1       9.778  27.528  36.348  1.00  0.00     0.017 A 
HETATM   20  C19 UNL     1       8.601  27.777  35.764  1.00  0.00     0.008 A 
HETATM   21  C20 UNL     1       7.904  26.707  35.270  1.00  0.00     0.050 A 
HETATM   22  S1  UNL     1       8.918  25.387  35.638  1.00  0.00    -0.105 SA
ENDBRANCH  17  18
ENDBRANCH  15  17
ENDBRANCH  11  13
ENDBRANCH   4   7
BRANCH   1  23
HETATM   23  C5  UNL     1      14.290  16.668  34.115  1.00  0.00    -0.026 A 
HETATM   24  C4  UNL     1      13.134  15.935  34.282  1.00  0.00     0.013 A 
HETATM   25  C3  UNL     1      13.149  14.586  34.524  1.00  0.00     0.015 A 
HETATM   26  C2  UNL     1      14.339  13.872  34.616  1.00  0.00     0.004 A 
HETATM   27  C25 UNL     1      15.503  14.591  34.450  1.00  0.00     0.015 A 
HETATM   28  C24 UNL     1      15.474  15.966  34.203  1.00  0.00     0.013 A 
BRANCH  26  29
HETATM   29  C1  UNL     1      14.321  12.449  34.873  1.00  0.00     0.120 C 
HETATM   30  N1  UNL     1      14.023  11.988  36.015  1.00  0.00    -0.387 N 
ATOM     31  H12 UNL     1      14.010  10.985  36.196  1.00  0.00     0.157 HD
ATOM     32  H11 UNL     1      13.790  12.636  36.768  1.00  0.00     0.157 HD
HETATM   33  N2  UNL     1      14.645  11.549  33.824  1.00  0.00    -0.082 NA
ENDBRANCH  26  29
ENDBRANCH   1  23
TORSDOF 6
ENDMDL
MODEL 5
REMARK VINA RESULT: -11.584322772      1.016      1.567
REMARK  6 active torsions:
REMARK  status: ('A' for Active; 'I' for Inactive)
REMARK    1  A    between atoms: C1_4  and  C2_6 
REMARK    2  A    between atoms: C5_9  and  C6_10 
REMARK    3  A    between atoms: C9_13  and  C10_14 
REMARK    4  A    between atoms: C14_18  and  C15_19 
REMARK       I    between atoms: C15_19  and  N3_21 
REMARK    5  A    between atoms: N3_21  and  C16_23 
REMARK    6  A    between atoms: C16_23  and  C17_24 
ROOT
HETATM    1  C6  UNL     1      14.027  18.342  33.941  1.00  0.00    -0.026 A 
HETATM    2  C7  UNL     1      13.140  19.107  34.666  1.00  0.00     0.013 A 
HETATM    3  C8  UNL     1      13.028  20.484  34.449  1.00  0.00     0.013 A 
HETATM    4  C9  UNL     1      13.813  21.090  33.497  1.00  0.00    -0.026 A 
HETATM    5  C22 UNL     1      14.694  20.332  32.776  1.00  0.00     0.013 A 
HETATM    6  C23 UNL     1      14.802  18.973  32.993  1.00  0.00     0.013 A 
ENDROOT
BRANCH   4   7
HETATM    7  C10 UNL     1      13.706  22.542  33.264  1.00  0.00    -0.025 A 
HETATM    8  C11 UNL     1      14.538  23.098  32.334  1.00  0.00     0.012 A 
HETATM    9  C12 UNL     1      14.445  24.455  32.117  1.00  0.00     0.002 A 
HETATM   10  C13 UNL     1      13.544  25.233  32.811  1.00  0.00     0.017 A 
HETATM   11  C14 UNL     1      12.701  24.686  33.749  1.00  0.00     0.032 A 
HETATM   12  C21 UNL     1      12.804  23.304  33.962  1.00  0.00     0.029 A 
BRANCH  11  13
HETATM   13  C15 UNL     1      11.736  25.460  34.516  1.00  0.00     0.251 C 
HETATM   14  O1  UNL     1      11.840  26.720  34.504  1.00  0.00    -0.268 OA
HETATM   15  N3  UNL     1      10.724  24.829  35.244  1.00  0.00    -0.352 N 
ATOM     16  H3  UNL     1      10.646  23.812  35.249  1.00  0.00     0.163 HD
BRANCH  15  17
HETATM   17  C16 UNL     1       9.778  25.651  36.000  1.00  0.00     0.169 C 
BRANCH  17  18
HETATM   18  C17 UNL     1       8.436  25.610  35.311  1.00  0.00     0.000 A 
HETATM   19  C18 UNL     1       7.272  25.069  35.791  1.00  0.00     0.017 A 
HETATM   20  C19 UNL     1       6.191  25.143  35.008  1.00  0.00     0.008 A 
HETATM   21  C20 UNL     1       6.335  25.754  33.791  1.00  0.00     0.050 A 
HETATM   22  S1  UNL     1       7.978  26.205  33.781  1.00  0.00    -0.105 SA
ENDBRANCH  17  18
ENDBRANCH  15  17
ENDBRANCH  11  13
ENDBRANCH   4   7
BRANCH   1  23
HETATM   23  C5  UNL     1      14.173  16.907  34.144  1.00  0.00    -0.026 A 
HETATM   24  C4  UNL     1      13.075  16.081  34.251  1.00  0.00     0.013 A 
HETATM   25  C3  UNL     1      13.188  14.729  34.443  1.00  0.00     0.015 A 
HETATM   26  C2  UNL     1      14.428  14.106  34.542  1.00  0.00     0.004 A 
HETATM   27  C25 UNL     1      15.536  14.917  34.437  1.00  0.00     0.015 A 
HETATM   28  C24 UNL     1      15.406  16.295  34.241  1.00  0.00     0.013 A 
BRANCH  26  29
HETATM   29  C1  UNL     1      14.514  12.676  34.745  1.00  0.00     0.120 C 
HETATM   30  N1  UNL     1      14.379  12.164  35.897  1.00  0.00    -0.387 N 
ATOM     31  H12 UNL     1      14.440  11.156  36.039  1.00  0.00     0.157 HD
ATOM     32  H11 UNL     1      14.205  12.773  36.696  1.00  0.00     0.157 HD
HETATM   33  N2  UNL     1      14.757  11.829  33.633  1.00  0.00    -0.082 NA
ENDBRANCH  26  29
ENDBRANCH   1  23
TORSDOF 6
ENDMDL
