MODEL 1
REMARK VINA RESULT: -6.620517428      0.000      0.000
REMARK  5 active torsions:
REMARK  status: ('A' for Active; 'I' for Inactive)
REMARK       I    between atoms: C2_2  and  N1_4 
REMARK    1  A    between atoms: N1_4  and  C3_6 
REMARK    2  A    between atoms: N4_11  and  C4_12 
REMARK    3  A    between atoms: C4_12  and  O2_13 
REMARK    4  A    between atoms: O2_13  and  C5_14 
REMARK       I    between atoms: N6_18  and  C7_20 
REMARK    5  A    between atoms: C8_25  and  N9_26 
REMARK       I    between atoms: N9_26  and  C9_28 
ROOT
HETATM    1  C3  UNL     1      63.792  60.837  28.718  1.00  0.00     0.155 A 
HETATM    2  N2  UNL     1      62.796  60.489  27.878  1.00  0.00    -0.269 N 
ATOM      3  H2  UNL     1      62.652  60.997  27.007  1.00  0.00     0.190 HD
HETATM    4  N3  UNL     1      62.024  59.499  28.197  1.00  0.00    -0.235 N 
ATOM      5  H3  UNL     1      61.275  59.246  27.553  1.00  0.00     0.208 HD
HETATM    6  N4  UNL     1      62.151  58.797  29.309  1.00  0.00    -0.235 N 
HETATM    7  C6  UNL     1      63.133  59.078  30.220  1.00  0.00     0.159 A 
HETATM    8  N6  UNL     1      63.183  58.377  31.236  1.00  0.00    -0.314 N 
ATOM      9  H6  UNL     1      62.450  57.668  31.234  1.00  0.00     0.170 HD
HETATM   10  C7  UNL     1      63.957  58.292  32.372  1.00  0.00     0.187 C 
HETATM   11  N7  UNL     1      63.978  59.093  33.361  1.00  0.00    -0.373 N 
ATOM     12  H71 UNL     1      64.552  59.030  34.202  1.00  0.00     0.158 HD
ATOM     13  H72 UNL     1      63.354  59.898  33.301  1.00  0.00     0.158 HD
HETATM   14  N8  UNL     1      64.845  57.148  32.459  1.00  0.00    -0.064 NA
HETATM   15  C8  UNL     1      63.967  60.118  29.915  1.00  0.00     0.127 A 
ENDROOT
BRANCH   6  16
HETATM   16  C4  UNL     1      61.237  57.724  29.553  1.00  0.00     0.332 C 
BRANCH  16  17
HETATM   17  O2  UNL     1      60.130  57.723  28.676  1.00  0.00    -0.285 OA
BRANCH  17  18
HETATM   18  C5  UNL     1      60.092  56.720  27.714  1.00  0.00     0.374 C 
HETATM   19  N5  UNL     1      59.035  55.768  27.650  1.00  0.00    -0.032 NA
HETATM   20  O3  UNL     1      61.016  56.614  26.840  1.00  0.00    -0.242 OA
ENDBRANCH  17  18
ENDBRANCH  16  17
ENDBRANCH   6  16
BRANCH  15  21
HETATM   21  N9  UNL     1      65.032  60.551  30.733  1.00  0.00    -0.321 N 
HETATM   22  C9  UNL     1      64.831  61.457  31.834  1.00  0.00     0.218 C 
HETATM   23  C10 UNL     1      65.932  61.918  32.697  1.00  0.00     0.117 C 
HETATM   24  O4  UNL     1      63.657  61.852  32.040  1.00  0.00    -0.274 OA
ATOM     25  H9  UNL     1      65.974  60.211  30.540  1.00  0.00     0.169 HD
ENDBRANCH  15  21
BRANCH   1  26
HETATM   26  N1  UNL     1      64.648  61.915  28.393  1.00  0.00    -0.310 N 
HETATM   27  C2  UNL     1      65.040  62.146  27.061  1.00  0.00     0.219 C 
HETATM   28  C1  UNL     1      65.944  63.283  26.713  1.00  0.00     0.117 C 
HETATM   29  O1  UNL     1      64.632  61.391  26.116  1.00  0.00    -0.274 OA
ATOM     30  H1  UNL     1      64.986  62.532  29.132  1.00  0.00     0.170 HD
ENDBRANCH   1  26
TORSDOF 5
ENDMDL
MODEL 2
REMARK VINA RESULT: -6.467996013      2.576      5.284
REMARK  5 active torsions:
REMARK  status: ('A' for Active; 'I' for Inactive)
REMARK       I    between atoms: C2_2  and  N1_4 
REMARK    1  A    between atoms: N1_4  and  C3_6 
REMARK    2  A    between atoms: N4_11  and  C4_12 
REMARK    3  A    between atoms: C4_12  and  O2_13 
REMARK    4  A    between atoms: O2_13  and  C5_14 
REMARK       I    between atoms: N6_18  and  C7_20 
REMARK    5  A    between atoms: C8_25  and  N9_26 
REMARK       I    between atoms: N9_26  and  C9_28 
ROOT
HETATM    1  C3  UNL     1      63.819  61.530  31.102  1.00  0.00     0.155 A 
HETATM    2  N2  UNL     1      64.110  61.188  32.374  1.00  0.00    -0.269 N 
ATOM      3  H2  UNL     1      64.326  61.905  33.066  1.00  0.00     0.190 HD
HETATM    4  N3  UNL     1      64.111  59.935  32.702  1.00  0.00    -0.235 N 
ATOM      5  H3  UNL     1      64.332  59.691  33.667  1.00  0.00     0.208 HD
HETATM    6  N4  UNL     1      63.842  58.956  31.858  1.00  0.00    -0.235 N 
HETATM    7  C6  UNL     1      63.537  59.207  30.548  1.00  0.00     0.159 A 
HETATM    8  N6  UNL     1      63.301  58.236  29.822  1.00  0.00    -0.314 N 
ATOM      9  H6  UNL     1      63.376  57.360  30.340  1.00  0.00     0.170 HD
HETATM   10  C7  UNL     1      62.966  58.011  28.505  1.00  0.00     0.187 C 
HETATM   11  N7  UNL     1      63.710  58.138  27.481  1.00  0.00    -0.373 N 
ATOM     12  H71 UNL     1      63.462  57.972  26.506  1.00  0.00     0.158 HD
ATOM     13  H72 UNL     1      64.666  58.451  27.656  1.00  0.00     0.158 HD
HETATM   14  N8  UNL     1      61.608  57.566  28.256  1.00  0.00    -0.064 NA
HETATM   15  C8  UNL     1      63.526  60.521  30.167  1.00  0.00     0.127 A 
ENDROOT
BRANCH   6  16
HETATM   16  C4  UNL     1      63.875  57.608  32.337  1.00  0.00     0.332 C 
BRANCH  16  17
HETATM   17  O2  UNL     1      63.529  57.492  33.701  1.00  0.00    -0.285 OA
BRANCH  17  18
HETATM   18  C5  UNL     1      64.574  57.514  34.618  1.00  0.00     0.374 C 
HETATM   19  N5  UNL     1      65.094  58.729  35.149  1.00  0.00    -0.032 NA
HETATM   20  O3  UNL     1      65.114  56.431  35.023  1.00  0.00    -0.242 OA
ENDBRANCH  17  18
ENDBRANCH  16  17
ENDBRANCH   6  16
BRANCH  15  21
HETATM   21  N9  UNL     1      63.235  60.968  28.861  1.00  0.00    -0.321 N 
HETATM   22  C9  UNL     1      64.266  61.183  27.880  1.00  0.00     0.218 C 
HETATM   23  C10 UNL     1      63.978  61.650  26.512  1.00  0.00     0.117 C 
HETATM   24  O4  UNL     1      65.448  60.954  28.234  1.00  0.00    -0.274 OA
ATOM     25  H9  UNL     1      62.264  61.145  28.604  1.00  0.00     0.169 HD
ENDBRANCH  15  21
BRANCH   1  26
HETATM   26  N1  UNL     1      63.812  62.892  30.719  1.00  0.00    -0.310 N 
HETATM   27  C2  UNL     1      64.260  63.891  31.604  1.00  0.00     0.219 C 
HETATM   28  C1  UNL     1      64.254  65.330  31.204  1.00  0.00     0.117 C 
HETATM   29  O1  UNL     1      64.684  63.592  32.770  1.00  0.00    -0.274 OA
ATOM     30  H1  UNL     1      63.478  63.153  29.791  1.00  0.00     0.170 HD
ENDBRANCH   1  26
TORSDOF 5
ENDMDL
MODEL 3
REMARK VINA RESULT: -6.252143043      2.661      6.940
REMARK  5 active torsions:
REMARK  status: ('A' for Active; 'I' for Inactive)
REMARK       I    between atoms: C2_2  and  N1_4 
REMARK    1  A    between atoms: N1_4  and  C3_6 
REMARK    2  A    between atoms: N4_11  and  C4_12 
REMARK    3  A    between atoms: C4_12  and  O2_13 
REMARK    4  A    between atoms: O2_13  and  C5_14 
REMARK       I    between atoms: N6_18  and  C7_20 
REMARK    5  A    between atoms: C8_25  and  N9_26 
REMARK       I    between atoms: N9_26  and  C9_28 
ROOT
HETATM    1  C3  UNL     1      64.699  59.812  31.919  1.00  0.00     0.155 A 
HETATM    2  N2  UNL     1      64.557  60.761  32.867  1.00  0.00    -0.269 N 
ATOM      3  H2  UNL     1      64.667  60.529  33.853  1.00  0.00     0.190 HD
HETATM    4  N3  UNL     1      64.277  61.973  32.504  1.00  0.00    -0.235 N 
ATOM      5  H3  UNL     1      64.173  62.681  33.231  1.00  0.00     0.208 HD
HETATM    6  N4  UNL     1      64.120  62.345  31.247  1.00  0.00    -0.235 N 
HETATM    7  C6  UNL     1      64.245  61.451  30.218  1.00  0.00     0.159 A 
HETATM    8  N6  UNL     1      64.079  61.876  29.071  1.00  0.00    -0.314 N 
ATOM      9  H6  UNL     1      63.865  62.874  29.073  1.00  0.00     0.170 HD
HETATM   10  C7  UNL     1      64.103  61.374  27.789  1.00  0.00     0.187 C 
HETATM   11  N7  UNL     1      63.251  60.605  27.238  1.00  0.00    -0.373 N 
ATOM     12  H71 UNL     1      63.270  60.232  26.289  1.00  0.00     0.158 HD
ATOM     13  H72 UNL     1      62.462  60.321  27.819  1.00  0.00     0.158 HD
HETATM   14  N8  UNL     1      65.226  61.777  26.963  1.00  0.00    -0.064 NA
HETATM   15  C8  UNL     1      64.540  60.161  30.566  1.00  0.00     0.127 A 
ENDROOT
BRANCH   6  16
HETATM   16  C4  UNL     1      63.813  63.714  30.968  1.00  0.00     0.332 C 
BRANCH  16  17
HETATM   17  O2  UNL     1      63.417  64.441  32.112  1.00  0.00    -0.285 OA
BRANCH  17  18
HETATM   18  C5  UNL     1      64.231  65.501  32.495  1.00  0.00     0.374 C 
HETATM   19  N5  UNL     1      63.770  66.546  33.345  1.00  0.00    -0.032 NA
HETATM   20  O3  UNL     1      65.441  65.577  32.093  1.00  0.00    -0.242 OA
ENDBRANCH  17  18
ENDBRANCH  16  17
ENDBRANCH   6  16
BRANCH  15  21
HETATM   21  N9  UNL     1      64.705  59.106  29.644  1.00  0.00    -0.321 N 
HETATM   22  C9  UNL     1      63.597  58.306  29.191  1.00  0.00     0.218 C 
HETATM   23  C10 UNL     1      63.752  57.202  28.228  1.00  0.00     0.117 C 
HETATM   24  O4  UNL     1      62.464  58.587  29.654  1.00  0.00    -0.274 OA
ATOM     25  H9  UNL     1      65.638  58.904  29.286  1.00  0.00     0.169 HD
ENDBRANCH  15  21
BRANCH   1  26
HETATM   26  N1  UNL     1      65.003  58.482  32.290  1.00  0.00    -0.310 N 
HETATM   27  C2  UNL     1      64.312  57.851  33.343  1.00  0.00     0.219 C 
HETATM   28  C1  UNL     1      64.631  56.447  33.738  1.00  0.00     0.117 C 
HETATM   29  O1  UNL     1      63.395  58.465  33.985  1.00  0.00    -0.274 OA
ATOM     30  H1  UNL     1      65.732  57.972  31.789  1.00  0.00     0.170 HD
ENDBRANCH   1  26
TORSDOF 5
ENDMDL
MODEL 4
REMARK VINA RESULT: -5.979839745      2.304      3.157
REMARK  5 active torsions:
REMARK  status: ('A' for Active; 'I' for Inactive)
REMARK       I    between atoms: C2_2  and  N1_4 
REMARK    1  A    between atoms: N1_4  and  C3_6 
REMARK    2  A    between atoms: N4_11  and  C4_12 
REMARK    3  A    between atoms: C4_12  and  O2_13 
REMARK    4  A    between atoms: O2_13  and  C5_14 
REMARK       I    between atoms: N6_18  and  C7_20 
REMARK    5  A    between atoms: C8_25  and  N9_26 
REMARK       I    between atoms: N9_26  and  C9_28 
ROOT
HETATM    1  C3  UNL     1      64.255  62.093  31.252  1.00  0.00     0.155 A 
HETATM    2  N2  UNL     1      63.705  62.348  30.047  1.00  0.00    -0.269 N 
ATOM      3  H2  UNL     1      63.523  63.307  29.754  1.00  0.00     0.190 HD
HETATM    4  N3  UNL     1      63.412  61.354  29.269  1.00  0.00    -0.235 N 
ATOM      5  H3  UNL     1      62.997  61.562  28.361  1.00  0.00     0.208 HD
HETATM    6  N4  UNL     1      63.620  60.089  29.584  1.00  0.00    -0.235 N 
HETATM    7  C6  UNL     1      64.173  59.735  30.785  1.00  0.00     0.159 A 
HETATM    8  N6  UNL     1      64.331  58.530  31.005  1.00  0.00    -0.314 N 
ATOM      9  H6  UNL     1      64.009  57.964  30.220  1.00  0.00     0.170 HD
HETATM   10  C7  UNL     1      64.823  57.741  32.021  1.00  0.00     0.187 C 
HETATM   11  N7  UNL     1      64.290  57.508  33.153  1.00  0.00    -0.373 N 
ATOM     12  H71 UNL     1      64.654  56.924  33.905  1.00  0.00     0.158 HD
ATOM     13  H72 UNL     1      63.397  57.968  33.332  1.00  0.00     0.158 HD
HETATM   14  N8  UNL     1      66.093  57.086  31.767  1.00  0.00    -0.064 NA
HETATM   15  C8  UNL     1      64.496  60.760  31.632  1.00  0.00     0.127 A 
ENDROOT
BRANCH   6  16
HETATM   16  C4  UNL     1      63.254  59.077  28.641  1.00  0.00     0.332 C 
BRANCH  16  17
HETATM   17  O2  UNL     1      61.871  59.050  28.359  1.00  0.00    -0.285 OA
BRANCH  17  18
HETATM   18  C5  UNL     1      61.114  58.087  29.015  1.00  0.00     0.374 C 
HETATM   19  N5  UNL     1      60.279  57.169  28.316  1.00  0.00    -0.032 NA
HETATM   20  O3  UNL     1      61.140  57.988  30.288  1.00  0.00    -0.242 OA
ENDBRANCH  17  18
ENDBRANCH  16  17
ENDBRANCH   6  16
BRANCH  15  21
HETATM   21  N9  UNL     1      65.071  60.586  32.908  1.00  0.00    -0.321 N 
HETATM   22  C9  UNL     1      64.285  60.230  34.059  1.00  0.00     0.218 C 
HETATM   23  C10 UNL     1      64.871  60.045  35.398  1.00  0.00     0.117 C 
HETATM   24  O4  UNL     1      63.051  60.078  33.883  1.00  0.00    -0.274 OA
ATOM     25  H9  UNL     1      66.076  60.716  33.018  1.00  0.00     0.169 HD
ENDBRANCH  15  21
BRANCH   1  26
HETATM   26  N1  UNL     1      64.584  63.160  32.120  1.00  0.00    -0.310 N 
HETATM   27  C2  UNL     1      64.103  64.461  31.876  1.00  0.00     0.219 C 
HETATM   28  C1  UNL     1      64.449  65.590  32.790  1.00  0.00     0.117 C 
HETATM   29  O1  UNL     1      63.360  64.706  30.868  1.00  0.00    -0.274 OA
ATOM     30  H1  UNL     1      65.176  62.985  32.932  1.00  0.00     0.170 HD
ENDBRANCH   1  26
TORSDOF 5
ENDMDL
MODEL 5
REMARK VINA RESULT: -5.340385691      2.637      3.317
REMARK  5 active torsions:
REMARK  status: ('A' for Active; 'I' for Inactive)
REMARK       I    between atoms: C2_2  and  N1_4 
REMARK    1  A    between atoms: N1_4  and  C3_6 
REMARK    2  A    between atoms: N4_11  and  C4_12 
REMARK    3  A    between atoms: C4_12  and  O2_13 
REMARK    4  A    between atoms: O2_13  and  C5_14 
REMARK       I    between atoms: N6_18  and  C7_20 
REMARK    5  A    between atoms: C8_25  and  N9_26 
REMARK       I    between atoms: N9_26  and  C9_28 
ROOT
HETATM    1  C3  UNL     1      64.211  62.060  31.310  1.00  0.00     0.155 A 
HETATM    2  N2  UNL     1      63.617  62.306  30.124  1.00  0.00    -0.269 N 
ATOM      3  H2  UNL     1      63.469  63.264  29.809  1.00  0.00     0.190 HD
HETATM    4  N3  UNL     1      63.238  61.306  29.394  1.00  0.00    -0.235 N 
ATOM      5  H3  UNL     1      62.790  61.507  28.499  1.00  0.00     0.208 HD
HETATM    6  N4  UNL     1      63.397  60.042  29.740  1.00  0.00    -0.235 N 
HETATM    7  C6  UNL     1      63.989  59.696  30.924  1.00  0.00     0.159 A 
HETATM    8  N6  UNL     1      64.097  58.492  31.176  1.00  0.00    -0.314 N 
ATOM      9  H6  UNL     1      63.710  57.920  30.426  1.00  0.00     0.170 HD
HETATM   10  C7  UNL     1      64.598  57.709  32.193  1.00  0.00     0.187 C 
HETATM   11  N7  UNL     1      64.109  57.539  33.356  1.00  0.00    -0.373 N 
ATOM     12  H71 UNL     1      64.480  56.960  34.109  1.00  0.00     0.158 HD
ATOM     13  H72 UNL     1      63.250  58.049  33.561  1.00  0.00     0.158 HD
HETATM   14  N8  UNL     1      65.820  56.983  31.902  1.00  0.00    -0.064 NA
HETATM   15  C8  UNL     1      64.403  60.728  31.721  1.00  0.00     0.127 A 
ENDROOT
BRANCH   6  16
HETATM   16  C4  UNL     1      62.936  59.022  28.848  1.00  0.00     0.332 C 
BRANCH  16  17
HETATM   17  O2  UNL     1      63.979  58.228  28.322  1.00  0.00    -0.285 OA
BRANCH  17  18
HETATM   18  C5  UNL     1      63.612  57.193  27.470  1.00  0.00     0.374 C 
HETATM   19  N5  UNL     1      62.342  57.151  26.826  1.00  0.00    -0.032 NA
HETATM   20  O3  UNL     1      64.411  56.227  27.229  1.00  0.00    -0.242 OA
ENDBRANCH  17  18
ENDBRANCH  16  17
ENDBRANCH   6  16
BRANCH  15  21
HETATM   21  N9  UNL     1      65.030  60.564  32.974  1.00  0.00    -0.321 N 
HETATM   22  C9  UNL     1      64.289  60.232  34.163  1.00  0.00     0.218 C 
HETATM   23  C10 UNL     1      64.929  60.057  35.478  1.00  0.00     0.117 C 
HETATM   24  O4  UNL     1      63.047  60.093  34.040  1.00  0.00    -0.274 OA
ATOM     25  H9  UNL     1      66.040  60.683  33.040  1.00  0.00     0.169 HD
ENDBRANCH  15  21
BRANCH   1  26
HETATM   26  N1  UNL     1      64.634  63.134  32.126  1.00  0.00    -0.310 N 
HETATM   27  C2  UNL     1      64.141  64.436  31.915  1.00  0.00     0.219 C 
HETATM   28  C1  UNL     1      64.586  65.574  32.775  1.00  0.00     0.117 C 
HETATM   29  O1  UNL     1      63.302  64.676  30.985  1.00  0.00    -0.274 OA
ATOM     30  H1  UNL     1      65.304  62.964  32.877  1.00  0.00     0.170 HD
ENDBRANCH   1  26
TORSDOF 5
ENDMDL
