MODEL 1
REMARK VINA RESULT: -7.580992909      0.000      0.000
REMARK  8 active torsions:
REMARK  status: ('A' for Active; 'I' for Inactive)
REMARK    1  A    between atoms: C2_2  and  C3_3 
REMARK    2  A    between atoms: C3_3  and  N1_5 
REMARK    3  A    between atoms: C3_3  and  C5_9 
REMARK       I    between atoms: C5_9  and  N2_11 
REMARK    4  A    between atoms: N2_11  and  C6_13 
REMARK    5  A    between atoms: C7_15  and  S2_16 
REMARK    6  A    between atoms: S2_16  and  N3_19 
REMARK    7  A    between atoms: N3_19  and  N4_21 
REMARK    8  A    between atoms: C8_28  and  N7_29 
ROOT
HETATM    1  C6  UNL     1      63.401  59.327  28.385  1.00  0.00     0.124 A 
HETATM    2  S1  UNL     1      63.621  58.555  29.889  1.00  0.00    -0.036 SA
HETATM    3  C7  UNL     1      64.210  59.609  31.090  1.00  0.00     0.209 A 
HETATM    4  N5  UNL     1      64.401  60.862  30.657  1.00  0.00    -0.281 N 
ATOM      5  H5  UNL     1      64.753  61.530  31.342  1.00  0.00     0.188 HD
HETATM    6  N6  UNL     1      64.185  61.322  29.454  1.00  0.00    -0.282 N 
ATOM      7  H6  UNL     1      64.392  62.311  29.319  1.00  0.00     0.188 HD
HETATM    8  C8  UNL     1      63.738  60.685  28.390  1.00  0.00     0.148 A 
ENDROOT
BRANCH   1   9
HETATM    9  N2  UNL     1      62.971  58.786  27.301  1.00  0.00    -0.316 N 
HETATM   10  C5  UNL     1      62.244  57.595  27.226  1.00  0.00     0.258 C 
HETATM   11  O1  UNL     1      62.902  56.514  27.093  1.00  0.00    -0.270 OA
ATOM     12  H2  UNL     1      63.177  59.265  26.425  1.00  0.00     0.169 HD
BRANCH  10  13
HETATM   13  C3  UNL     1      60.777  57.471  27.287  1.00  0.00     0.199 C 
HETATM   14  C4  UNL     1      60.364  57.176  28.712  1.00  0.00     0.056 C 
BRANCH  13  15
HETATM   15  C2  UNL     1      60.251  56.379  26.385  1.00  0.00     0.044 C 
HETATM   16  C1  UNL     1      59.029  55.704  26.917  1.00  0.00     0.008 C 
ENDBRANCH  13  15
BRANCH  13  17
HETATM   17  N1  UNL     1      60.127  58.703  26.887  1.00  0.00    -0.062 N 
ATOM     18  H13 UNL     1      59.672  58.638  25.977  1.00  0.00     0.275 HD
ATOM     19  H12 UNL     1      59.293  58.912  27.437  1.00  0.00     0.275 HD
ATOM     20  H11 UNL     1      60.831  59.441  26.931  1.00  0.00     0.275 HD
ENDBRANCH  13  17
ENDBRANCH  10  13
ENDBRANCH   1   9
BRANCH   8  21
HETATM   21  N7  UNL     1      63.588  61.312  27.278  1.00  0.00    -0.382 N 
ATOM     22  H72 UNL     1      63.512  60.793  26.404  1.00  0.00     0.157 HD
ATOM     23  H71 UNL     1      63.554  62.330  27.335  1.00  0.00     0.157 HD
ENDBRANCH   8  21
BRANCH   3  24
HETATM   24  S2  UNL     1      64.542  59.123  32.740  1.00  0.00     0.299 S 
HETATM   25  O2  UNL     1      63.368  59.406  33.633  1.00  0.00    -0.197 OA
HETATM   26  O3  UNL     1      65.688  59.949  33.227  1.00  0.00    -0.197 OA
BRANCH  24  27
HETATM   27  N3  UNL     1      65.007  57.463  32.826  1.00  0.00    -0.228 N 
ATOM     28  H3  UNL     1      65.558  56.957  32.133  1.00  0.00     0.199 HD
BRANCH  27  29
HETATM   29  N4  UNL     1      64.493  56.938  34.015  1.00  0.00    -0.336 N 
ATOM     30  H42 UNL     1      63.859  57.424  34.649  1.00  0.00     0.177 HD
ATOM     31  H41 UNL     1      64.866  55.995  34.124  1.00  0.00     0.177 HD
ENDBRANCH  27  29
ENDBRANCH  24  27
ENDBRANCH   3  24
TORSDOF 8
ENDMDL
MODEL 2
REMARK VINA RESULT: -7.229070779      1.190      1.399
REMARK  8 active torsions:
REMARK  status: ('A' for Active; 'I' for Inactive)
REMARK    1  A    between atoms: C2_2  and  C3_3 
REMARK    2  A    between atoms: C3_3  and  N1_5 
REMARK    3  A    between atoms: C3_3  and  C5_9 
REMARK       I    between atoms: C5_9  and  N2_11 
REMARK    4  A    between atoms: N2_11  and  C6_13 
REMARK    5  A    between atoms: C7_15  and  S2_16 
REMARK    6  A    between atoms: S2_16  and  N3_19 
REMARK    7  A    between atoms: N3_19  and  N4_21 
REMARK    8  A    between atoms: C8_28  and  N7_29 
ROOT
HETATM    1  C6  UNL     1      63.331  59.294  28.037  1.00  0.00     0.124 A 
HETATM    2  S1  UNL     1      63.627  58.505  29.519  1.00  0.00    -0.036 SA
HETATM    3  C7  UNL     1      64.366  59.519  30.669  1.00  0.00     0.209 A 
HETATM    4  N5  UNL     1      64.591  60.762  30.223  1.00  0.00    -0.281 N 
ATOM      5  H5  UNL     1      65.033  61.407  30.878  1.00  0.00     0.188 HD
HETATM    6  N6  UNL     1      64.306  61.238  29.041  1.00  0.00    -0.282 N 
ATOM      7  H6  UNL     1      64.556  62.215  28.890  1.00  0.00     0.188 HD
HETATM    8  C8  UNL     1      63.741  60.632  28.015  1.00  0.00     0.148 A 
ENDROOT
BRANCH   1   9
HETATM    9  N2  UNL     1      62.787  58.782  26.991  1.00  0.00    -0.316 N 
HETATM   10  C5  UNL     1      62.058  57.591  26.960  1.00  0.00     0.258 C 
HETATM   11  O1  UNL     1      62.699  56.517  26.726  1.00  0.00    -0.270 OA
ATOM     12  H2  UNL     1      62.897  59.287  26.112  1.00  0.00     0.169 HD
BRANCH  10  13
HETATM   13  C3  UNL     1      60.606  57.459  27.175  1.00  0.00     0.199 C 
HETATM   14  C4  UNL     1      60.346  57.181  28.639  1.00  0.00     0.056 C 
BRANCH  13  15
HETATM   15  C2  UNL     1      59.997  56.351  26.347  1.00  0.00     0.044 C 
HETATM   16  C1  UNL     1      58.966  55.558  27.081  1.00  0.00     0.008 C 
ENDBRANCH  13  15
BRANCH  13  17
HETATM   17  N1  UNL     1      59.909  58.681  26.829  1.00  0.00    -0.062 N 
ATOM     18  H13 UNL     1      59.053  58.818  27.366  1.00  0.00     0.275 HD
ATOM     19  H12 UNL     1      60.396  59.521  27.142  1.00  0.00     0.275 HD
ATOM     20  H11 UNL     1      59.751  58.662  25.821  1.00  0.00     0.275 HD
ENDBRANCH  13  17
ENDBRANCH  10  13
ENDBRANCH   1   9
BRANCH   8  21
HETATM   21  N7  UNL     1      63.539  61.271  26.919  1.00  0.00    -0.382 N 
ATOM     22  H72 UNL     1      64.010  60.980  26.062  1.00  0.00     0.157 HD
ATOM     23  H71 UNL     1      62.897  62.061  26.970  1.00  0.00     0.157 HD
ENDBRANCH   8  21
BRANCH   3  24
HETATM   24  S2  UNL     1      64.800  59.008  32.288  1.00  0.00     0.299 S 
HETATM   25  O2  UNL     1      65.909  57.995  32.256  1.00  0.00    -0.197 OA
HETATM   26  O3  UNL     1      63.601  58.344  32.883  1.00  0.00    -0.197 OA
BRANCH  24  27
HETATM   27  N3  UNL     1      65.212  60.355  33.284  1.00  0.00    -0.228 N 
ATOM     28  H3  UNL     1      65.856  61.108  33.041  1.00  0.00     0.199 HD
BRANCH  27  29
HETATM   29  N4  UNL     1      64.506  60.229  34.483  1.00  0.00    -0.336 N 
ATOM     30  H42 UNL     1      63.785  59.534  34.674  1.00  0.00     0.177 HD
ATOM     31  H41 UNL     1      64.843  60.952  35.119  1.00  0.00     0.177 HD
ENDBRANCH  27  29
ENDBRANCH  24  27
ENDBRANCH   3  24
TORSDOF 8
ENDMDL
MODEL 3
REMARK VINA RESULT: -7.222751551      1.680      1.852
REMARK  8 active torsions:
REMARK  status: ('A' for Active; 'I' for Inactive)
REMARK    1  A    between atoms: C2_2  and  C3_3 
REMARK    2  A    between atoms: C3_3  and  N1_5 
REMARK    3  A    between atoms: C3_3  and  C5_9 
REMARK       I    between atoms: C5_9  and  N2_11 
REMARK    4  A    between atoms: N2_11  and  C6_13 
REMARK    5  A    between atoms: C7_15  and  S2_16 
REMARK    6  A    between atoms: S2_16  and  N3_19 
REMARK    7  A    between atoms: N3_19  and  N4_21 
REMARK    8  A    between atoms: C8_28  and  N7_29 
ROOT
HETATM    1  C6  UNL     1      63.362  59.576  27.875  1.00  0.00     0.124 A 
HETATM    2  S1  UNL     1      63.443  59.218  29.539  1.00  0.00    -0.036 SA
HETATM    3  C7  UNL     1      64.133  60.481  30.451  1.00  0.00     0.209 A 
HETATM    4  N5  UNL     1      64.493  61.539  29.714  1.00  0.00    -0.281 N 
ATOM      5  H5  UNL     1      64.911  62.322  30.216  1.00  0.00     0.188 HD
HETATM    6  N6  UNL     1      64.368  61.679  28.421  1.00  0.00    -0.282 N 
ATOM      7  H6  UNL     1      64.703  62.564  28.041  1.00  0.00     0.188 HD
HETATM    8  C8  UNL     1      63.869  60.835  27.540  1.00  0.00     0.148 A 
ENDROOT
BRANCH   1   9
HETATM    9  N2  UNL     1      62.893  58.815  26.950  1.00  0.00    -0.316 N 
HETATM   10  C5  UNL     1      62.200  57.621  27.160  1.00  0.00     0.258 C 
HETATM   11  O1  UNL     1      62.882  56.548  27.212  1.00  0.00    -0.270 OA
ATOM     12  H2  UNL     1      63.039  59.109  25.984  1.00  0.00     0.169 HD
BRANCH  10  13
HETATM   13  C3  UNL     1      60.741  57.484  27.327  1.00  0.00     0.199 C 
HETATM   14  C4  UNL     1      60.431  57.256  28.790  1.00  0.00     0.056 C 
BRANCH  13  15
HETATM   15  C2  UNL     1      60.171  56.342  26.519  1.00  0.00     0.044 C 
HETATM   16  C1  UNL     1      59.006  55.674  27.172  1.00  0.00     0.008 C 
ENDBRANCH  13  15
BRANCH  13  17
HETATM   17  N1  UNL     1      60.049  58.687  26.914  1.00  0.00    -0.062 N 
ATOM     18  H13 UNL     1      60.612  59.531  27.024  1.00  0.00     0.275 HD
ATOM     19  H12 UNL     1      59.920  58.747  25.903  1.00  0.00     0.275 HD
ATOM     20  H11 UNL     1      59.171  58.722  27.432  1.00  0.00     0.275 HD
ENDBRANCH  13  17
ENDBRANCH  10  13
ENDBRANCH   1   9
BRANCH   8  21
HETATM   21  N7  UNL     1      63.829  61.152  26.295  1.00  0.00    -0.382 N 
ATOM     22  H72 UNL     1      63.127  61.810  25.956  1.00  0.00     0.157 HD
ATOM     23  H71 UNL     1      64.526  60.711  25.695  1.00  0.00     0.157 HD
ENDBRANCH   8  21
BRANCH   3  24
HETATM   24  S2  UNL     1      64.358  60.423  32.187  1.00  0.00     0.299 S 
HETATM   25  O2  UNL     1      65.193  59.239  32.585  1.00  0.00    -0.197 OA
HETATM   26  O3  UNL     1      63.009  60.250  32.807  1.00  0.00    -0.197 OA
BRANCH  24  27
HETATM   27  N3  UNL     1      65.034  61.895  32.784  1.00  0.00    -0.228 N 
ATOM     28  H3  UNL     1      64.514  62.726  33.063  1.00  0.00     0.199 HD
BRANCH  27  29
HETATM   29  N4  UNL     1      66.423  61.742  32.815  1.00  0.00    -0.336 N 
ATOM     30  H42 UNL     1      66.918  60.854  32.897  1.00  0.00     0.177 HD
ATOM     31  H41 UNL     1      66.838  62.671  32.742  1.00  0.00     0.177 HD
ENDBRANCH  27  29
ENDBRANCH  24  27
ENDBRANCH   3  24
TORSDOF 8
ENDMDL
MODEL 4
REMARK VINA RESULT: -6.942576061      2.463      6.158
REMARK  8 active torsions:
REMARK  status: ('A' for Active; 'I' for Inactive)
REMARK    1  A    between atoms: C2_2  and  C3_3 
REMARK    2  A    between atoms: C3_3  and  N1_5 
REMARK    3  A    between atoms: C3_3  and  C5_9 
REMARK       I    between atoms: C5_9  and  N2_11 
REMARK    4  A    between atoms: N2_11  and  C6_13 
REMARK    5  A    between atoms: C7_15  and  S2_16 
REMARK    6  A    between atoms: S2_16  and  N3_19 
REMARK    7  A    between atoms: N3_19  and  N4_21 
REMARK    8  A    between atoms: C8_28  and  N7_29 
ROOT
HETATM    1  C6  UNL     1      63.428  60.565  29.420  1.00  0.00     0.124 A 
HETATM    2  S1  UNL     1      62.315  59.284  29.264  1.00  0.00    -0.036 SA
HETATM    3  C7  UNL     1      62.106  58.785  27.649  1.00  0.00     0.209 A 
HETATM    4  N5  UNL     1      62.847  59.477  26.774  1.00  0.00    -0.281 N 
ATOM      5  H5  UNL     1      62.756  59.214  25.793  1.00  0.00     0.188 HD
HETATM    6  N6  UNL     1      63.674  60.453  27.040  1.00  0.00    -0.282 N 
ATOM      7  H6  UNL     1      64.150  60.856  26.233  1.00  0.00     0.188 HD
HETATM    8  C8  UNL     1      63.979  60.988  28.205  1.00  0.00     0.148 A 
ENDROOT
BRANCH   1   9
HETATM    9  N2  UNL     1      63.782  61.144  30.512  1.00  0.00    -0.316 N 
HETATM   10  C5  UNL     1      63.805  60.544  31.773  1.00  0.00     0.258 C 
HETATM   11  O1  UNL     1      62.752  60.627  32.481  1.00  0.00    -0.270 OA
ATOM     12  H2  UNL     1      64.071  62.120  30.452  1.00  0.00     0.169 HD
BRANCH  10  13
HETATM   13  C3  UNL     1      64.944  59.820  32.367  1.00  0.00     0.199 C 
HETATM   14  C4  UNL     1      65.393  58.737  31.411  1.00  0.00     0.056 C 
BRANCH  13  15
HETATM   15  C2  UNL     1      64.599  59.191  33.697  1.00  0.00     0.044 C 
HETATM   16  C1  UNL     1      64.408  57.711  33.624  1.00  0.00     0.008 C 
ENDBRANCH  13  15
BRANCH  13  17
HETATM   17  N1  UNL     1      66.070  60.702  32.591  1.00  0.00    -0.062 N 
ATOM     18  H13 UNL     1      66.186  60.961  33.571  1.00  0.00     0.275 HD
ATOM     19  H12 UNL     1      66.971  60.238  32.471  1.00  0.00     0.275 HD
ATOM     20  H11 UNL     1      65.949  61.507  31.976  1.00  0.00     0.275 HD
ENDBRANCH  13  17
ENDBRANCH  10  13
ENDBRANCH   1   9
BRANCH   8  21
HETATM   21  N7  UNL     1      64.825  61.953  28.271  1.00  0.00    -0.382 N 
ATOM     22  H72 UNL     1      65.255  62.198  29.163  1.00  0.00     0.157 HD
ATOM     23  H71 UNL     1      65.026  62.436  27.396  1.00  0.00     0.157 HD
ENDBRANCH   8  21
BRANCH   3  24
HETATM   24  S2  UNL     1      61.031  57.493  27.156  1.00  0.00     0.299 S 
HETATM   25  O2  UNL     1      61.748  56.491  26.296  1.00  0.00    -0.197 OA
HETATM   26  O3  UNL     1      59.949  58.104  26.326  1.00  0.00    -0.197 OA
BRANCH  24  27
HETATM   27  N3  UNL     1      60.293  56.733  28.518  1.00  0.00    -0.228 N 
ATOM     28  H3  UNL     1      60.429  56.988  29.496  1.00  0.00     0.199 HD
BRANCH  27  29
HETATM   29  N4  UNL     1      59.474  55.706  28.041  1.00  0.00    -0.336 N 
ATOM     30  H42 UNL     1      58.463  55.764  27.920  1.00  0.00     0.177 HD
ATOM     31  H41 UNL     1      60.070  54.903  27.840  1.00  0.00     0.177 HD
ENDBRANCH  27  29
ENDBRANCH  24  27
ENDBRANCH   3  24
TORSDOF 8
ENDMDL
MODEL 5
REMARK VINA RESULT: -6.756270651      2.497      6.101
REMARK  8 active torsions:
REMARK  status: ('A' for Active; 'I' for Inactive)
REMARK    1  A    between atoms: C2_2  and  C3_3 
REMARK    2  A    between atoms: C3_3  and  N1_5 
REMARK    3  A    between atoms: C3_3  and  C5_9 
REMARK       I    between atoms: C5_9  and  N2_11 
REMARK    4  A    between atoms: N2_11  and  C6_13 
REMARK    5  A    between atoms: C7_15  and  S2_16 
REMARK    6  A    between atoms: S2_16  and  N3_19 
REMARK    7  A    between atoms: N3_19  and  N4_21 
REMARK    8  A    between atoms: C8_28  and  N7_29 
ROOT
HETATM    1  C6  UNL     1      63.356  60.519  29.428  1.00  0.00     0.124 A 
HETATM    2  S1  UNL     1      62.224  59.248  29.337  1.00  0.00    -0.036 SA
HETATM    3  C7  UNL     1      61.951  58.723  27.740  1.00  0.00     0.209 A 
HETATM    4  N5  UNL     1      62.667  59.390  26.827  1.00  0.00    -0.281 N 
ATOM      5  H5  UNL     1      62.538  59.111  25.855  1.00  0.00     0.188 HD
HETATM    6  N6  UNL     1      63.514  60.360  27.044  1.00  0.00    -0.282 N 
ATOM      7  H6  UNL     1      63.965  60.744  26.213  1.00  0.00     0.188 HD
HETATM    8  C8  UNL     1      63.867  60.913  28.187  1.00  0.00     0.148 A 
ENDROOT
BRANCH   1   9
HETATM    9  N2  UNL     1      63.757  61.113  30.496  1.00  0.00    -0.316 N 
HETATM   10  C5  UNL     1      63.805  60.542  31.770  1.00  0.00     0.258 C 
HETATM   11  O1  UNL     1      62.775  60.663  32.507  1.00  0.00    -0.270 OA
ATOM     12  H2  UNL     1      64.065  62.081  30.405  1.00  0.00     0.169 HD
BRANCH  10  13
HETATM   13  C3  UNL     1      64.945  59.804  32.345  1.00  0.00     0.199 C 
HETATM   14  C4  UNL     1      65.376  58.726  31.375  1.00  0.00     0.056 C 
BRANCH  13  15
HETATM   15  C2  UNL     1      64.610  59.166  33.673  1.00  0.00     0.044 C 
HETATM   16  C1  UNL     1      64.391  57.691  33.587  1.00  0.00     0.008 C 
ENDBRANCH  13  15
BRANCH  13  17
HETATM   17  N1  UNL     1      66.079  60.677  32.565  1.00  0.00    -0.062 N 
ATOM     18  H13 UNL     1      65.842  61.515  33.095  1.00  0.00     0.275 HD
ATOM     19  H12 UNL     1      66.757  60.293  33.224  1.00  0.00     0.275 HD
ATOM     20  H11 UNL     1      66.483  60.882  31.650  1.00  0.00     0.275 HD
ENDBRANCH  13  17
ENDBRANCH  10  13
ENDBRANCH   1   9
BRANCH   8  21
HETATM   21  N7  UNL     1      64.726  61.869  28.204  1.00  0.00    -0.382 N 
ATOM     22  H72 UNL     1      64.465  62.798  27.873  1.00  0.00     0.157 HD
ATOM     23  H71 UNL     1      65.653  61.636  28.558  1.00  0.00     0.157 HD
ENDBRANCH   8  21
BRANCH   3  24
HETATM   24  S2  UNL     1      60.844  57.435  27.310  1.00  0.00     0.299 S 
HETATM   25  O2  UNL     1      59.614  57.979  26.641  1.00  0.00    -0.197 OA
HETATM   26  O3  UNL     1      60.411  56.776  28.580  1.00  0.00    -0.197 OA
BRANCH  24  27
HETATM   27  N3  UNL     1      61.615  56.244  26.328  1.00  0.00    -0.228 N 
ATOM     28  H3  UNL     1      61.149  55.513  25.792  1.00  0.00     0.199 HD
BRANCH  27  29
HETATM   29  N4  UNL     1      62.994  56.462  26.400  1.00  0.00    -0.336 N 
ATOM     30  H42 UNL     1      63.447  57.375  26.417  1.00  0.00     0.177 HD
ATOM     31  H41 UNL     1      63.451  55.550  26.430  1.00  0.00     0.177 HD
ENDBRANCH  27  29
ENDBRANCH  24  27
ENDBRANCH   3  24
TORSDOF 8
ENDMDL
