MODEL 1
REMARK VINA RESULT: -6.840258361      0.000      0.000
REMARK  9 active torsions:
REMARK  status: ('A' for Active; 'I' for Inactive)
REMARK    1  A    between atoms: N1_1  and  C1_4 
REMARK    2  A    between atoms: C5_12  and  C6_13 
REMARK    3  A    between atoms: C6_13  and  O1_14 
REMARK    4  A    between atoms: C6_13  and  C7_16 
REMARK    5  A    between atoms: C7_16  and  O2_17 
REMARK    6  A    between atoms: C7_16  and  C8_19 
REMARK    7  A    between atoms: C8_19  and  O3_20 
REMARK    8  A    between atoms: C8_19  and  O4_22 
REMARK    9  A    between atoms: C9_26  and  N5_27 
ROOT
HETATM    1  C1  UNL     1      23.019 -47.334  10.042  1.00  0.00     0.692 A 
HETATM    2  N2  UNL     1      22.887 -46.002  10.092  1.00  0.00    -0.171 N 
ATOM      3  H2  UNL     1      22.540 -45.470  10.889  1.00  0.00     0.186 HD
HETATM    4  C2  UNL     1      23.288 -45.480   8.919  1.00  0.00     0.175 A 
HETATM    5  C3  UNL     1      23.602 -44.623   7.901  1.00  0.00     0.126 A 
HETATM    6  N3  UNL     1      23.561 -43.308   7.719  1.00  0.00    -0.358 N 
ATOM      7  H3  UNL     1      23.247 -42.809   8.552  1.00  0.00     0.165 HD
HETATM    8  C4  UNL     1      23.838 -42.465   6.680  1.00  0.00     0.117 C 
HETATM    9  C5  UNL     1      24.301 -42.629   5.399  1.00  0.00     0.073 C 
HETATM   10  N4  UNL     1      24.688 -43.710   4.712  1.00  0.00    -0.191 N 
ATOM     11  H4  UNL     1      24.942 -43.431   3.764  1.00  0.00     0.184 HD
HETATM   12  C9  UNL     1      24.856 -45.024   4.839  1.00  0.00     0.682 C 
HETATM   13  N7  UNL     1      24.502 -45.887   5.810  1.00  0.00    -0.172 N 
ATOM     14  H7  UNL     1      24.629 -46.862   5.541  1.00  0.00     0.186 HD
HETATM   15  C14 UNL     1      24.013 -45.746   7.070  1.00  0.00     0.175 A 
HETATM   16  N8  UNL     1      23.680 -46.510   8.115  1.00  0.00    -0.203 N 
HETATM   17  N9  UNL     1      23.507 -47.625   8.818  1.00  0.00    -0.122 N 
ATOM     18  H9  UNL     1      23.714 -48.565   8.481  1.00  0.00     0.206 HD
ENDROOT
BRANCH   9  19
HETATM   19  C6  UNL     1      24.387 -41.390   4.641  1.00  0.00     0.203 C 
BRANCH  19  20
HETATM   20  O1  UNL     1      24.387 -40.297   5.522  1.00  0.00    -0.387 OA
ATOM     21  H1  UNL     1      23.494 -40.070   5.749  1.00  0.00     0.210 HD
ENDBRANCH  19  20
BRANCH  19  22
HETATM   22  C7  UNL     1      23.269 -41.164   3.663  1.00  0.00     0.207 C 
BRANCH  22  23
HETATM   23  O2  UNL     1      22.507 -42.312   3.450  1.00  0.00    -0.388 OA
ATOM     24  H2  UNL     1      21.896 -42.479   4.159  1.00  0.00     0.210 HD
ENDBRANCH  22  23
BRANCH  22  25
HETATM   25  C8  UNL     1      23.738 -40.549   2.366  1.00  0.00     0.285 C 
BRANCH  25  26
HETATM   26  O3  UNL     1      24.672 -39.538   2.558  1.00  0.00    -0.369 OA
ATOM     27  H3  UNL     1      24.421 -38.723   2.141  1.00  0.00     0.212 HD
ENDBRANCH  25  26
BRANCH  25  28
HETATM   28  O4  UNL     1      24.387 -41.558   1.642  1.00  0.00    -0.369 OA
ATOM     29  H4  UNL     1      23.716 -42.053   1.186  1.00  0.00     0.212 HD
ENDBRANCH  25  28
ENDBRANCH  22  25
ENDBRANCH  19  22
ENDBRANCH   9  19
BRANCH  12  30
HETATM   30  N5  UNL     1      25.537 -45.660   3.753  1.00  0.00    -0.214 N 
HETATM   31  C10 UNL     1      25.983 -47.014   3.781  1.00  0.00     0.168 C 
HETATM   32  C11 UNL     1      27.453 -47.139   3.399  1.00  0.00     0.252 C 
HETATM   33  N6  UNL     1      27.908 -45.933   2.715  1.00  0.00    -0.072 N 
HETATM   34  C12 UNL     1      26.884 -45.530   1.769  1.00  0.00     0.252 C 
ATOM     35  H62 UNL     1      28.159 -45.186   3.363  1.00  0.00     0.277 HD
ATOM     36  H61 UNL     1      28.822 -46.052   2.278  1.00  0.00     0.277 HD
HETATM   37  C13 UNL     1      25.775 -44.862   2.565  1.00  0.00     0.168 C 
ENDBRANCH  12  30
BRANCH   1  38
HETATM   38  N1  UNL     1      22.731 -48.183  10.989  1.00  0.00    -0.233 N 
ATOM     39  H12 UNL     1      21.861 -48.234  11.518  1.00  0.00     0.174 HD
ATOM     40  H11 UNL     1      23.330 -48.927  11.346  1.00  0.00     0.174 HD
ENDBRANCH   1  38
TORSDOF 9
ENDMDL
MODEL 2
REMARK VINA RESULT: -6.719726223      2.600      4.681
REMARK  9 active torsions:
REMARK  status: ('A' for Active; 'I' for Inactive)
REMARK    1  A    between atoms: N1_1  and  C1_4 
REMARK    2  A    between atoms: C5_12  and  C6_13 
REMARK    3  A    between atoms: C6_13  and  O1_14 
REMARK    4  A    between atoms: C6_13  and  C7_16 
REMARK    5  A    between atoms: C7_16  and  O2_17 
REMARK    6  A    between atoms: C7_16  and  C8_19 
REMARK    7  A    between atoms: C8_19  and  O3_20 
REMARK    8  A    between atoms: C8_19  and  O4_22 
REMARK    9  A    between atoms: C9_26  and  N5_27 
ROOT
HETATM    1  C1  UNL     1      22.637 -47.371   9.990  1.00  0.00     0.692 A 
HETATM    2  N2  UNL     1      22.915 -48.179   8.959  1.00  0.00    -0.171 N 
ATOM      3  H2  UNL     1      22.825 -49.194   8.961  1.00  0.00     0.186 HD
HETATM    4  C2  UNL     1      23.331 -47.433   7.920  1.00  0.00     0.175 A 
HETATM    5  C3  UNL     1      23.781 -47.018   6.698  1.00  0.00     0.126 A 
HETATM    6  N3  UNL     1      24.115 -47.610   5.557  1.00  0.00    -0.358 N 
ATOM      7  H3  UNL     1      23.972 -48.619   5.585  1.00  0.00     0.165 HD
HETATM    8  C4  UNL     1      24.604 -47.187   4.353  1.00  0.00     0.117 C 
HETATM    9  C5  UNL     1      24.929 -45.967   3.816  1.00  0.00     0.073 C 
HETATM   10  N4  UNL     1      24.842 -44.720   4.295  1.00  0.00    -0.191 N 
ATOM     11  H4  UNL     1      25.214 -44.069   3.603  1.00  0.00     0.184 HD
HETATM   12  C9  UNL     1      24.437 -44.035   5.362  1.00  0.00     0.682 C 
HETATM   13  N7  UNL     1      24.046 -44.431   6.589  1.00  0.00    -0.172 N 
ATOM     14  H7  UNL     1      23.949 -43.654   7.244  1.00  0.00     0.186 HD
HETATM   15  C14 UNL     1      23.751 -45.633   7.147  1.00  0.00     0.175 A 
HETATM   16  N8  UNL     1      23.314 -46.127   8.311  1.00  0.00    -0.203 N 
HETATM   17  N9  UNL     1      22.890 -46.113   9.570  1.00  0.00    -0.122 N 
ATOM     18  H9  UNL     1      22.772 -45.274  10.138  1.00  0.00     0.206 HD
ENDROOT
BRANCH   9  19
HETATM   19  C6  UNL     1      25.473 -46.041   2.469  1.00  0.00     0.203 C 
BRANCH  19  20
HETATM   20  O1  UNL     1      24.833 -47.069   1.758  1.00  0.00    -0.387 OA
ATOM     21  H1  UNL     1      24.587 -46.755   0.896  1.00  0.00     0.210 HD
ENDBRANCH  19  20
BRANCH  19  22
HETATM   22  C7  UNL     1      26.950 -46.312   2.394  1.00  0.00     0.207 C 
BRANCH  22  23
HETATM   23  O2  UNL     1      27.654 -45.722   3.443  1.00  0.00    -0.388 OA
ATOM     24  H2  UNL     1      27.444 -46.111   4.285  1.00  0.00     0.210 HD
ENDBRANCH  22  23
BRANCH  22  25
HETATM   25  C8  UNL     1      27.543 -45.964   1.050  1.00  0.00     0.285 C 
BRANCH  25  26
HETATM   26  O3  UNL     1      26.689 -45.194   0.270  1.00  0.00    -0.369 OA
ATOM     27  H3  UNL     1      27.154 -44.579  -0.286  1.00  0.00     0.212 HD
ENDBRANCH  25  26
BRANCH  25  28
HETATM   28  O4  UNL     1      28.678 -45.177   1.291  1.00  0.00    -0.369 OA
ATOM     29  H4  UNL     1      28.837 -44.667   0.505  1.00  0.00     0.212 HD
ENDBRANCH  25  28
ENDBRANCH  22  25
ENDBRANCH  19  22
ENDBRANCH   9  19
BRANCH  12  30
HETATM   30  N5  UNL     1      24.405 -42.614   5.199  1.00  0.00    -0.214 N 
HETATM   31  C10 UNL     1      23.726 -41.730   6.089  1.00  0.00     0.168 C 
HETATM   32  C11 UNL     1      22.788 -40.785   5.348  1.00  0.00     0.252 C 
HETATM   33  N6  UNL     1      23.124 -40.738   3.930  1.00  0.00    -0.072 N 
HETATM   34  C12 UNL     1      24.568 -40.666   3.804  1.00  0.00     0.252 C 
ATOM     35  H62 UNL     1      22.723 -41.516   3.406  1.00  0.00     0.277 HD
ATOM     36  H61 UNL     1      22.649 -39.980   3.440  1.00  0.00     0.277 HD
HETATM   37  C13 UNL     1      25.110 -42.064   4.058  1.00  0.00     0.168 C 
ENDBRANCH  12  30
BRANCH   1  38
HETATM   38  N1  UNL     1      22.208 -47.727  11.169  1.00  0.00    -0.233 N 
ATOM     39  H12 UNL     1      22.594 -47.445  12.069  1.00  0.00     0.174 HD
ATOM     40  H11 UNL     1      21.420 -48.343  11.373  1.00  0.00     0.174 HD
ENDBRANCH   1  38
TORSDOF 9
ENDMDL
MODEL 3
REMARK VINA RESULT: -6.667572527      0.684      1.005
REMARK  9 active torsions:
REMARK  status: ('A' for Active; 'I' for Inactive)
REMARK    1  A    between atoms: N1_1  and  C1_4 
REMARK    2  A    between atoms: C5_12  and  C6_13 
REMARK    3  A    between atoms: C6_13  and  O1_14 
REMARK    4  A    between atoms: C6_13  and  C7_16 
REMARK    5  A    between atoms: C7_16  and  O2_17 
REMARK    6  A    between atoms: C7_16  and  C8_19 
REMARK    7  A    between atoms: C8_19  and  O3_20 
REMARK    8  A    between atoms: C8_19  and  O4_22 
REMARK    9  A    between atoms: C9_26  and  N5_27 
ROOT
HETATM    1  C1  UNL     1      22.973 -47.301   9.966  1.00  0.00     0.692 A 
HETATM    2  N2  UNL     1      22.839 -45.969  10.000  1.00  0.00    -0.171 N 
ATOM      3  H2  UNL     1      22.468 -45.430  10.782  1.00  0.00     0.186 HD
HETATM    4  C2  UNL     1      23.273 -45.458   8.834  1.00  0.00     0.175 A 
HETATM    5  C3  UNL     1      23.615 -44.610   7.818  1.00  0.00     0.126 A 
HETATM    6  N3  UNL     1      23.577 -43.297   7.623  1.00  0.00    -0.358 N 
ATOM      7  H3  UNL     1      23.240 -42.791   8.441  1.00  0.00     0.165 HD
HETATM    8  C4  UNL     1      23.884 -42.463   6.584  1.00  0.00     0.117 C 
HETATM    9  C5  UNL     1      24.384 -42.638   5.319  1.00  0.00     0.073 C 
HETATM   10  N4  UNL     1      24.792 -43.725   4.654  1.00  0.00    -0.191 N 
ATOM     11  H4  UNL     1      25.072 -43.455   3.711  1.00  0.00     0.184 HD
HETATM   12  C9  UNL     1      24.957 -45.038   4.797  1.00  0.00     0.682 C 
HETATM   13  N7  UNL     1      24.575 -45.892   5.766  1.00  0.00    -0.172 N 
ATOM     14  H7  UNL     1      24.711 -46.870   5.509  1.00  0.00     0.186 HD
HETATM   15  C14 UNL     1      24.050 -45.740   7.009  1.00  0.00     0.175 A 
HETATM   16  N8  UNL     1      23.688 -46.494   8.052  1.00  0.00    -0.203 N 
HETATM   17  N9  UNL     1      23.496 -47.603   8.760  1.00  0.00    -0.122 N 
ATOM     18  H9  UNL     1      23.714 -48.546   8.438  1.00  0.00     0.206 HD
ENDROOT
BRANCH   9  19
HETATM   19  C6  UNL     1      24.491 -41.406   4.552  1.00  0.00     0.203 C 
BRANCH  19  20
HETATM   20  O1  UNL     1      24.045 -40.326   5.330  1.00  0.00    -0.387 OA
ATOM     21  H1  UNL     1      24.652 -39.600   5.246  1.00  0.00     0.210 HD
ENDBRANCH  19  20
BRANCH  19  22
HETATM   22  C7  UNL     1      23.698 -41.382   3.275  1.00  0.00     0.207 C 
BRANCH  22  23
HETATM   23  O2  UNL     1      24.489 -41.627   2.152  1.00  0.00    -0.388 OA
ATOM     24  H2  UNL     1      24.246 -42.430   1.706  1.00  0.00     0.210 HD
ENDBRANCH  22  23
BRANCH  22  25
HETATM   25  C8  UNL     1      22.873 -40.127   3.120  1.00  0.00     0.285 C 
BRANCH  25  26
HETATM   26  O3  UNL     1      22.531 -39.869   1.798  1.00  0.00    -0.369 OA
ATOM     27  H3  UNL     1      23.260 -39.533   1.289  1.00  0.00     0.212 HD
ENDBRANCH  25  26
BRANCH  25  28
HETATM   28  O4  UNL     1      21.670 -40.337   3.808  1.00  0.00    -0.369 OA
ATOM     29  H4  UNL     1      20.963 -40.165   3.196  1.00  0.00     0.212 HD
ENDBRANCH  25  28
ENDBRANCH  22  25
ENDBRANCH  19  22
ENDBRANCH   9  19
BRANCH  12  30
HETATM   30  N5  UNL     1      25.669 -45.683   3.737  1.00  0.00    -0.214 N 
HETATM   31  C10 UNL     1      26.114 -47.037   3.789  1.00  0.00     0.168 C 
HETATM   32  C11 UNL     1      27.594 -47.165   3.453  1.00  0.00     0.252 C 
HETATM   33  N6  UNL     1      28.070 -45.966   2.773  1.00  0.00    -0.072 N 
HETATM   34  C12 UNL     1      27.076 -45.570   1.793  1.00  0.00     0.252 C 
ATOM     35  H62 UNL     1      28.303 -45.213   3.422  1.00  0.00     0.277 HD
ATOM     36  H61 UNL     1      28.996 -46.089   2.364  1.00  0.00     0.277 HD
HETATM   37  C13 UNL     1      25.943 -44.895   2.551  1.00  0.00     0.168 C 
ENDBRANCH  12  30
BRANCH   1  38
HETATM   38  N1  UNL     1      22.659 -48.142  10.912  1.00  0.00    -0.233 N 
ATOM     39  H12 UNL     1      21.846 -48.758  10.935  1.00  0.00     0.174 HD
ATOM     40  H11 UNL     1      23.175 -48.313  11.775  1.00  0.00     0.174 HD
ENDBRANCH   1  38
TORSDOF 9
ENDMDL
MODEL 4
REMARK VINA RESULT: -6.563273509      3.839      6.414
REMARK  9 active torsions:
REMARK  status: ('A' for Active; 'I' for Inactive)
REMARK    1  A    between atoms: N1_1  and  C1_4 
REMARK    2  A    between atoms: C5_12  and  C6_13 
REMARK    3  A    between atoms: C6_13  and  O1_14 
REMARK    4  A    between atoms: C6_13  and  C7_16 
REMARK    5  A    between atoms: C7_16  and  O2_17 
REMARK    6  A    between atoms: C7_16  and  C8_19 
REMARK    7  A    between atoms: C8_19  and  O3_20 
REMARK    8  A    between atoms: C8_19  and  O4_22 
REMARK    9  A    between atoms: C9_26  and  N5_27 
ROOT
HETATM    1  C1  UNL     1      23.627 -39.780   4.987  1.00  0.00     0.692 A 
HETATM    2  N2  UNL     1      23.095 -40.255   6.120  1.00  0.00    -0.171 N 
ATOM      3  H2  UNL     1      22.542 -39.717   6.786  1.00  0.00     0.186 HD
HETATM    4  C2  UNL     1      23.410 -41.557   6.238  1.00  0.00     0.175 A 
HETATM    5  C3  UNL     1      23.529 -42.845   6.679  1.00  0.00     0.126 A 
HETATM    6  N3  UNL     1      23.106 -43.531   7.735  1.00  0.00    -0.358 N 
ATOM      7  H3  UNL     1      22.522 -42.970   8.355  1.00  0.00     0.165 HD
HETATM    8  C4  UNL     1      23.267 -44.810   8.187  1.00  0.00     0.117 C 
HETATM    9  C5  UNL     1      23.914 -45.926   7.721  1.00  0.00     0.073 C 
HETATM   10  N4  UNL     1      24.609 -46.163   6.602  1.00  0.00    -0.191 N 
ATOM     11  H4  UNL     1      24.968 -47.118   6.627  1.00  0.00     0.184 HD
HETATM   12  C9  UNL     1      24.993 -45.584   5.467  1.00  0.00     0.682 C 
HETATM   13  N7  UNL     1      24.932 -44.307   5.044  1.00  0.00    -0.172 N 
ATOM     14  H7  UNL     1      25.459 -44.148   4.185  1.00  0.00     0.186 HD
HETATM   15  C14 UNL     1      24.325 -43.184   5.507  1.00  0.00     0.175 A 
HETATM   16  N8  UNL     1      24.158 -41.906   5.152  1.00  0.00    -0.203 N 
HETATM   17  N9  UNL     1      24.277 -40.811   4.407  1.00  0.00    -0.122 N 
ATOM     18  H9  UNL     1      24.785 -40.758   3.524  1.00  0.00     0.206 HD
ENDROOT
BRANCH   9  19
HETATM   19  C6  UNL     1      23.832 -47.072   8.614  1.00  0.00     0.203 C 
BRANCH  19  20
HETATM   20  O1  UNL     1      22.643 -47.777   8.368  1.00  0.00    -0.387 OA
ATOM     21  H1  UNL     1      22.636 -48.088   7.470  1.00  0.00     0.210 HD
ENDBRANCH  19  20
BRANCH  19  22
HETATM   22  C7  UNL     1      23.846 -46.738  10.080  1.00  0.00     0.207 C 
BRANCH  22  23
HETATM   23  O2  UNL     1      25.128 -46.788  10.625  1.00  0.00    -0.388 OA
ATOM     24  H2  UNL     1      25.501 -45.925  10.755  1.00  0.00     0.210 HD
ENDBRANCH  22  23
BRANCH  22  25
HETATM   25  C8  UNL     1      22.860 -47.558  10.878  1.00  0.00     0.285 C 
BRANCH  25  26
HETATM   26  O3  UNL     1      21.552 -47.107  10.741  1.00  0.00    -0.369 OA
ATOM     27  H3  UNL     1      21.497 -46.161  10.667  1.00  0.00     0.212 HD
ENDBRANCH  25  26
BRANCH  25  28
HETATM   28  O4  UNL     1      22.888 -48.859  10.357  1.00  0.00    -0.369 OA
ATOM     29  H4  UNL     1      23.254 -49.422  11.029  1.00  0.00     0.212 HD
ENDBRANCH  25  28
ENDBRANCH  22  25
ENDBRANCH  19  22
ENDBRANCH   9  19
BRANCH  12  30
HETATM   30  N5  UNL     1      25.584 -46.461   4.504  1.00  0.00    -0.214 N 
HETATM   31  C10 UNL     1      25.347 -47.867   4.462  1.00  0.00     0.168 C 
HETATM   32  C11 UNL     1      26.645 -48.664   4.433  1.00  0.00     0.252 C 
HETATM   33  N6  UNL     1      27.761 -47.810   4.043  1.00  0.00    -0.072 N 
HETATM   34  C12 UNL     1      27.333 -46.973   2.939  1.00  0.00     0.252 C 
ATOM     35  H62 UNL     1      28.133 -47.269   4.824  1.00  0.00     0.277 HD
ATOM     36  H61 UNL     1      28.604 -48.342   3.828  1.00  0.00     0.277 HD
HETATM   37  C13 UNL     1      26.471 -45.865   3.524  1.00  0.00     0.168 C 
ENDBRANCH  12  30
BRANCH   1  38
HETATM   38  N1  UNL     1      23.537 -38.561   4.532  1.00  0.00    -0.233 N 
ATOM     39  H12 UNL     1      22.697 -37.983   4.501  1.00  0.00     0.174 HD
ATOM     40  H11 UNL     1      24.290 -37.998   4.136  1.00  0.00     0.174 HD
ENDBRANCH   1  38
TORSDOF 9
ENDMDL
MODEL 5
REMARK VINA RESULT: -6.465727166      3.356      7.200
REMARK  9 active torsions:
REMARK  status: ('A' for Active; 'I' for Inactive)
REMARK    1  A    between atoms: N1_1  and  C1_4 
REMARK    2  A    between atoms: C5_12  and  C6_13 
REMARK    3  A    between atoms: C6_13  and  O1_14 
REMARK    4  A    between atoms: C6_13  and  C7_16 
REMARK    5  A    between atoms: C7_16  and  O2_17 
REMARK    6  A    between atoms: C7_16  and  C8_19 
REMARK    7  A    between atoms: C8_19  and  O3_20 
REMARK    8  A    between atoms: C8_19  and  O4_22 
REMARK    9  A    between atoms: C9_26  and  N5_27 
ROOT
HETATM    1  C1  UNL     1      27.585 -45.966   1.206  1.00  0.00     0.692 A 
HETATM    2  N2  UNL     1      27.338 -46.838   2.192  1.00  0.00    -0.171 N 
ATOM      3  H2  UNL     1      27.675 -47.799   2.230  1.00  0.00     0.186 HD
HETATM    4  C2  UNL     1      26.574 -46.239   3.122  1.00  0.00     0.175 A 
HETATM    5  C3  UNL     1      25.827 -45.973   4.236  1.00  0.00     0.126 A 
HETATM    6  N3  UNL     1      25.453 -46.651   5.315  1.00  0.00    -0.358 N 
ATOM      7  H3  UNL     1      25.843 -47.594   5.336  1.00  0.00     0.165 HD
HETATM    8  C4  UNL     1      24.670 -46.387   6.402  1.00  0.00     0.117 C 
HETATM    9  C5  UNL     1      23.965 -45.296   6.844  1.00  0.00     0.073 C 
HETATM   10  N4  UNL     1      23.825 -44.057   6.357  1.00  0.00    -0.191 N 
ATOM     11  H4  UNL     1      23.187 -43.532   6.957  1.00  0.00     0.184 HD
HETATM   12  C9  UNL     1      24.230 -43.272   5.361  1.00  0.00     0.682 C 
HETATM   13  N7  UNL     1      24.917 -43.534   4.233  1.00  0.00    -0.172 N 
ATOM     14  H7  UNL     1      24.933 -42.745   3.587  1.00  0.00     0.186 HD
HETATM   15  C14 UNL     1      25.593 -44.614   3.765  1.00  0.00     0.175 A 
HETATM   16  N8  UNL     1      26.336 -44.962   2.709  1.00  0.00    -0.203 N 
HETATM   17  N9  UNL     1      26.960 -44.818   1.544  1.00  0.00    -0.122 N 
ATOM     18  H9  UNL     1      26.966 -43.965   0.986  1.00  0.00     0.206 HD
ENDROOT
BRANCH   9  19
HETATM   19  C6  UNL     1      23.226 -45.530   8.075  1.00  0.00     0.203 C 
BRANCH  19  20
HETATM   20  O1  UNL     1      23.317 -44.398   8.902  1.00  0.00    -0.387 OA
ATOM     21  H1  UNL     1      22.531 -43.873   8.812  1.00  0.00     0.210 HD
ENDBRANCH  19  20
BRANCH  19  22
HETATM   22  C7  UNL     1      23.699 -46.703   8.887  1.00  0.00     0.207 C 
BRANCH  22  23
HETATM   23  O2  UNL     1      22.848 -47.803   8.779  1.00  0.00    -0.388 OA
ATOM     24  H2  UNL     1      23.251 -48.605   9.092  1.00  0.00     0.210 HD
ENDBRANCH  22  23
BRANCH  22  25
HETATM   25  C8  UNL     1      23.980 -46.346  10.327  1.00  0.00     0.285 C 
BRANCH  25  26
HETATM   26  O3  UNL     1      22.873 -46.520  11.149  1.00  0.00    -0.369 OA
ATOM     27  H3  UNL     1      22.391 -47.315  10.951  1.00  0.00     0.212 HD
ENDBRANCH  25  26
BRANCH  25  28
HETATM   28  O4  UNL     1      24.961 -47.234  10.789  1.00  0.00    -0.369 OA
ATOM     29  H4  UNL     1      25.609 -47.319  10.099  1.00  0.00     0.212 HD
ENDBRANCH  25  28
ENDBRANCH  22  25
ENDBRANCH  19  22
ENDBRANCH   9  19
BRANCH  12  30
HETATM   30  N5  UNL     1      23.881 -41.891   5.493  1.00  0.00    -0.214 N 
HETATM   31  C10 UNL     1      23.210 -41.347   6.628  1.00  0.00     0.168 C 
HETATM   32  C11 UNL     1      21.981 -40.539   6.232  1.00  0.00     0.252 C 
HETATM   33  N6  UNL     1      22.037 -40.183   4.818  1.00  0.00    -0.072 N 
HETATM   34  C12 UNL     1      23.388 -39.757   4.506  1.00  0.00     0.252 C 
ATOM     35  H62 UNL     1      21.713 -40.936   4.211  1.00  0.00     0.277 HD
ATOM     36  H61 UNL     1      21.337 -39.487   4.562  1.00  0.00     0.277 HD
HETATM   37  C13 UNL     1      24.240 -41.012   4.397  1.00  0.00     0.168 C 
ENDBRANCH  12  30
BRANCH   1  38
HETATM   38  N1  UNL     1      28.291 -46.181   0.131  1.00  0.00    -0.233 N 
ATOM     39  H12 UNL     1      27.954 -46.169  -0.831  1.00  0.00     0.174 HD
ATOM     40  H11 UNL     1      29.287 -46.394   0.085  1.00  0.00     0.174 HD
ENDBRANCH   1  38
TORSDOF 9
ENDMDL
