MODEL 1
REMARK VINA RESULT: -7.215533102      0.000      0.000
REMARK  10 active torsions:
REMARK  status: ('A' for Active; 'I' for Inactive)
REMARK    1  A    between atoms: O1_2  and  C2_3 
REMARK    2  A    between atoms: C2_3  and  C3_5 
REMARK    3  A    between atoms: C6_8  and  N1_9 
REMARK    4  A    between atoms: N1_9  and  C7_11 
REMARK    5  A    between atoms: C7_11  and  O3_12 
REMARK    6  A    between atoms: C7_11  and  C8_14 
REMARK    7  A    between atoms: C9_15  and  O4_16 
REMARK    8  A    between atoms: C10_18  and  N2_19 
REMARK    9  A    between atoms: N4_24  and  C11_25 
REMARK   10  A    between atoms: C12_31  and  N7_32 
ROOT
HETATM    1  C8  UNL     1      23.375 -46.042   7.085  1.00  0.00     0.121 A 
HETATM    2  C9  UNL     1      22.953 -44.979   6.294  1.00  0.00     0.140 A 
HETATM    3  C10 UNL     1      23.055 -43.828   7.044  1.00  0.00     0.150 A 
HETATM    4  N3  UNL     1      23.520 -44.200   8.230  1.00  0.00    -0.275 N 
ATOM      5  H3  UNL     1      23.703 -43.563   9.004  1.00  0.00     0.189 HD
HETATM    6  N4  UNL     1      23.720 -45.537   8.274  1.00  0.00    -0.230 N 
ENDROOT
BRANCH   1   7
HETATM    7  C7  UNL     1      23.418 -47.464   6.620  1.00  0.00     0.275 C 
BRANCH   7   8
HETATM    8  N1  UNL     1      24.385 -47.761   5.705  1.00  0.00    -0.344 N 
ATOM      9  H1  UNL     1      24.775 -48.674   5.940  1.00  0.00     0.164 HD
BRANCH   8  10
HETATM   10  C6  UNL     1      24.970 -47.337   4.692  1.00  0.00     0.119 A 
HETATM   11  C5  UNL     1      26.226 -46.684   4.864  1.00  0.00     0.052 A 
HETATM   12  C4  UNL     1      26.962 -46.179   3.855  1.00  0.00     0.041 A 
HETATM   13  C3  UNL     1      26.498 -46.288   2.567  1.00  0.00     0.123 A 
HETATM   14  N9  UNL     1      25.319 -46.903   2.413  1.00  0.00    -0.292 N 
HETATM   15  N8  UNL     1      24.587 -47.402   3.407  1.00  0.00    -0.281 N 
ATOM     16  H9  UNL     1      24.954 -46.995   1.466  1.00  0.00     0.187 HD
HETATM   17  C13 UNL     1      23.350 -48.024   3.028  1.00  0.00     0.179 C 
BRANCH  13  18
HETATM   18  C2  UNL     1      27.257 -45.759   1.441  1.00  0.00     0.311 C 
HETATM   19  O2  UNL     1      28.512 -45.775   1.441  1.00  0.00    -0.258 OA
BRANCH  18  20
HETATM   20  O1  UNL     1      26.601 -45.227   0.346  1.00  0.00    -0.321 OA
HETATM   21  C1  UNL     1      26.647 -45.933  -0.886  1.00  0.00     0.213 C 
ENDBRANCH  18  20
ENDBRANCH  13  18
ENDBRANCH   8  10
ENDBRANCH   7   8
BRANCH   7  22
HETATM   22  O3  UNL     1      22.140 -47.810   6.092  1.00  0.00    -0.371 OA
ATOM     23  H3  UNL     1      21.692 -47.024   5.804  1.00  0.00     0.212 HD
ENDBRANCH   7  22
ENDBRANCH   1   7
BRANCH   2  24
HETATM   24  O4  UNL     1      22.508 -45.068   4.982  1.00  0.00    -0.355 OA
ATOM     25  H4  UNL     1      22.843 -44.571   4.246  1.00  0.00     0.218 HD
ENDBRANCH   2  24
BRANCH   6  26
HETATM   26  C11 UNL     1      24.212 -46.258   9.390  1.00  0.00     0.195 A 
HETATM   27  N5  UNL     1      25.465 -46.308   9.867  1.00  0.00    -0.220 N 
HETATM   28  O5  UNL     1      25.513 -47.094  10.908  1.00  0.00    -0.153 OA
ATOM     29  H5  UNL     1      26.262 -45.807   9.474  1.00  0.00     0.198 HD
HETATM   30  N6  UNL     1      24.341 -47.589  11.169  1.00  0.00    -0.222 N 
HETATM   31  C12 UNL     1      23.493 -47.079  10.225  1.00  0.00     0.169 A 
ATOM     32  H6  UNL     1      24.102 -48.229  11.926  1.00  0.00     0.198 HD
BRANCH  31  33
HETATM   33  N7  UNL     1      22.245 -47.376  10.197  1.00  0.00    -0.381 N 
ATOM     34  H72 UNL     1      21.809 -47.809   9.383  1.00  0.00     0.157 HD
ATOM     35  H71 UNL     1      21.532 -47.243  10.915  1.00  0.00     0.157 HD
ENDBRANCH  31  33
ENDBRANCH   6  26
BRANCH   3  36
HETATM   36  N2  UNL     1      22.747 -42.627   6.633  1.00  0.00    -0.382 N 
ATOM     37  H22 UNL     1      21.855 -42.139   6.715  1.00  0.00     0.157 HD
ATOM     38  H21 UNL     1      23.379 -41.985   6.155  1.00  0.00     0.157 HD
ENDBRANCH   3  36
TORSDOF 10
ENDMDL
MODEL 2
REMARK VINA RESULT: -6.971810093      2.492      7.115
REMARK  10 active torsions:
REMARK  status: ('A' for Active; 'I' for Inactive)
REMARK    1  A    between atoms: O1_2  and  C2_3 
REMARK    2  A    between atoms: C2_3  and  C3_5 
REMARK    3  A    between atoms: C6_8  and  N1_9 
REMARK    4  A    between atoms: N1_9  and  C7_11 
REMARK    5  A    between atoms: C7_11  and  O3_12 
REMARK    6  A    between atoms: C7_11  and  C8_14 
REMARK    7  A    between atoms: C9_15  and  O4_16 
REMARK    8  A    between atoms: C10_18  and  N2_19 
REMARK    9  A    between atoms: N4_24  and  C11_25 
REMARK   10  A    between atoms: C12_31  and  N7_32 
ROOT
HETATM    1  C8  UNL     1      25.094 -44.651   2.565  1.00  0.00     0.121 A 
HETATM    2  C9  UNL     1      24.429 -44.137   1.457  1.00  0.00     0.140 A 
HETATM    3  C10 UNL     1      24.393 -45.120   0.492  1.00  0.00     0.150 A 
HETATM    4  N3  UNL     1      25.011 -46.172   1.013  1.00  0.00    -0.275 N 
ATOM      5  H3  UNL     1      25.144 -47.061   0.532  1.00  0.00     0.189 HD
HETATM    6  N4  UNL     1      25.444 -45.907   2.268  1.00  0.00    -0.230 N 
ENDROOT
BRANCH   1   7
HETATM    7  C7  UNL     1      25.329 -43.884   3.828  1.00  0.00     0.275 C 
BRANCH   7   8
HETATM    8  N1  UNL     1      24.357 -43.992   4.779  1.00  0.00    -0.344 N 
ATOM      9  H1  UNL     1      23.504 -43.572   4.410  1.00  0.00     0.164 HD
BRANCH   8  10
HETATM   10  C6  UNL     1      24.120 -44.411   5.927  1.00  0.00     0.119 A 
HETATM   11  C5  UNL     1      24.155 -45.819   6.150  1.00  0.00     0.052 A 
HETATM   12  C4  UNL     1      23.919 -46.403   7.340  1.00  0.00     0.041 A 
HETATM   13  C3  UNL     1      23.624 -45.616   8.426  1.00  0.00     0.123 A 
HETATM   14  N9  UNL     1      23.593 -44.296   8.209  1.00  0.00    -0.292 N 
HETATM   15  N8  UNL     1      23.825 -43.713   7.035  1.00  0.00    -0.281 N 
ATOM     16  H9  UNL     1      23.376 -43.692   9.001  1.00  0.00     0.187 HD
HETATM   17  C13 UNL     1      23.743 -42.280   7.014  1.00  0.00     0.179 C 
BRANCH  13  18
HETATM   18  C2  UNL     1      23.361 -46.200   9.736  1.00  0.00     0.311 C 
HETATM   19  O2  UNL     1      22.221 -46.632  10.036  1.00  0.00    -0.258 OA
BRANCH  18  20
HETATM   20  O1  UNL     1      24.371 -46.287  10.676  1.00  0.00    -0.321 OA
HETATM   21  C1  UNL     1      24.734 -47.570  11.169  1.00  0.00     0.213 C 
ENDBRANCH  18  20
ENDBRANCH  13  18
ENDBRANCH   8  10
ENDBRANCH   7   8
BRANCH   7  22
HETATM   22  O3  UNL     1      25.523 -42.511   3.498  1.00  0.00    -0.371 OA
ATOM     23  H3  UNL     1      26.322 -42.415   2.994  1.00  0.00     0.212 HD
ENDBRANCH   7  22
ENDBRANCH   1   7
BRANCH   2  24
HETATM   24  O4  UNL     1      23.898 -42.859   1.347  1.00  0.00    -0.355 OA
ATOM     25  H4  UNL     1      22.982 -42.646   1.217  1.00  0.00     0.218 HD
ENDBRANCH   2  24
BRANCH   6  26
HETATM   26  C11 UNL     1      26.138 -46.814   3.106  1.00  0.00     0.195 A 
HETATM   27  N5  UNL     1      25.654 -47.865   3.784  1.00  0.00    -0.220 N 
HETATM   28  O5  UNL     1      26.615 -48.445   4.450  1.00  0.00    -0.153 OA
ATOM     29  H5  UNL     1      24.679 -48.166   3.780  1.00  0.00     0.198 HD
HETATM   30  N6  UNL     1      27.745 -47.835   4.258  1.00  0.00    -0.222 N 
HETATM   31  C12 UNL     1      27.478 -46.795   3.411  1.00  0.00     0.169 A 
ATOM     32  H6  UNL     1      28.649 -48.082   4.660  1.00  0.00     0.198 HD
BRANCH  31  33
HETATM   33  N7  UNL     1      28.390 -45.983   3.019  1.00  0.00    -0.381 N 
ATOM     34  H72 UNL     1      28.988 -45.481   3.677  1.00  0.00     0.157 HD
ATOM     35  H71 UNL     1      28.656 -45.716   2.071  1.00  0.00     0.157 HD
ENDBRANCH  31  33
ENDBRANCH   6  26
BRANCH   3  36
HETATM   36  N2  UNL     1      23.847 -45.002  -0.689  1.00  0.00    -0.382 N 
ATOM     37  H22 UNL     1      22.935 -44.612  -0.930  1.00  0.00     0.157 HD
ATOM     38  H21 UNL     1      24.272 -45.295  -1.569  1.00  0.00     0.157 HD
ENDBRANCH   3  36
TORSDOF 10
ENDMDL
MODEL 3
REMARK VINA RESULT: -6.882422204      2.040      3.720
REMARK  10 active torsions:
REMARK  status: ('A' for Active; 'I' for Inactive)
REMARK    1  A    between atoms: O1_2  and  C2_3 
REMARK    2  A    between atoms: C2_3  and  C3_5 
REMARK    3  A    between atoms: C6_8  and  N1_9 
REMARK    4  A    between atoms: N1_9  and  C7_11 
REMARK    5  A    between atoms: C7_11  and  O3_12 
REMARK    6  A    between atoms: C7_11  and  C8_14 
REMARK    7  A    between atoms: C9_15  and  O4_16 
REMARK    8  A    between atoms: C10_18  and  N2_19 
REMARK    9  A    between atoms: N4_24  and  C11_25 
REMARK   10  A    between atoms: C12_31  and  N7_32 
ROOT
HETATM    1  C8  UNL     1      23.457 -45.765   6.893  1.00  0.00     0.121 A 
HETATM    2  C9  UNL     1      23.530 -45.250   8.183  1.00  0.00     0.140 A 
HETATM    3  C10 UNL     1      23.444 -46.306   9.064  1.00  0.00     0.150 A 
HETATM    4  N3  UNL     1      23.327 -47.399   8.321  1.00  0.00    -0.275 N 
ATOM      5  H3  UNL     1      23.243 -48.345   8.693  1.00  0.00     0.189 HD
HETATM    6  N4  UNL     1      23.333 -47.092   7.003  1.00  0.00    -0.230 N 
ENDROOT
BRANCH   1   7
HETATM    7  C7  UNL     1      23.525 -44.928   5.654  1.00  0.00     0.275 C 
BRANCH   7   8
HETATM    8  N1  UNL     1      24.769 -44.747   5.126  1.00  0.00    -0.344 N 
ATOM      9  H1  UNL     1      25.276 -44.095   5.723  1.00  0.00     0.164 HD
BRANCH   8  10
HETATM   10  C6  UNL     1      25.518 -45.079   4.189  1.00  0.00     0.119 A 
HETATM   11  C5  UNL     1      26.210 -46.322   4.288  1.00  0.00     0.052 A 
HETATM   12  C4  UNL     1      27.048 -46.799   3.348  1.00  0.00     0.041 A 
HETATM   13  C3  UNL     1      27.268 -46.064   2.210  1.00  0.00     0.123 A 
HETATM   14  N9  UNL     1      26.615 -44.899   2.123  1.00  0.00    -0.292 N 
HETATM   15  N8  UNL     1      25.786 -44.422   3.049  1.00  0.00    -0.281 N 
ATOM     16  H9  UNL     1      26.762 -44.335   1.286  1.00  0.00     0.187 HD
HETATM   17  C13 UNL     1      25.185 -43.150   2.763  1.00  0.00     0.179 C 
BRANCH  13  18
HETATM   18  C2  UNL     1      28.165 -46.537   1.163  1.00  0.00     0.311 C 
HETATM   19  O2  UNL     1      29.120 -47.307   1.427  1.00  0.00    -0.258 OA
BRANCH  18  20
HETATM   20  O1  UNL     1      27.977 -46.141  -0.149  1.00  0.00    -0.321 OA
HETATM   21  C1  UNL     1      27.063 -46.871  -0.956  1.00  0.00     0.213 C 
ENDBRANCH  18  20
ENDBRANCH  13  18
ENDBRANCH   8  10
ENDBRANCH   7   8
BRANCH   7  22
HETATM   22  O3  UNL     1      22.934 -43.660   5.929  1.00  0.00    -0.371 OA
ATOM     23  H3  UNL     1      22.481 -43.694   6.763  1.00  0.00     0.212 HD
ENDBRANCH   7  22
ENDBRANCH   1   7
BRANCH   2  24
HETATM   24  O4  UNL     1      23.664 -43.910   8.517  1.00  0.00    -0.355 OA
ATOM     25  H4  UNL     1      23.047 -43.399   9.028  1.00  0.00     0.218 HD
ENDBRANCH   2  24
BRANCH   6  26
HETATM   26  C11 UNL     1      23.229 -48.024   5.942  1.00  0.00     0.195 A 
HETATM   27  N5  UNL     1      24.067 -49.020   5.618  1.00  0.00    -0.220 N 
HETATM   28  O5  UNL     1      23.622 -49.651   4.566  1.00  0.00    -0.153 OA
ATOM     29  H5  UNL     1      24.925 -49.251   6.120  1.00  0.00     0.198 HD
HETATM   30  N6  UNL     1      22.508 -49.129   4.149  1.00  0.00    -0.222 N 
HETATM   31  C12 UNL     1      22.230 -48.094   5.000  1.00  0.00     0.169 A 
ATOM     32  H6  UNL     1      21.953 -49.430   3.348  1.00  0.00     0.198 HD
BRANCH  31  33
HETATM   33  N7  UNL     1      21.187 -47.361   4.864  1.00  0.00    -0.381 N 
ATOM     34  H72 UNL     1      21.148 -46.403   5.214  1.00  0.00     0.157 HD
ATOM     35  H71 UNL     1      20.293 -47.582   4.425  1.00  0.00     0.157 HD
ENDBRANCH  31  33
ENDBRANCH   6  26
BRANCH   3  36
HETATM   36  N2  UNL     1      23.476 -46.209  10.367  1.00  0.00    -0.382 N 
ATOM     37  H22 UNL     1      23.384 -45.372  10.943  1.00  0.00     0.157 HD
ATOM     38  H21 UNL     1      23.603 -46.988  11.014  1.00  0.00     0.157 HD
ENDBRANCH   3  36
TORSDOF 10
ENDMDL
MODEL 4
REMARK VINA RESULT: -6.635151025      2.514      7.359
REMARK  10 active torsions:
REMARK  status: ('A' for Active; 'I' for Inactive)
REMARK    1  A    between atoms: O1_2  and  C2_3 
REMARK    2  A    between atoms: C2_3  and  C3_5 
REMARK    3  A    between atoms: C6_8  and  N1_9 
REMARK    4  A    between atoms: N1_9  and  C7_11 
REMARK    5  A    between atoms: C7_11  and  O3_12 
REMARK    6  A    between atoms: C7_11  and  C8_14 
REMARK    7  A    between atoms: C9_15  and  O4_16 
REMARK    8  A    between atoms: C10_18  and  N2_19 
REMARK    9  A    between atoms: N4_24  and  C11_25 
REMARK   10  A    between atoms: C12_31  and  N7_32 
ROOT
HETATM    1  C8  UNL     1      24.786 -44.078   2.212  1.00  0.00     0.121 A 
HETATM    2  C9  UNL     1      23.637 -43.778   1.487  1.00  0.00     0.140 A 
HETATM    3  C10 UNL     1      23.660 -44.529   0.332  1.00  0.00     0.150 A 
HETATM    4  N3  UNL     1      24.778 -45.242   0.376  1.00  0.00    -0.275 N 
ATOM      5  H3  UNL     1      25.074 -45.898  -0.346  1.00  0.00     0.189 HD
HETATM    6  N4  UNL     1      25.474 -44.982   1.507  1.00  0.00    -0.230 N 
ENDROOT
BRANCH   1   7
HETATM    7  C7  UNL     1      25.120 -43.467   3.537  1.00  0.00     0.275 C 
BRANCH   7   8
HETATM    8  N1  UNL     1      24.210 -43.673   4.532  1.00  0.00    -0.344 N 
ATOM      9  H1  UNL     1      23.311 -43.303   4.222  1.00  0.00     0.164 HD
BRANCH   8  10
HETATM   10  C6  UNL     1      24.064 -44.142   5.676  1.00  0.00     0.119 A 
HETATM   11  C5  UNL     1      24.220 -45.548   5.851  1.00  0.00     0.052 A 
HETATM   12  C4  UNL     1      24.090 -46.183   7.032  1.00  0.00     0.041 A 
HETATM   13  C3  UNL     1      23.790 -45.454   8.156  1.00  0.00     0.123 A 
HETATM   14  N9  UNL     1      23.646 -44.135   7.984  1.00  0.00    -0.292 N 
HETATM   15  N8  UNL     1      23.772 -43.502   6.819  1.00  0.00    -0.281 N 
ATOM     16  H9  UNL     1      23.423 -43.573   8.805  1.00  0.00     0.187 HD
HETATM   17  C13 UNL     1      23.578 -42.080   6.849  1.00  0.00     0.179 C 
BRANCH  13  18
HETATM   18  C2  UNL     1      23.639 -46.094   9.456  1.00  0.00     0.311 C 
HETATM   19  O2  UNL     1      22.510 -46.442   9.881  1.00  0.00    -0.258 OA
BRANCH  18  20
HETATM   20  O1  UNL     1      24.747 -46.330  10.251  1.00  0.00    -0.321 OA
HETATM   21  C1  UNL     1      24.710 -47.414  11.168  1.00  0.00     0.213 C 
ENDBRANCH  18  20
ENDBRANCH  13  18
ENDBRANCH   8  10
ENDBRANCH   7   8
BRANCH   7  22
HETATM   22  O3  UNL     1      25.321 -42.068   3.356  1.00  0.00    -0.371 OA
ATOM     23  H3  UNL     1      26.126 -41.804   3.786  1.00  0.00     0.212 HD
ENDBRANCH   7  22
ENDBRANCH   1   7
BRANCH   2  24
HETATM   24  O4  UNL     1      22.647 -42.882   1.865  1.00  0.00    -0.355 OA
ATOM     25  H4  UNL     1      22.033 -42.453   1.281  1.00  0.00     0.218 HD
ENDBRANCH   2  24
BRANCH   6  26
HETATM   26  C11 UNL     1      26.708 -45.577   1.868  1.00  0.00     0.195 A 
HETATM   27  N5  UNL     1      27.942 -45.263   1.447  1.00  0.00    -0.220 N 
HETATM   28  O5  UNL     1      28.817 -46.052   2.007  1.00  0.00    -0.153 OA
ATOM     29  H5  UNL     1      28.164 -44.517   0.787  1.00  0.00     0.198 HD
HETATM   30  N6  UNL     1      28.235 -46.900   2.799  1.00  0.00    -0.222 N 
HETATM   31  C12 UNL     1      26.896 -46.627   2.734  1.00  0.00     0.169 A 
ATOM     32  H6  UNL     1      28.686 -47.626   3.357  1.00  0.00     0.198 HD
BRANCH  31  33
HETATM   33  N7  UNL     1      26.030 -47.294   3.404  1.00  0.00    -0.381 N 
ATOM     34  H72 UNL     1      26.080 -47.382   4.420  1.00  0.00     0.157 HD
ATOM     35  H71 UNL     1      25.215 -47.812   3.074  1.00  0.00     0.157 HD
ENDBRANCH  31  33
ENDBRANCH   6  26
BRANCH   3  36
HETATM   36  N2  UNL     1      22.743 -44.514  -0.599  1.00  0.00    -0.382 N 
ATOM     37  H22 UNL     1      22.867 -44.564  -1.611  1.00  0.00     0.157 HD
ATOM     38  H21 UNL     1      21.738 -44.448  -0.438  1.00  0.00     0.157 HD
ENDBRANCH   3  36
TORSDOF 10
ENDMDL
MODEL 5
REMARK VINA RESULT: -6.402700069      1.993      7.179
REMARK  10 active torsions:
REMARK  status: ('A' for Active; 'I' for Inactive)
REMARK    1  A    between atoms: O1_2  and  C2_3 
REMARK    2  A    between atoms: C2_3  and  C3_5 
REMARK    3  A    between atoms: C6_8  and  N1_9 
REMARK    4  A    between atoms: N1_9  and  C7_11 
REMARK    5  A    between atoms: C7_11  and  O3_12 
REMARK    6  A    between atoms: C7_11  and  C8_14 
REMARK    7  A    between atoms: C9_15  and  O4_16 
REMARK    8  A    between atoms: C10_18  and  N2_19 
REMARK    9  A    between atoms: N4_24  and  C11_25 
REMARK   10  A    between atoms: C12_31  and  N7_32 
ROOT
HETATM    1  C8  UNL     1      24.064 -45.693   2.810  1.00  0.00     0.121 A 
HETATM    2  C9  UNL     1      22.843 -46.190   2.366  1.00  0.00     0.140 A 
HETATM    3  C10 UNL     1      23.096 -47.093   1.357  1.00  0.00     0.150 A 
HETATM    4  N3  UNL     1      24.415 -47.127   1.213  1.00  0.00    -0.275 N 
ATOM      5  H3  UNL     1      24.908 -47.709   0.536  1.00  0.00     0.189 HD
HETATM    6  N4  UNL     1      25.019 -46.286   2.084  1.00  0.00    -0.230 N 
ENDROOT
BRANCH   1   7
HETATM    7  C7  UNL     1      24.208 -44.689   3.910  1.00  0.00     0.275 C 
BRANCH   7   8
HETATM    8  N1  UNL     1      23.493 -44.943   5.043  1.00  0.00    -0.344 N 
ATOM      9  H1  UNL     1      22.523 -44.674   4.874  1.00  0.00     0.164 HD
BRANCH   8  10
HETATM   10  C6  UNL     1      23.579 -45.378   6.206  1.00  0.00     0.119 A 
HETATM   11  C5  UNL     1      23.624 -44.437   7.275  1.00  0.00     0.052 A 
HETATM   12  C4  UNL     1      23.716 -44.772   8.577  1.00  0.00     0.041 A 
HETATM   13  C3  UNL     1      23.770 -46.099   8.925  1.00  0.00     0.123 A 
HETATM   14  N9  UNL     1      23.727 -46.977   7.915  1.00  0.00    -0.292 N 
HETATM   15  N8  UNL     1      23.637 -46.652   6.628  1.00  0.00    -0.281 N 
ATOM     16  H9  UNL     1      23.766 -47.969   8.150  1.00  0.00     0.187 HD
HETATM   17  C13 UNL     1      23.604 -47.747   5.701  1.00  0.00     0.179 C 
BRANCH  13  18
HETATM   18  C2  UNL     1      23.870 -46.514  10.318  1.00  0.00     0.311 C 
HETATM   19  O2  UNL     1      24.930 -47.008  10.774  1.00  0.00    -0.258 OA
BRANCH  18  20
HETATM   20  O1  UNL     1      22.788 -46.368  11.168  1.00  0.00    -0.321 OA
HETATM   21  C1  UNL     1      21.782 -47.372  11.169  1.00  0.00     0.213 C 
ENDBRANCH  18  20
ENDBRANCH  13  18
ENDBRANCH   8  10
ENDBRANCH   7   8
BRANCH   7  22
HETATM   22  O3  UNL     1      23.857 -43.404   3.402  1.00  0.00    -0.371 OA
ATOM     23  H3  UNL     1      23.579 -43.485   2.498  1.00  0.00     0.212 HD
ENDBRANCH   7  22
ENDBRANCH   1   7
BRANCH   2  24
HETATM   24  O4  UNL     1      21.594 -45.835   2.857  1.00  0.00    -0.355 OA
ATOM     25  H4  UNL     1      20.770 -46.253   2.636  1.00  0.00     0.218 HD
ENDBRANCH   2  24
BRANCH   6  26
HETATM   26  C11 UNL     1      26.416 -46.084   2.197  1.00  0.00     0.195 A 
HETATM   27  N5  UNL     1      27.244 -45.465   1.341  1.00  0.00    -0.220 N 
HETATM   28  O5  UNL     1      28.464 -45.496   1.803  1.00  0.00    -0.153 OA
ATOM     29  H5  UNL     1      26.961 -45.034   0.461  1.00  0.00     0.198 HD
HETATM   30  N6  UNL     1      28.512 -46.113   2.944  1.00  0.00    -0.222 N 
HETATM   31  C12 UNL     1      27.230 -46.499   3.224  1.00  0.00     0.169 A 
ATOM     32  H6  UNL     1      29.340 -46.277   3.517  1.00  0.00     0.198 HD
BRANCH  31  33
HETATM   33  N7  UNL     1      26.929 -47.142   4.291  1.00  0.00    -0.381 N 
ATOM     34  H72 UNL     1      27.588 -47.771   4.750  1.00  0.00     0.157 HD
ATOM     35  H71 UNL     1      26.057 -47.144   4.822  1.00  0.00     0.157 HD
ENDBRANCH  31  33
ENDBRANCH   6  26
BRANCH   3  36
HETATM   36  N2  UNL     1      22.190 -47.764   0.697  1.00  0.00    -0.382 N 
ATOM     37  H22 UNL     1      21.433 -47.404   0.116  1.00  0.00     0.157 HD
ATOM     38  H21 UNL     1      22.112 -48.781   0.669  1.00  0.00     0.157 HD
ENDBRANCH   3  36
TORSDOF 10
ENDMDL
