MODEL 1
REMARK VINA RESULT: -6.233339068      0.000      0.000
REMARK  9 active torsions:
REMARK  status: ('A' for Active; 'I' for Inactive)
REMARK    1  A    between atoms: C2_3  and  C3_4 
REMARK    2  A    between atoms: C5_10  and  N4_11 
REMARK    3  A    between atoms: N5_13  and  C6_15 
REMARK    4  A    between atoms: C7_16  and  C8_17 
REMARK       I    between atoms: C8_17  and  N6_19 
REMARK    5  A    between atoms: N6_19  and  N7_21 
REMARK    6  A    between atoms: C9_26  and  N9_27 
REMARK    7  A    between atoms: N9_27  and  N10_29 
REMARK    8  A    between atoms: N11_32  and  N12_33 
REMARK    9  A    between atoms: C10_36  and  N13_37 
ROOT
HETATM    1  C6  UNL     1      23.710 -47.110   4.871  1.00  0.00     0.127 A 
HETATM    2  C7  UNL     1      24.503 -45.993   4.715  1.00  0.00     0.150 A 
HETATM    3  N8  UNL     1      25.831 -46.141   4.547  1.00  0.00    -0.181 N 
ATOM      4  H8  UNL     1      26.401 -45.304   4.433  1.00  0.00     0.184 HD
HETATM    5  C9  UNL     1      26.448 -47.350   4.522  1.00  0.00     0.719 A 
HETATM    6  N11 UNL     1      25.652 -48.419   4.676  1.00  0.00    -0.073 N 
HETATM    7  C10 UNL     1      24.324 -48.346   4.848  1.00  0.00     0.169 A 
ENDROOT
BRANCH   1   8
HETATM    8  N5  UNL     1      22.307 -46.974   5.044  1.00  0.00    -0.294 N 
HETATM    9  N4  UNL     1      21.497 -46.898   4.069  1.00  0.00    -0.294 N 
ATOM     10  H4  UNL     1      21.820 -46.931   3.101  1.00  0.00     0.187 HD
ATOM     11  H5  UNL     1      21.933 -46.936   5.992  1.00  0.00     0.187 HD
BRANCH   9  12
HETATM   12  C5  UNL     1      20.105 -46.762   4.394  1.00  0.00     0.132 A 
HETATM   13  C4  UNL     1      19.513 -45.524   4.497  1.00  0.00     0.126 A 
HETATM   14  N3  UNL     1      18.220 -45.459   4.801  1.00  0.00    -0.345 N 
HETATM   15  C2  UNL     1      17.432 -46.555   5.021  1.00  0.00     0.176 A 
ATOM     16  H3  UNL     1      17.791 -44.537   4.874  1.00  0.00     0.167 HD
HETATM   17  N1  UNL     1      17.972 -47.772   4.930  1.00  0.00    -0.298 N 
HETATM   18  C1  UNL     1      17.227 -49.006   5.144  1.00  0.00     0.161 C 
HETATM   19  C11 UNL     1      19.300 -47.850   4.618  1.00  0.00     0.278 A 
HETATM   20  O3  UNL     1      19.822 -48.991   4.529  1.00  0.00    -0.265 OA
BRANCH  15  21
HETATM   21  C3  UNL     1      16.032 -46.390   5.348  1.00  0.00     0.299 C 
HETATM   22  N2  UNL     1      14.952 -46.292   4.454  1.00  0.00    -0.054 NA
HETATM   23  O1  UNL     1      15.742 -46.327   6.585  1.00  0.00    -0.268 OA
ENDBRANCH  15  21
ENDBRANCH   9  12
ENDBRANCH   1   8
BRANCH   2  24
HETATM   24  C8  UNL     1      23.894 -44.642   4.738  1.00  0.00     0.289 C 
HETATM   25  O2  UNL     1      23.052 -44.355   3.840  1.00  0.00    -0.264 OA
HETATM   26  N6  UNL     1      24.205 -43.674   5.702  1.00  0.00    -0.271 N 
ATOM     27  H6  UNL     1      24.880 -43.874   6.441  1.00  0.00     0.189 HD
BRANCH  26  28
HETATM   28  N7  UNL     1      23.569 -42.421   5.632  1.00  0.00    -0.342 N 
ATOM     29  H72 UNL     1      22.980 -42.198   4.831  1.00  0.00     0.176 HD
ATOM     30  H71 UNL     1      23.713 -41.756   6.391  1.00  0.00     0.176 HD
ENDBRANCH  26  28
ENDBRANCH   2  24
BRANCH   7  31
HETATM   31  N13 UNL     1      23.584 -49.391   4.998  1.00  0.00    -0.382 N 
ATOM     32 2H13 UNL     1      23.272 -49.962   4.212  1.00  0.00     0.157 HD
ATOM     33 1H13 UNL     1      23.306 -49.648   5.946  1.00  0.00     0.157 HD
ENDBRANCH   7  31
BRANCH   6  34
HETATM   34  N12 UNL     1      26.257 -49.675   4.656  1.00  0.00    -0.322 N 
ATOM     35 2H12 UNL     1      27.041 -49.832   4.022  1.00  0.00     0.178 HD
ATOM     36 1H12 UNL     1      25.880 -50.386   5.283  1.00  0.00     0.178 HD
ENDBRANCH   6  34
BRANCH   5  37
HETATM   37  N9  UNL     1      27.722 -47.463   4.360  1.00  0.00    -0.137 N 
ATOM     38  H9  UNL     1      28.325 -47.772   5.122  1.00  0.00     0.205 HD
BRANCH  37  39
HETATM   39  N10 UNL     1      28.249 -47.149   3.116  1.00  0.00    -0.331 N 
ATOM     40 2H10 UNL     1      28.165 -46.200   2.750  1.00  0.00     0.177 HD
ATOM     41 1H10 UNL     1      28.715 -47.891   2.594  1.00  0.00     0.177 HD
ENDBRANCH  37  39
ENDBRANCH   5  37
TORSDOF 9
ENDMDL
MODEL 2
REMARK VINA RESULT: -6.162646596      1.198      1.699
REMARK  9 active torsions:
REMARK  status: ('A' for Active; 'I' for Inactive)
REMARK    1  A    between atoms: C2_3  and  C3_4 
REMARK    2  A    between atoms: C5_10  and  N4_11 
REMARK    3  A    between atoms: N5_13  and  C6_15 
REMARK    4  A    between atoms: C7_16  and  C8_17 
REMARK       I    between atoms: C8_17  and  N6_19 
REMARK    5  A    between atoms: N6_19  and  N7_21 
REMARK    6  A    between atoms: C9_26  and  N9_27 
REMARK    7  A    between atoms: N9_27  and  N10_29 
REMARK    8  A    between atoms: N11_32  and  N12_33 
REMARK    9  A    between atoms: C10_36  and  N13_37 
ROOT
HETATM    1  C6  UNL     1      23.697 -47.173   4.853  1.00  0.00     0.127 A 
HETATM    2  C7  UNL     1      24.470 -46.047   4.664  1.00  0.00     0.150 A 
HETATM    3  N8  UNL     1      25.800 -46.177   4.492  1.00  0.00    -0.181 N 
ATOM      4  H8  UNL     1      26.355 -45.333   4.353  1.00  0.00     0.184 HD
HETATM    5  C9  UNL     1      26.437 -47.376   4.493  1.00  0.00     0.719 A 
HETATM    6  N11 UNL     1      25.660 -48.454   4.680  1.00  0.00    -0.073 N 
HETATM    7  C10 UNL     1      24.333 -48.399   4.858  1.00  0.00     0.169 A 
ENDROOT
BRANCH   1   8
HETATM    8  N5  UNL     1      22.293 -47.056   5.032  1.00  0.00    -0.294 N 
HETATM    9  N4  UNL     1      21.464 -47.201   4.081  1.00  0.00    -0.294 N 
ATOM     10  H4  UNL     1      21.771 -47.411   3.130  1.00  0.00     0.187 HD
ATOM     11  H5  UNL     1      21.935 -46.848   5.964  1.00  0.00     0.187 HD
BRANCH   9  12
HETATM   12  C5  UNL     1      20.073 -47.055   4.408  1.00  0.00     0.132 A 
HETATM   13  C4  UNL     1      19.273 -48.154   4.628  1.00  0.00     0.126 A 
HETATM   14  N3  UNL     1      17.993 -47.959   4.927  1.00  0.00    -0.345 N 
HETATM   15  C2  UNL     1      17.412 -46.725   5.032  1.00  0.00     0.176 A 
ATOM     16  H3  UNL     1      17.408 -48.780   5.088  1.00  0.00     0.167 HD
HETATM   17  N1  UNL     1      18.157 -45.637   4.825  1.00  0.00    -0.298 N 
HETATM   18  C1  UNL     1      17.644 -44.276   4.911  1.00  0.00     0.161 C 
HETATM   19  C11 UNL     1      19.476 -45.827   4.517  1.00  0.00     0.278 A 
HETATM   20  O3  UNL     1      20.189 -44.810   4.319  1.00  0.00    -0.265 OA
BRANCH  15  21
HETATM   21  C3  UNL     1      16.008 -46.607   5.362  1.00  0.00     0.299 C 
HETATM   22  N2  UNL     1      14.921 -46.580   4.472  1.00  0.00    -0.054 NA
HETATM   23  O1  UNL     1      15.722 -46.516   6.598  1.00  0.00    -0.268 OA
ENDBRANCH  15  21
ENDBRANCH   9  12
ENDBRANCH   1   8
BRANCH   2  24
HETATM   24  C8  UNL     1      23.839 -44.707   4.658  1.00  0.00     0.289 C 
HETATM   25  O2  UNL     1      23.828 -44.050   5.738  1.00  0.00    -0.264 OA
HETATM   26  N6  UNL     1      23.257 -44.135   3.518  1.00  0.00    -0.271 N 
ATOM     27  H6  UNL     1      23.249 -44.639   2.631  1.00  0.00     0.189 HD
BRANCH  26  28
HETATM   28  N7  UNL     1      22.683 -42.855   3.622  1.00  0.00    -0.342 N 
ATOM     29  H72 UNL     1      22.038 -42.651   4.385  1.00  0.00     0.176 HD
ATOM     30  H71 UNL     1      22.927 -42.151   2.925  1.00  0.00     0.176 HD
ENDBRANCH  26  28
ENDBRANCH   2  24
BRANCH   7  31
HETATM   31  N13 UNL     1      23.611 -49.452   5.039  1.00  0.00    -0.382 N 
ATOM     32 2H13 UNL     1      22.624 -49.406   5.296  1.00  0.00     0.157 HD
ATOM     33 1H13 UNL     1      24.055 -50.362   4.916  1.00  0.00     0.157 HD
ENDBRANCH   7  31
BRANCH   6  34
HETATM   34  N12 UNL     1      26.286 -49.699   4.687  1.00  0.00    -0.322 N 
ATOM     35 2H12 UNL     1      27.053 -49.867   4.035  1.00  0.00     0.178 HD
ATOM     36 1H12 UNL     1      25.942 -50.392   5.353  1.00  0.00     0.178 HD
ENDBRANCH   6  34
BRANCH   5  37
HETATM   37  N9  UNL     1      27.712 -47.471   4.326  1.00  0.00    -0.137 N 
ATOM     38  H9  UNL     1      28.321 -47.774   5.086  1.00  0.00     0.205 HD
BRANCH  37  39
HETATM   39  N10 UNL     1      28.230 -47.147   3.082  1.00  0.00    -0.331 N 
ATOM     40 2H10 UNL     1      27.738 -47.429   2.234  1.00  0.00     0.177 HD
ATOM     41 1H10 UNL     1      29.106 -46.624   3.050  1.00  0.00     0.177 HD
ENDBRANCH  37  39
ENDBRANCH   5  37
TORSDOF 9
ENDMDL
MODEL 3
REMARK VINA RESULT: -5.771644001      1.716      2.140
REMARK  9 active torsions:
REMARK  status: ('A' for Active; 'I' for Inactive)
REMARK    1  A    between atoms: C2_3  and  C3_4 
REMARK    2  A    between atoms: C5_10  and  N4_11 
REMARK    3  A    between atoms: N5_13  and  C6_15 
REMARK    4  A    between atoms: C7_16  and  C8_17 
REMARK       I    between atoms: C8_17  and  N6_19 
REMARK    5  A    between atoms: N6_19  and  N7_21 
REMARK    6  A    between atoms: C9_26  and  N9_27 
REMARK    7  A    between atoms: N9_27  and  N10_29 
REMARK    8  A    between atoms: N11_32  and  N12_33 
REMARK    9  A    between atoms: C10_36  and  N13_37 
ROOT
HETATM    1  C6  UNL     1      23.671 -46.631   4.082  1.00  0.00     0.127 A 
HETATM    2  C7  UNL     1      24.543 -46.770   5.141  1.00  0.00     0.150 A 
HETATM    3  N8  UNL     1      25.867 -46.851   4.903  1.00  0.00    -0.181 N 
ATOM      4  H8  UNL     1      26.497 -46.953   5.698  1.00  0.00     0.184 HD
HETATM    5  C9  UNL     1      26.404 -46.802   3.657  1.00  0.00     0.719 A 
HETATM    6  N11 UNL     1      25.531 -46.666   2.647  1.00  0.00    -0.073 N 
HETATM    7  C10 UNL     1      24.203 -46.581   2.810  1.00  0.00     0.169 A 
ENDROOT
BRANCH   1   8
HETATM    8  N5  UNL     1      22.272 -46.540   4.314  1.00  0.00    -0.294 N 
HETATM    9  N4  UNL     1      21.493 -47.538   4.220  1.00  0.00    -0.294 N 
ATOM     10  H4  UNL     1      21.839 -48.465   3.969  1.00  0.00     0.187 HD
ATOM     11  H5  UNL     1      21.877 -45.635   4.568  1.00  0.00     0.187 HD
BRANCH   9  12
HETATM   12  C5  UNL     1      20.101 -47.299   4.483  1.00  0.00     0.132 A 
HETATM   13  C4  UNL     1      19.590 -46.021   4.510  1.00  0.00     0.126 A 
HETATM   14  N3  UNL     1      18.295 -45.859   4.759  1.00  0.00    -0.345 N 
HETATM   15  C2  UNL     1      17.427 -46.891   4.993  1.00  0.00     0.176 A 
ATOM     16  H3  UNL     1      17.925 -44.908   4.777  1.00  0.00     0.167 HD
HETATM   17  N1  UNL     1      17.888 -48.143   4.975  1.00  0.00    -0.298 N 
HETATM   18  C1  UNL     1      17.056 -49.316   5.210  1.00  0.00     0.161 C 
HETATM   19  C11 UNL     1      19.219 -48.321   4.720  1.00  0.00     0.278 A 
HETATM   20  O3  UNL     1      19.667 -49.496   4.700  1.00  0.00    -0.265 OA
BRANCH  15  21
HETATM   21  C3  UNL     1      16.030 -46.621   5.257  1.00  0.00     0.299 C 
HETATM   22  N2  UNL     1      14.974 -46.608   4.331  1.00  0.00    -0.054 NA
HETATM   23  O1  UNL     1      15.719 -46.367   6.464  1.00  0.00    -0.268 OA
ENDBRANCH  15  21
ENDBRANCH   9  12
ENDBRANCH   1   8
BRANCH   2  24
HETATM   24  C8  UNL     1      24.024 -46.836   6.527  1.00  0.00     0.289 C 
HETATM   25  O2  UNL     1      23.247 -47.789   6.825  1.00  0.00    -0.264 OA
HETATM   26  N6  UNL     1      24.349 -45.899   7.517  1.00  0.00    -0.271 N 
ATOM     27  H6  UNL     1      24.973 -45.119   7.309  1.00  0.00     0.189 HD
BRANCH  26  28
HETATM   28  N7  UNL     1      23.800 -46.055   8.802  1.00  0.00    -0.342 N 
ATOM     29  H72 UNL     1      24.331 -46.544   9.523  1.00  0.00     0.176 HD
ATOM     30  H71 UNL     1      22.873 -45.673   8.989  1.00  0.00     0.176 HD
ENDBRANCH  26  28
ENDBRANCH   2  24
BRANCH   7  31
HETATM   31  N13 UNL     1      23.387 -46.455   1.819  1.00  0.00    -0.382 N 
ATOM     32 2H13 UNL     1      22.439 -46.093   1.929  1.00  0.00     0.157 HD
ATOM     33 1H13 UNL     1      23.714 -46.731   0.893  1.00  0.00     0.157 HD
ENDBRANCH   7  31
BRANCH   6  34
HETATM   34  N12 UNL     1      26.052 -46.614   1.355  1.00  0.00    -0.322 N 
ATOM     35 2H12 UNL     1      27.061 -46.705   1.229  1.00  0.00     0.178 HD
ATOM     36 1H12 UNL     1      25.391 -46.485   0.589  1.00  0.00     0.178 HD
ENDBRANCH   6  34
BRANCH   5  37
HETATM   37  N9  UNL     1      27.675 -46.881   3.458  1.00  0.00    -0.137 N 
ATOM     38  H9  UNL     1      28.120 -47.775   3.250  1.00  0.00     0.205 HD
BRANCH  37  39
HETATM   39  N10 UNL     1      28.419 -45.715   3.538  1.00  0.00    -0.331 N 
ATOM     40 2H10 UNL     1      27.967 -44.810   3.406  1.00  0.00     0.177 HD
ATOM     41 1H10 UNL     1      29.418 -45.797   3.731  1.00  0.00     0.177 HD
ENDBRANCH  37  39
ENDBRANCH   5  37
TORSDOF 9
ENDMDL
MODEL 4
REMARK VINA RESULT: -5.715153063      1.930      2.566
REMARK  9 active torsions:
REMARK  status: ('A' for Active; 'I' for Inactive)
REMARK    1  A    between atoms: C2_3  and  C3_4 
REMARK    2  A    between atoms: C5_10  and  N4_11 
REMARK    3  A    between atoms: N5_13  and  C6_15 
REMARK    4  A    between atoms: C7_16  and  C8_17 
REMARK       I    between atoms: C8_17  and  N6_19 
REMARK    5  A    between atoms: N6_19  and  N7_21 
REMARK    6  A    between atoms: C9_26  and  N9_27 
REMARK    7  A    between atoms: N9_27  and  N10_29 
REMARK    8  A    between atoms: N11_32  and  N12_33 
REMARK    9  A    between atoms: C10_36  and  N13_37 
ROOT
HETATM    1  C6  UNL     1      24.275 -47.401   4.471  1.00  0.00     0.127 A 
HETATM    2  C7  UNL     1      24.397 -46.046   4.243  1.00  0.00     0.150 A 
HETATM    3  N8  UNL     1      25.616 -45.519   4.019  1.00  0.00    -0.181 N 
ATOM      4  H8  UNL     1      25.686 -44.516   3.852  1.00  0.00     0.184 HD
HETATM    5  C9  UNL     1      26.755 -46.257   4.005  1.00  0.00     0.719 A 
HETATM    6  N11 UNL     1      26.606 -47.572   4.230  1.00  0.00    -0.073 N 
HETATM    7  C10 UNL     1      25.425 -48.163   4.460  1.00  0.00     0.169 A 
ENDROOT
BRANCH   1   8
HETATM    8  N5  UNL     1      22.997 -47.975   4.704  1.00  0.00    -0.294 N 
HETATM    9  N4  UNL     1      22.231 -48.353   3.764  1.00  0.00    -0.294 N 
ATOM     10  H4  UNL     1      22.500 -48.261   2.784  1.00  0.00     0.187 HD
ATOM     11  H5  UNL     1      22.681 -48.089   5.667  1.00  0.00     0.187 HD
BRANCH   9  12
HETATM   12  C5  UNL     1      20.967 -48.918   4.148  1.00  0.00     0.132 A 
HETATM   13  C4  UNL     1      20.789 -50.280   4.228  1.00  0.00     0.126 A 
HETATM   14  N3  UNL     1      19.597 -50.746   4.589  1.00  0.00    -0.345 N 
HETATM   15  C2  UNL     1      18.525 -49.952   4.888  1.00  0.00     0.176 A 
ATOM     16  H3  UNL     1      19.475 -51.758   4.645  1.00  0.00     0.167 HD
HETATM   17  N1  UNL     1      18.661 -48.626   4.820  1.00  0.00    -0.298 N 
HETATM   18  C1  UNL     1      17.588 -47.686   5.117  1.00  0.00     0.161 C 
HETATM   19  C11 UNL     1      19.883 -48.136   4.451  1.00  0.00     0.278 A 
HETATM   20  O3  UNL     1      20.024 -46.888   4.383  1.00  0.00    -0.265 OA
BRANCH  15  21
HETATM   21  C3  UNL     1      17.263 -50.546   5.271  1.00  0.00     0.299 C 
HETATM   22  N2  UNL     1      16.145 -50.779   4.452  1.00  0.00    -0.054 NA
HETATM   23  O1  UNL     1      17.148 -50.900   6.488  1.00  0.00    -0.268 OA
ENDBRANCH  15  21
ENDBRANCH   9  12
ENDBRANCH   1   8
BRANCH   2  24
HETATM   24  C8  UNL     1      23.194 -45.181   4.250  1.00  0.00     0.289 C 
HETATM   25  O2  UNL     1      22.457 -45.179   3.222  1.00  0.00    -0.264 OA
HETATM   26  N6  UNL     1      22.835 -44.371   5.335  1.00  0.00    -0.271 N 
ATOM     27  H6  UNL     1      23.407 -44.349   6.180  1.00  0.00     0.189 HD
BRANCH  26  28
HETATM   28  N7  UNL     1      21.671 -43.587   5.238  1.00  0.00    -0.342 N 
ATOM     29  H72 UNL     1      21.262 -43.401   4.322  1.00  0.00     0.176 HD
ATOM     30  H71 UNL     1      21.257 -43.216   6.092  1.00  0.00     0.176 HD
ENDBRANCH  26  28
ENDBRANCH   2  24
BRANCH   7  31
HETATM   31  N13 UNL     1      25.312 -49.430   4.678  1.00  0.00    -0.382 N 
ATOM     32 2H13 UNL     1      24.699 -49.812   5.398  1.00  0.00     0.157 HD
ATOM     33 1H13 UNL     1      25.862 -50.064   4.099  1.00  0.00     0.157 HD
ENDBRANCH   7  31
BRANCH   6  34
HETATM   34  N12 UNL     1      27.759 -48.356   4.223  1.00  0.00    -0.322 N 
ATOM     35 2H12 UNL     1      28.662 -47.901   4.355  1.00  0.00     0.178 HD
ATOM     36 1H12 UNL     1      27.641 -49.359   4.081  1.00  0.00     0.178 HD
ENDBRANCH   6  34
BRANCH   5  37
HETATM   37  N9  UNL     1      27.910 -45.726   3.788  1.00  0.00    -0.137 N 
ATOM     38  H9  UNL     1      28.493 -45.402   4.560  1.00  0.00     0.205 HD
BRANCH  37  39
HETATM   39  N10 UNL     1      28.334 -45.606   2.474  1.00  0.00    -0.331 N 
ATOM     40 2H10 UNL     1      27.698 -45.246   1.762  1.00  0.00     0.177 HD
ATOM     41 1H10 UNL     1      29.289 -45.888   2.253  1.00  0.00     0.177 HD
ENDBRANCH  37  39
ENDBRANCH   5  37
TORSDOF 9
ENDMDL
MODEL 5
REMARK VINA RESULT: -5.668387277      4.344      5.977
REMARK  9 active torsions:
REMARK  status: ('A' for Active; 'I' for Inactive)
REMARK    1  A    between atoms: C2_3  and  C3_4 
REMARK    2  A    between atoms: C5_10  and  N4_11 
REMARK    3  A    between atoms: N5_13  and  C6_15 
REMARK    4  A    between atoms: C7_16  and  C8_17 
REMARK       I    between atoms: C8_17  and  N6_19 
REMARK    5  A    between atoms: N6_19  and  N7_21 
REMARK    6  A    between atoms: C9_26  and  N9_27 
REMARK    7  A    between atoms: N9_27  and  N10_29 
REMARK    8  A    between atoms: N11_32  and  N12_33 
REMARK    9  A    between atoms: C10_36  and  N13_37 
ROOT
HETATM    1  C6  UNL     1      25.364 -45.420   4.369  1.00  0.00     0.127 A 
HETATM    2  C7  UNL     1      25.221 -46.479   5.240  1.00  0.00     0.150 A 
HETATM    3  N8  UNL     1      26.024 -47.553   5.114  1.00  0.00    -0.181 N 
ATOM      4  H8  UNL     1      25.904 -48.327   5.767  1.00  0.00     0.184 HD
HETATM    5  C9  UNL     1      26.987 -47.656   4.162  1.00  0.00     0.719 A 
HETATM    6  N11 UNL     1      27.102 -46.610   3.329  1.00  0.00    -0.073 N 
HETATM    7  C10 UNL     1      26.338 -45.512   3.395  1.00  0.00     0.169 A 
ENDROOT
BRANCH   1   8
HETATM    8  N5  UNL     1      24.529 -44.277   4.488  1.00  0.00    -0.294 N 
HETATM    9  N4  UNL     1      24.539 -43.522   5.509  1.00  0.00    -0.294 N 
ATOM     10  H4  UNL     1      25.154 -43.701   6.303  1.00  0.00     0.187 HD
ATOM     11  H5  UNL     1      23.894 -44.053   3.722  1.00  0.00     0.187 HD
BRANCH   9  12
HETATM   12  C5  UNL     1      23.640 -42.401   5.492  1.00  0.00     0.132 A 
HETATM   13  C4  UNL     1      22.414 -42.460   6.115  1.00  0.00     0.126 A 
HETATM   14  N3  UNL     1      21.624 -41.392   6.066  1.00  0.00    -0.345 N 
HETATM   15  C2  UNL     1      21.952 -40.226   5.431  1.00  0.00     0.176 A 
ATOM     16  H3  UNL     1      20.717 -41.446   6.531  1.00  0.00     0.167 HD
HETATM   17  N1  UNL     1      23.133 -40.133   4.816  1.00  0.00    -0.298 N 
HETATM   18  C1  UNL     1      23.587 -38.942   4.110  1.00  0.00     0.161 C 
HETATM   19  C11 UNL     1      23.954 -41.226   4.860  1.00  0.00     0.278 A 
HETATM   20  O3  UNL     1      25.070 -41.151   4.284  1.00  0.00    -0.265 OA
BRANCH  15  21
HETATM   21  C3  UNL     1      21.028 -39.113   5.428  1.00  0.00     0.299 C 
HETATM   22  N2  UNL     1      20.200 -38.694   4.374  1.00  0.00    -0.054 NA
HETATM   23  O1  UNL     1      20.955 -38.434   6.502  1.00  0.00    -0.268 OA
ENDBRANCH  15  21
ENDBRANCH   9  12
ENDBRANCH   1   8
BRANCH   2  24
HETATM   24  C8  UNL     1      24.186 -46.435   6.299  1.00  0.00     0.289 C 
HETATM   25  O2  UNL     1      22.984 -46.252   5.948  1.00  0.00    -0.264 OA
HETATM   26  N6  UNL     1      24.472 -46.584   7.662  1.00  0.00    -0.271 N 
ATOM     27  H6  UNL     1      25.430 -46.733   7.979  1.00  0.00     0.189 HD
BRANCH  26  28
HETATM   28  N7  UNL     1      23.413 -46.524   8.586  1.00  0.00    -0.342 N 
ATOM     29  H72 UNL     1      22.451 -46.600   8.257  1.00  0.00     0.176 HD
ATOM     30  H71 UNL     1      23.631 -46.406   9.575  1.00  0.00     0.176 HD
ENDBRANCH  26  28
ENDBRANCH   2  24
BRANCH   7  31
HETATM   31  N13 UNL     1      26.469 -44.522   2.578  1.00  0.00    -0.382 N 
ATOM     32 2H13 UNL     1      26.666 -43.572   2.892  1.00  0.00     0.157 HD
ATOM     33 1H13 UNL     1      26.371 -44.711   1.580  1.00  0.00     0.157 HD
ENDBRANCH   7  31
BRANCH   6  34
HETATM   34  N12 UNL     1      28.082 -46.687   2.340  1.00  0.00    -0.322 N 
ATOM     35 2H12 UNL     1      29.010 -47.026   2.594  1.00  0.00     0.178 HD
ATOM     36 1H12 UNL     1      27.819 -46.396   1.398  1.00  0.00     0.178 HD
ENDBRANCH   6  34
BRANCH   5  37
HETATM   37  N9  UNL     1      27.742 -48.697   4.065  1.00  0.00    -0.137 N 
ATOM     38  H9  UNL     1      28.651 -48.647   3.605  1.00  0.00     0.205 HD
BRANCH  37  39
HETATM   39  N10 UNL     1      27.280 -49.887   4.606  1.00  0.00    -0.331 N 
ATOM     40 2H10 UNL     1      26.462 -49.888   5.215  1.00  0.00     0.177 HD
ATOM     41 1H10 UNL     1      27.781 -50.744   4.373  1.00  0.00     0.177 HD
ENDBRANCH  37  39
ENDBRANCH   5  37
TORSDOF 9
ENDMDL
