MODEL 1
REMARK VINA RESULT: -6.965417181      0.000      0.000
REMARK  7 active torsions:
REMARK  status: ('A' for Active; 'I' for Inactive)
REMARK    1  A    between atoms: C2_3  and  N2_4 
REMARK    2  A    between atoms: C4_11  and  C5_12 
REMARK    3  A    between atoms: C5_12  and  C6_13 
REMARK    4  A    between atoms: C7_17  and  N7_18 
REMARK    5  A    between atoms: N7_18  and  N8_20 
REMARK    6  A    between atoms: C8_24  and  C9_25 
REMARK       I    between atoms: C9_25  and  N9_27 
REMARK    7  A    between atoms: N9_27  and  O2_29 
ROOT
HETATM    1  C6  UNL     1      23.863 -47.735   5.421  1.00  0.00     0.102 A 
HETATM    2  N5  UNL     1      23.577 -48.193   6.648  1.00  0.00    -0.278 N 
ATOM      3  H5  UNL     1      23.449 -49.176   6.892  1.00  0.00     0.189 HD
HETATM    4  N6  UNL     1      23.482 -47.152   7.520  1.00  0.00    -0.213 N 
HETATM    5  C7  UNL     1      23.220 -47.082   8.834  1.00  0.00     0.187 A 
HETATM    6  S1  UNL     1      23.290 -45.417   9.146  1.00  0.00    -0.041 SA
HETATM    7  C8  UNL     1      23.663 -44.866   7.535  1.00  0.00     0.124 A 
HETATM    8  C10 UNL     1      23.704 -46.059   6.861  1.00  0.00     0.154 A 
HETATM    9  N10 UNL     1      23.942 -46.421   5.549  1.00  0.00    -0.328 N 
ATOM     10  H10 UNL     1      24.147 -45.771   4.790  1.00  0.00     0.169 HD
ENDROOT
BRANCH   1  11
HETATM   11  C5  UNL     1      24.047 -48.513   4.172  1.00  0.00     0.126 C 
BRANCH  11  12
HETATM   12  C4  UNL     1      24.525 -47.765   3.024  1.00  0.00     0.059 A 
HETATM   13  C3  UNL     1      23.741 -47.504   1.932  1.00  0.00     0.144 A 
HETATM   14  N3  UNL     1      24.232 -46.775   0.879  1.00  0.00    -0.178 N 
HETATM   15  N4  UNL     1      22.406 -47.978   1.824  1.00  0.00    -0.081 NA
HETATM   16  C2  UNL     1      25.488 -46.306   0.899  1.00  0.00     0.681 A 
ATOM     17  H3  UNL     1      23.635 -46.588   0.073  1.00  0.00     0.185 HD
HETATM   18  N1  UNL     1      26.270 -46.555   1.963  1.00  0.00    -0.152 N 
HETATM   19  C1  UNL     1      27.625 -46.050   1.993  1.00  0.00     0.179 C 
HETATM   20  C11 UNL     1      25.825 -47.262   3.010  1.00  0.00     0.271 A 
HETATM   21  O3  UNL     1      26.612 -47.459   3.979  1.00  0.00    -0.267 OA
BRANCH  16  22
HETATM   22  N2  UNL     1      25.952 -45.612  -0.108  1.00  0.00    -0.234 N 
ATOM     23  H22 UNL     1      26.927 -45.313  -0.123  1.00  0.00     0.174 HD
ATOM     24  H21 UNL     1      25.339 -45.364  -0.885  1.00  0.00     0.174 HD
ENDBRANCH  16  22
ENDBRANCH  11  12
ENDBRANCH   1  11
BRANCH   5  25
HETATM   25  N7  UNL     1      22.970 -48.084   9.652  1.00  0.00    -0.285 N 
ATOM     26  H7  UNL     1      23.319 -49.023   9.464  1.00  0.00     0.188 HD
BRANCH  25  27
HETATM   27  N8  UNL     1      22.210 -47.805  10.781  1.00  0.00    -0.343 N 
ATOM     28  H82 UNL     1      21.426 -47.154  10.731  1.00  0.00     0.176 HD
ATOM     29  H81 UNL     1      22.473 -48.277  11.646  1.00  0.00     0.176 HD
ENDBRANCH  25  27
ENDBRANCH   5  25
BRANCH   7  30
HETATM   30  C9  UNL     1      23.868 -43.477   7.154  1.00  0.00     0.285 C 
HETATM   31  O1  UNL     1      23.699 -42.600   8.079  1.00  0.00    -0.265 OA
HETATM   32  N9  UNL     1      24.223 -43.017   5.901  1.00  0.00    -0.233 N 
ATOM     33  H9  UNL     1      24.363 -43.674   5.135  1.00  0.00     0.197 HD
BRANCH  32  34
HETATM   34  O2  UNL     1      24.386 -41.667   5.692  1.00  0.00    -0.287 OA
ATOM     35  H2  UNL     1      24.208 -41.298   4.834  1.00  0.00     0.244 HD
ENDBRANCH  32  34
ENDBRANCH   7  30
TORSDOF 7
ENDMDL
MODEL 2
REMARK VINA RESULT: -6.843893736      1.126      1.551
REMARK  7 active torsions:
REMARK  status: ('A' for Active; 'I' for Inactive)
REMARK    1  A    between atoms: C2_3  and  N2_4 
REMARK    2  A    between atoms: C4_11  and  C5_12 
REMARK    3  A    between atoms: C5_12  and  C6_13 
REMARK    4  A    between atoms: C7_17  and  N7_18 
REMARK    5  A    between atoms: N7_18  and  N8_20 
REMARK    6  A    between atoms: C8_24  and  C9_25 
REMARK       I    between atoms: C9_25  and  N9_27 
REMARK    7  A    between atoms: N9_27  and  O2_29 
ROOT
HETATM    1  C6  UNL     1      23.803 -48.022   5.572  1.00  0.00     0.102 A 
HETATM    2  N5  UNL     1      23.505 -48.406   6.822  1.00  0.00    -0.278 N 
ATOM      3  H5  UNL     1      23.357 -49.371   7.119  1.00  0.00     0.189 HD
HETATM    4  N6  UNL     1      23.430 -47.317   7.635  1.00  0.00    -0.213 N 
HETATM    5  C7  UNL     1      23.168 -47.168   8.943  1.00  0.00     0.187 A 
HETATM    6  S1  UNL     1      23.272 -45.491   9.163  1.00  0.00    -0.041 SA
HETATM    7  C8  UNL     1      23.659 -45.038   7.524  1.00  0.00     0.124 A 
HETATM    8  C10 UNL     1      23.676 -46.266   6.917  1.00  0.00     0.154 A 
HETATM    9  N10 UNL     1      23.908 -46.705   5.627  1.00  0.00    -0.328 N 
ATOM     10  H10 UNL     1      24.128 -46.102   4.835  1.00  0.00     0.169 HD
ENDROOT
BRANCH   1  11
HETATM   11  C5  UNL     1      23.972 -48.871   4.368  1.00  0.00     0.126 C 
BRANCH  11  12
HETATM   12  C4  UNL     1      23.535 -48.288   3.114  1.00  0.00     0.059 A 
HETATM   13  C3  UNL     1      22.327 -48.583   2.541  1.00  0.00     0.144 A 
HETATM   14  N3  UNL     1      21.949 -47.990   1.363  1.00  0.00    -0.178 N 
HETATM   15  N4  UNL     1      21.421 -49.515   3.115  1.00  0.00    -0.081 NA
HETATM   16  C2  UNL     1      22.757 -47.110   0.751  1.00  0.00     0.681 A 
ATOM     17  H3  UNL     1      21.046 -48.219   0.949  1.00  0.00     0.185 HD
HETATM   18  N1  UNL     1      23.946 -46.811   1.301  1.00  0.00    -0.152 N 
HETATM   19  C1  UNL     1      24.821 -45.862   0.649  1.00  0.00     0.179 C 
HETATM   20  C11 UNL     1      24.348 -47.370   2.450  1.00  0.00     0.271 A 
HETATM   21  O3  UNL     1      25.477 -47.044   2.913  1.00  0.00    -0.267 OA
BRANCH  16  22
HETATM   22  N2  UNL     1      22.393 -46.547  -0.372  1.00  0.00    -0.234 N 
ATOM     23  H22 UNL     1      23.030 -45.923  -0.867  1.00  0.00     0.174 HD
ATOM     24  H21 UNL     1      21.467 -46.729  -0.759  1.00  0.00     0.174 HD
ENDBRANCH  16  22
ENDBRANCH  11  12
ENDBRANCH   1  11
BRANCH   5  25
HETATM   25  N7  UNL     1      22.897 -48.118   9.813  1.00  0.00    -0.285 N 
ATOM     26  H7  UNL     1      23.232 -49.072   9.682  1.00  0.00     0.188 HD
BRANCH  25  27
HETATM   27  N8  UNL     1      22.134 -47.764  10.919  1.00  0.00    -0.343 N 
ATOM     28  H82 UNL     1      21.537 -46.937  10.894  1.00  0.00     0.176 HD
ATOM     29  H81 UNL     1      22.201 -48.364  11.741  1.00  0.00     0.176 HD
ENDBRANCH  25  27
ENDBRANCH   5  25
BRANCH   7  30
HETATM   30  C9  UNL     1      23.893 -43.677   7.067  1.00  0.00     0.285 C 
HETATM   31  O1  UNL     1      23.742 -42.746   7.943  1.00  0.00    -0.265 OA
HETATM   32  N9  UNL     1      24.257 -43.293   5.792  1.00  0.00    -0.233 N 
ATOM     33  H9  UNL     1      24.383 -43.994   5.063  1.00  0.00     0.197 HD
BRANCH  32  34
HETATM   34  O2  UNL     1      24.449 -41.961   5.509  1.00  0.00    -0.287 OA
ATOM     35  H2  UNL     1      23.715 -41.359   5.553  1.00  0.00     0.244 HD
ENDBRANCH  32  34
ENDBRANCH   7  30
TORSDOF 7
ENDMDL
MODEL 3
REMARK VINA RESULT: -6.804239276      1.846      2.979
REMARK  7 active torsions:
REMARK  status: ('A' for Active; 'I' for Inactive)
REMARK    1  A    between atoms: C2_3  and  N2_4 
REMARK    2  A    between atoms: C4_11  and  C5_12 
REMARK    3  A    between atoms: C5_12  and  C6_13 
REMARK    4  A    between atoms: C7_17  and  N7_18 
REMARK    5  A    between atoms: N7_18  and  N8_20 
REMARK    6  A    between atoms: C8_24  and  C9_25 
REMARK       I    between atoms: C9_25  and  N9_27 
REMARK    7  A    between atoms: N9_27  and  O2_29 
ROOT
HETATM    1  C6  UNL     1      23.730 -47.973   5.507  1.00  0.00     0.102 A 
HETATM    2  N5  UNL     1      23.456 -48.365   6.760  1.00  0.00    -0.278 N 
ATOM      3  H5  UNL     1      23.301 -49.330   7.052  1.00  0.00     0.189 HD
HETATM    4  N6  UNL     1      23.416 -47.283   7.584  1.00  0.00    -0.213 N 
HETATM    5  C7  UNL     1      23.187 -47.143   8.900  1.00  0.00     0.187 A 
HETATM    6  S1  UNL     1      23.321 -45.470   9.133  1.00  0.00    -0.041 SA
HETATM    7  C8  UNL     1      23.675 -45.006   7.490  1.00  0.00     0.124 A 
HETATM    8  C10 UNL     1      23.660 -46.228   6.871  1.00  0.00     0.154 A 
HETATM    9  N10 UNL     1      23.856 -46.659   5.572  1.00  0.00    -0.328 N 
ATOM     10  H10 UNL     1      24.066 -46.051   4.780  1.00  0.00     0.169 HD
ENDROOT
BRANCH   1  11
HETATM   11  C5  UNL     1      23.859 -48.813   4.291  1.00  0.00     0.126 C 
BRANCH  11  12
HETATM   12  C4  UNL     1      23.031 -48.428   3.164  1.00  0.00     0.059 A 
HETATM   13  C3  UNL     1      23.432 -47.508   2.232  1.00  0.00     0.144 A 
HETATM   14  N3  UNL     1      22.621 -47.191   1.172  1.00  0.00    -0.178 N 
HETATM   15  N4  UNL     1      24.677 -46.831   2.318  1.00  0.00    -0.081 NA
HETATM   16  C2  UNL     1      21.422 -47.776   1.029  1.00  0.00     0.681 A 
ATOM     17  H3  UNL     1      22.933 -46.505   0.485  1.00  0.00     0.185 HD
HETATM   18  N1  UNL     1      21.015 -48.680   1.936  1.00  0.00    -0.152 N 
HETATM   19  C1  UNL     1      19.725 -49.317   1.787  1.00  0.00     0.179 C 
HETATM   20  C11 UNL     1      21.780 -49.015   2.984  1.00  0.00     0.271 A 
HETATM   21  O3  UNL     1      21.337 -49.873   3.799  1.00  0.00    -0.267 OA
BRANCH  16  22
HETATM   22  N2  UNL     1      20.653 -47.471   0.016  1.00  0.00    -0.234 N 
ATOM     23  H22 UNL     1      21.052 -47.081  -0.837  1.00  0.00     0.174 HD
ATOM     24  H21 UNL     1      19.645 -47.620   0.075  1.00  0.00     0.174 HD
ENDBRANCH  16  22
ENDBRANCH  11  12
ENDBRANCH   1  11
BRANCH   5  25
HETATM   25  N7  UNL     1      22.921 -48.097   9.767  1.00  0.00    -0.285 N 
ATOM     26  H7  UNL     1      23.271 -49.046   9.638  1.00  0.00     0.188 HD
BRANCH  25  27
HETATM   27  N8  UNL     1      22.144 -47.755  10.867  1.00  0.00    -0.343 N 
ATOM     28  H82 UNL     1      22.386 -48.095  11.798  1.00  0.00     0.176 HD
ATOM     29  H81 UNL     1      21.336 -47.157  10.697  1.00  0.00     0.176 HD
ENDBRANCH  25  27
ENDBRANCH   5  25
BRANCH   7  30
HETATM   30  C9  UNL     1      23.919 -43.644   7.040  1.00  0.00     0.285 C 
HETATM   31  O1  UNL     1      23.762 -42.716   7.917  1.00  0.00    -0.265 OA
HETATM   32  N9  UNL     1      24.298 -43.257   5.770  1.00  0.00    -0.233 N 
ATOM     33  H9  UNL     1      24.430 -43.956   5.040  1.00  0.00     0.197 HD
BRANCH  32  34
HETATM   34  O2  UNL     1      24.497 -41.924   5.494  1.00  0.00    -0.287 OA
ATOM     35  H2  UNL     1      24.667 -41.648   4.601  1.00  0.00     0.244 HD
ENDBRANCH  32  34
ENDBRANCH   7  30
TORSDOF 7
ENDMDL
MODEL 4
REMARK VINA RESULT: -6.798354306      1.254      1.893
REMARK  7 active torsions:
REMARK  status: ('A' for Active; 'I' for Inactive)
REMARK    1  A    between atoms: C2_3  and  N2_4 
REMARK    2  A    between atoms: C4_11  and  C5_12 
REMARK    3  A    between atoms: C5_12  and  C6_13 
REMARK    4  A    between atoms: C7_17  and  N7_18 
REMARK    5  A    between atoms: N7_18  and  N8_20 
REMARK    6  A    between atoms: C8_24  and  C9_25 
REMARK       I    between atoms: C9_25  and  N9_27 
REMARK    7  A    between atoms: N9_27  and  O2_29 
ROOT
HETATM    1  C6  UNL     1      23.976 -47.523   5.105  1.00  0.00     0.102 A 
HETATM    2  N5  UNL     1      23.650 -48.065   6.287  1.00  0.00    -0.278 N 
ATOM      3  H5  UNL     1      23.525 -49.063   6.460  1.00  0.00     0.189 HD
HETATM    4  N6  UNL     1      23.511 -47.086   7.222  1.00  0.00    -0.213 N 
HETATM    5  C7  UNL     1      23.200 -47.106   8.528  1.00  0.00     0.187 A 
HETATM    6  S1  UNL     1      23.240 -45.466   8.953  1.00  0.00    -0.041 SA
HETATM    7  C8  UNL     1      23.665 -44.804   7.397  1.00  0.00     0.124 A 
HETATM    8  C10 UNL     1      23.744 -45.949   6.647  1.00  0.00     0.154 A 
HETATM    9  N10 UNL     1      24.034 -46.220   5.323  1.00  0.00    -0.328 N 
ATOM     10  H10 UNL     1      24.260 -45.518   4.618  1.00  0.00     0.169 HD
ENDROOT
BRANCH   1  11
HETATM   11  C5  UNL     1      24.214 -48.213   3.814  1.00  0.00     0.126 C 
BRANCH  11  12
HETATM   12  C4  UNL     1      25.032 -47.497   2.853  1.00  0.00     0.059 A 
HETATM   13  C3  UNL     1      26.348 -47.195   3.083  1.00  0.00     0.144 A 
HETATM   14  N3  UNL     1      27.087 -46.534   2.134  1.00  0.00    -0.178 N 
HETATM   15  N4  UNL     1      27.005 -47.529   4.297  1.00  0.00    -0.081 NA
HETATM   16  C2  UNL     1      26.534 -46.171   0.967  1.00  0.00     0.681 A 
ATOM     17  H3  UNL     1      28.066 -46.316   2.319  1.00  0.00     0.185 HD
HETATM   18  N1  UNL     1      25.243 -46.460   0.729  1.00  0.00    -0.152 N 
HETATM   19  C1  UNL     1      24.641 -46.074  -0.528  1.00  0.00     0.179 C 
HETATM   20  C11 UNL     1      24.491 -47.105   1.630  1.00  0.00     0.271 A 
HETATM   21  O3  UNL     1      23.285 -47.346   1.342  1.00  0.00    -0.267 OA
BRANCH  16  22
HETATM   22  N2  UNL     1      27.242 -45.540   0.067  1.00  0.00    -0.234 N 
ATOM     23  H22 UNL     1      27.551 -46.021  -0.778  1.00  0.00     0.174 HD
ATOM     24  H21 UNL     1      27.491 -44.560   0.205  1.00  0.00     0.174 HD
ENDBRANCH  16  22
ENDBRANCH  11  12
ENDBRANCH   1  11
BRANCH   5  25
HETATM   25  N7  UNL     1      22.932 -48.163   9.266  1.00  0.00    -0.285 N 
ATOM     26  H7  UNL     1      23.059 -49.109   8.908  1.00  0.00     0.188 HD
BRANCH  25  27
HETATM   27  N8  UNL     1      22.469 -47.933  10.556  1.00  0.00    -0.343 N 
ATOM     28  H82 UNL     1      23.051 -47.446  11.237  1.00  0.00     0.176 HD
ATOM     29  H81 UNL     1      21.533 -48.271  10.780  1.00  0.00     0.176 HD
ENDBRANCH  25  27
ENDBRANCH   5  25
BRANCH   7  30
HETATM   30  C9  UNL     1      23.868 -43.392   7.117  1.00  0.00     0.285 C 
HETATM   31  O1  UNL     1      23.702 -42.584   8.104  1.00  0.00    -0.265 OA
HETATM   32  N9  UNL     1      24.218 -42.840   5.900  1.00  0.00    -0.233 N 
ATOM     33  H9  UNL     1      24.356 -43.440   5.087  1.00  0.00     0.197 HD
BRANCH  32  34
HETATM   34  O2  UNL     1      24.380 -41.479   5.789  1.00  0.00    -0.287 OA
ATOM     35  H2  UNL     1      25.234 -41.092   5.941  1.00  0.00     0.244 HD
ENDBRANCH  32  34
ENDBRANCH   7  30
TORSDOF 7
ENDMDL
MODEL 5
REMARK VINA RESULT: -6.765502490      3.202      5.955
REMARK  7 active torsions:
REMARK  status: ('A' for Active; 'I' for Inactive)
REMARK    1  A    between atoms: C2_3  and  N2_4 
REMARK    2  A    between atoms: C4_11  and  C5_12 
REMARK    3  A    between atoms: C5_12  and  C6_13 
REMARK    4  A    between atoms: C7_17  and  N7_18 
REMARK    5  A    between atoms: N7_18  and  N8_20 
REMARK    6  A    between atoms: C8_24  and  C9_25 
REMARK       I    between atoms: C9_25  and  N9_27 
REMARK    7  A    between atoms: N9_27  and  O2_29 
ROOT
HETATM    1  C6  UNL     1      24.011 -43.713   5.980  1.00  0.00     0.102 A 
HETATM    2  N5  UNL     1      23.440 -44.846   6.413  1.00  0.00    -0.278 N 
ATOM      3  H5  UNL     1      22.689 -44.899   7.102  1.00  0.00     0.189 HD
HETATM    4  N6  UNL     1      24.011 -45.917   5.796  1.00  0.00    -0.213 N 
HETATM    5  C7  UNL     1      23.801 -47.240   5.879  1.00  0.00     0.187 A 
HETATM    6  S1  UNL     1      24.927 -47.873   4.783  1.00  0.00    -0.041 SA
HETATM    7  C8  UNL     1      25.641 -46.375   4.248  1.00  0.00     0.124 A 
HETATM    8  C10 UNL     1      24.923 -45.473   4.989  1.00  0.00     0.154 A 
HETATM    9  N10 UNL     1      24.925 -44.095   5.104  1.00  0.00    -0.328 N 
ATOM     10  H10 UNL     1      25.541 -43.466   4.588  1.00  0.00     0.169 HD
ENDROOT
BRANCH   1  11
HETATM   11  C5  UNL     1      23.709 -42.320   6.389  1.00  0.00     0.126 C 
BRANCH  11  12
HETATM   12  C4  UNL     1      23.024 -41.505   5.404  1.00  0.00     0.059 A 
HETATM   13  C3  UNL     1      21.663 -41.350   5.389  1.00  0.00     0.144 A 
HETATM   14  N3  UNL     1      21.062 -40.552   4.449  1.00  0.00    -0.178 N 
HETATM   15  N4  UNL     1      20.813 -42.007   6.318  1.00  0.00    -0.081 NA
HETATM   16  C2  UNL     1      21.795 -39.909   3.527  1.00  0.00     0.681 A 
ATOM     17  H3  UNL     1      20.048 -40.446   4.450  1.00  0.00     0.185 HD
HETATM   18  N1  UNL     1      23.132 -40.052   3.529  1.00  0.00    -0.152 N 
HETATM   19  C1  UNL     1      23.930 -39.361   2.541  1.00  0.00     0.179 C 
HETATM   20  C11 UNL     1      23.754 -40.822   4.432  1.00  0.00     0.271 A 
HETATM   21  O3  UNL     1      25.013 -40.912   4.378  1.00  0.00    -0.267 OA
BRANCH  16  22
HETATM   22  N2  UNL     1      21.218 -39.150   2.633  1.00  0.00    -0.234 N 
ATOM     23  H22 UNL     1      21.339 -38.138   2.659  1.00  0.00     0.174 HD
ATOM     24  H21 UNL     1      20.641 -39.567   1.902  1.00  0.00     0.174 HD
ENDBRANCH  16  22
ENDBRANCH  11  12
ENDBRANCH   1  11
BRANCH   5  25
HETATM   25  N7  UNL     1      22.924 -47.860   6.642  1.00  0.00    -0.285 N 
ATOM     26  H7  UNL     1      22.104 -48.318   6.246  1.00  0.00     0.188 HD
BRANCH  25  27
HETATM   27  N8  UNL     1      23.166 -47.864   8.010  1.00  0.00    -0.343 N 
ATOM     28  H82 UNL     1      23.057 -48.721   8.553  1.00  0.00     0.176 HD
ATOM     29  H81 UNL     1      23.454 -46.982   8.434  1.00  0.00     0.176 HD
ENDBRANCH  25  27
ENDBRANCH   5  25
BRANCH   7  30
HETATM   30  C9  UNL     1      26.699 -46.261   3.257  1.00  0.00     0.285 C 
HETATM   31  O1  UNL     1      26.389 -46.580   2.050  1.00  0.00    -0.265 OA
HETATM   32  N9  UNL     1      27.996 -45.846   3.489  1.00  0.00    -0.233 N 
ATOM     33  H9  UNL     1      28.290 -45.588   4.430  1.00  0.00     0.197 HD
BRANCH  32  34
HETATM   34  O2  UNL     1      28.889 -45.784   2.444  1.00  0.00    -0.287 OA
ATOM     35  H2  UNL     1      29.364 -46.564   2.184  1.00  0.00     0.244 HD
ENDBRANCH  32  34
ENDBRANCH   7  30
TORSDOF 7
ENDMDL
