MODEL 1
REMARK VINA RESULT: -7.217095222      0.000      0.000
REMARK  8 active torsions:
REMARK  status: ('A' for Active; 'I' for Inactive)
REMARK    1  A    between atoms: O1_2  and  C2_3 
REMARK    2  A    between atoms: C6_7  and  C7_8 
REMARK    3  A    between atoms: N1_9  and  N2_11 
REMARK    4  A    between atoms: N2_11  and  C8_13 
REMARK    5  A    between atoms: C8_13  and  N3_15 
REMARK    6  A    between atoms: N3_15  and  C9_17 
REMARK    7  A    between atoms: C9_17  and  C10_18 
REMARK    8  A    between atoms: C10_18  and  N4_19 
ROOT
HETATM    1  N2  UNL     1      31.828  15.416  13.819  1.00  0.00    -0.277 N 
ATOM      2  H2  UNL     1      32.309  14.797  14.472  1.00  0.00     0.189 HD
ENDROOT
BRANCH   1   3
HETATM    3  N1  UNL     1      30.773  14.935  13.067  1.00  0.00    -0.309 N 
HETATM    4  C7  UNL     1      29.683  15.562  12.836  1.00  0.00     0.118 C 
ATOM      5  H1  UNL     1      30.871  14.003  12.665  1.00  0.00     0.186 HD
BRANCH   4   6
HETATM    6  C6  UNL     1      28.659  14.923  12.024  1.00  0.00    -0.017 A 
HETATM    7  C5  UNL     1      28.067  15.606  10.984  1.00  0.00     0.013 A 
HETATM    8  C4  UNL     1      27.091  15.042  10.185  1.00  0.00     0.004 A 
HETATM    9  C3  UNL     1      26.741  13.747  10.491  1.00  0.00     0.037 A 
HETATM   10  C2  UNL     1      27.314  13.028  11.530  1.00  0.00     0.069 A 
HETATM   11  C11 UNL     1      28.280  13.637  12.293  1.00  0.00     0.049 A 
BRANCH  10  12
HETATM   12  O1  UNL     1      26.921  11.701  11.803  1.00  0.00    -0.356 OA
HETATM   13  C1  UNL     1      27.934  10.833  12.267  1.00  0.00     0.210 C 
ENDBRANCH  10  12
ENDBRANCH   4   6
ENDBRANCH   1   3
BRANCH   1  14
HETATM   14  C8  UNL     1      32.244  16.754  13.688  1.00  0.00     0.186 C 
HETATM   15  S1  UNL     1      31.918  17.810  14.873  1.00  0.00    -0.040 SA
BRANCH  14  16
HETATM   16  N3  UNL     1      32.942  17.172  12.533  1.00  0.00    -0.364 N 
ATOM     17  H3  UNL     1      32.749  16.715  11.642  1.00  0.00     0.162 HD
BRANCH  16  18
HETATM   18  C9  UNL     1      33.919  18.226  12.585  1.00  0.00     0.149 C 
BRANCH  18  19
HETATM   19  C10 UNL     1      33.528  19.314  11.642  1.00  0.00     0.249 C 
BRANCH  19  20
HETATM   20  N4  UNL     1      33.107  20.522  12.288  1.00  0.00    -0.078 N 
ATOM     21  H43 UNL     1      33.127  21.304  11.633  1.00  0.00     0.274 HD
ATOM     22  H42 UNL     1      32.108  20.491  12.489  1.00  0.00     0.274 HD
ATOM     23  H41 UNL     1      33.634  20.748  13.132  1.00  0.00     0.274 HD
ENDBRANCH  19  20
ENDBRANCH  18  19
ENDBRANCH  16  18
ENDBRANCH  14  16
ENDBRANCH   1  14
TORSDOF 8
ENDMDL
MODEL 2
REMARK VINA RESULT: -7.069425464      3.817      6.703
REMARK  8 active torsions:
REMARK  status: ('A' for Active; 'I' for Inactive)
REMARK    1  A    between atoms: O1_2  and  C2_3 
REMARK    2  A    between atoms: C6_7  and  C7_8 
REMARK    3  A    between atoms: N1_9  and  N2_11 
REMARK    4  A    between atoms: N2_11  and  C8_13 
REMARK    5  A    between atoms: C8_13  and  N3_15 
REMARK    6  A    between atoms: N3_15  and  C9_17 
REMARK    7  A    between atoms: C9_17  and  C10_18 
REMARK    8  A    between atoms: C10_18  and  N4_19 
ROOT
HETATM    1  N2  UNL     1      29.607  12.969  11.303  1.00  0.00    -0.277 N 
ATOM      2  H2  UNL     1      30.015  12.804  10.383  1.00  0.00     0.189 HD
ENDROOT
BRANCH   1   3
HETATM    3  N1  UNL     1      30.207  13.863  12.170  1.00  0.00    -0.309 N 
HETATM    4  C7  UNL     1      29.724  14.994  12.517  1.00  0.00     0.118 C 
ATOM      5  H1  UNL     1      31.108  13.597  12.566  1.00  0.00     0.186 HD
BRANCH   4   6
HETATM    6  C6  UNL     1      30.475  15.829  13.443  1.00  0.00    -0.017 A 
HETATM    7  C5  UNL     1      30.842  15.343  14.678  1.00  0.00     0.013 A 
HETATM    8  C4  UNL     1      31.555  16.095  15.591  1.00  0.00     0.004 A 
HETATM    9  C3  UNL     1      31.880  17.372  15.191  1.00  0.00     0.037 A 
HETATM   10  C2  UNL     1      31.528  17.895  13.956  1.00  0.00     0.069 A 
HETATM   11  C11 UNL     1      30.818  17.103  13.087  1.00  0.00     0.049 A 
BRANCH  10  12
HETATM   12  O1  UNL     1      31.885  19.211  13.592  1.00  0.00    -0.356 OA
HETATM   13  C1  UNL     1      33.035  19.344  12.783  1.00  0.00     0.210 C 
ENDBRANCH  10  12
ENDBRANCH   4   6
ENDBRANCH   1   3
BRANCH   1  14
HETATM   14  C8  UNL     1      28.435  12.286  11.680  1.00  0.00     0.186 C 
HETATM   15  S1  UNL     1      28.552  10.894  12.499  1.00  0.00    -0.040 SA
BRANCH  14  16
HETATM   16  N3  UNL     1      27.167  12.813  11.348  1.00  0.00    -0.364 N 
ATOM     17  H3  UNL     1      26.374  12.627  11.960  1.00  0.00     0.162 HD
BRANCH  16  18
HETATM   18  C9  UNL     1      26.969  13.607  10.165  1.00  0.00     0.149 C 
BRANCH  18  19
HETATM   19  C10 UNL     1      26.617  15.003  10.555  1.00  0.00     0.249 C 
BRANCH  19  20
HETATM   20  N4  UNL     1      27.631  15.968  10.247  1.00  0.00    -0.078 N 
ATOM     21  H43 UNL     1      27.386  16.881  10.631  1.00  0.00     0.274 HD
ATOM     22  H42 UNL     1      28.479  15.779  10.780  1.00  0.00     0.274 HD
ATOM     23  H41 UNL     1      27.844  16.044   9.252  1.00  0.00     0.274 HD
ENDBRANCH  19  20
ENDBRANCH  18  19
ENDBRANCH  16  18
ENDBRANCH  14  16
ENDBRANCH   1  14
TORSDOF 8
ENDMDL
MODEL 3
REMARK VINA RESULT: -7.011904962      1.505      1.601
REMARK  8 active torsions:
REMARK  status: ('A' for Active; 'I' for Inactive)
REMARK    1  A    between atoms: O1_2  and  C2_3 
REMARK    2  A    between atoms: C6_7  and  C7_8 
REMARK    3  A    between atoms: N1_9  and  N2_11 
REMARK    4  A    between atoms: N2_11  and  C8_13 
REMARK    5  A    between atoms: C8_13  and  N3_15 
REMARK    6  A    between atoms: N3_15  and  C9_17 
REMARK    7  A    between atoms: C9_17  and  C10_18 
REMARK    8  A    between atoms: C10_18  and  N4_19 
ROOT
HETATM    1  N2  UNL     1      31.267  17.293  13.985  1.00  0.00    -0.277 N 
ATOM      2  H2  UNL     1      31.218  17.213  15.001  1.00  0.00     0.189 HD
ENDROOT
BRANCH   1   3
HETATM    3  N1  UNL     1      30.302  16.690  13.201  1.00  0.00    -0.309 N 
HETATM    4  C7  UNL     1      30.087  15.432  13.129  1.00  0.00     0.118 C 
ATOM      5  H1  UNL     1      29.712  17.300  12.634  1.00  0.00     0.186 HD
BRANCH   4   6
HETATM    6  C6  UNL     1      29.030  14.946  12.255  1.00  0.00    -0.017 A 
HETATM    7  C5  UNL     1      28.604  15.705  11.187  1.00  0.00     0.013 A 
HETATM    8  C4  UNL     1      27.604  15.287  10.330  1.00  0.00     0.004 A 
HETATM    9  C3  UNL     1      27.053  14.057  10.608  1.00  0.00     0.037 A 
HETATM   10  C2  UNL     1      27.455  13.265  11.674  1.00  0.00     0.069 A 
HETATM   11  C11 UNL     1      28.453  13.730  12.495  1.00  0.00     0.049 A 
BRANCH  10  12
HETATM   12  O1  UNL     1      26.858  12.010  11.917  1.00  0.00    -0.356 OA
HETATM   13  C1  UNL     1      27.742  10.931  12.140  1.00  0.00     0.210 C 
ENDBRANCH  10  12
ENDBRANCH   4   6
ENDBRANCH   1   3
BRANCH   1  14
HETATM   14  C8  UNL     1      32.319  18.016  13.391  1.00  0.00     0.186 C 
HETATM   15  S1  UNL     1      33.389  17.243  12.454  1.00  0.00    -0.040 SA
BRANCH  14  16
HETATM   16  N3  UNL     1      32.437  19.406  13.611  1.00  0.00    -0.364 N 
ATOM     17  H3  UNL     1      31.875  19.845  14.341  1.00  0.00     0.162 HD
BRANCH  16  18
HETATM   18  C9  UNL     1      33.332  20.218  12.831  1.00  0.00     0.149 C 
BRANCH  18  19
HETATM   19  C10 UNL     1      34.388  20.787  13.716  1.00  0.00     0.249 C 
BRANCH  19  20
HETATM   20  N4  UNL     1      34.479  22.217  13.671  1.00  0.00    -0.078 N 
ATOM     21  H43 UNL     1      34.226  22.563  12.745  1.00  0.00     0.274 HD
ATOM     22  H42 UNL     1      33.734  22.641  14.223  1.00  0.00     0.274 HD
ATOM     23  H41 UNL     1      35.387  22.585  13.954  1.00  0.00     0.274 HD
ENDBRANCH  19  20
ENDBRANCH  18  19
ENDBRANCH  16  18
ENDBRANCH  14  16
ENDBRANCH   1  14
TORSDOF 8
ENDMDL
MODEL 4
REMARK VINA RESULT: -6.876433991      3.714      6.696
REMARK  8 active torsions:
REMARK  status: ('A' for Active; 'I' for Inactive)
REMARK    1  A    between atoms: O1_2  and  C2_3 
REMARK    2  A    between atoms: C6_7  and  C7_8 
REMARK    3  A    between atoms: N1_9  and  N2_11 
REMARK    4  A    between atoms: N2_11  and  C8_13 
REMARK    5  A    between atoms: C8_13  and  N3_15 
REMARK    6  A    between atoms: N3_15  and  C9_17 
REMARK    7  A    between atoms: C9_17  and  C10_18 
REMARK    8  A    between atoms: C10_18  and  N4_19 
ROOT
HETATM    1  N2  UNL     1      29.759  13.047  13.114  1.00  0.00    -0.277 N 
ATOM      2  H2  UNL     1      29.842  12.377  13.879  1.00  0.00     0.189 HD
ENDROOT
BRANCH   1   3
HETATM    3  N1  UNL     1      30.477  14.227  13.155  1.00  0.00    -0.309 N 
HETATM    4  C7  UNL     1      30.636  14.961  14.190  1.00  0.00     0.118 C 
ATOM      5  H1  UNL     1      30.917  14.538  12.289  1.00  0.00     0.186 HD
BRANCH   4   6
HETATM    6  C6  UNL     1      31.422  16.180  14.077  1.00  0.00    -0.017 A 
HETATM    7  C5  UNL     1      31.533  17.040  15.149  1.00  0.00     0.013 A 
HETATM    8  C4  UNL     1      32.267  18.208  15.091  1.00  0.00     0.004 A 
HETATM    9  C3  UNL     1      32.887  18.467  13.889  1.00  0.00     0.037 A 
HETATM   10  C2  UNL     1      32.798  17.626  12.790  1.00  0.00     0.069 A 
HETATM   11  C11 UNL     1      32.055  16.477  12.902  1.00  0.00     0.049 A 
BRANCH  10  12
HETATM   12  O1  UNL     1      33.454  17.936  11.579  1.00  0.00    -0.356 OA
HETATM   13  C1  UNL     1      33.820  19.287  11.396  1.00  0.00     0.210 C 
ENDBRANCH  10  12
ENDBRANCH   4   6
ENDBRANCH   1   3
BRANCH   1  14
HETATM   14  C8  UNL     1      28.915  12.764  12.024  1.00  0.00     0.186 C 
HETATM   15  S1  UNL     1      27.902  11.503  12.107  1.00  0.00    -0.040 SA
BRANCH  14  16
HETATM   16  N3  UNL     1      28.951  13.575  10.868  1.00  0.00    -0.364 N 
ATOM     17  H3  UNL     1      29.805  14.085  10.644  1.00  0.00     0.162 HD
BRANCH  16  18
HETATM   18  C9  UNL     1      27.811  13.698  10.000  1.00  0.00     0.149 C 
BRANCH  18  19
HETATM   19  C10 UNL     1      26.967  14.843  10.445  1.00  0.00     0.249 C 
BRANCH  19  20
HETATM   20  N4  UNL     1      27.634  16.111  10.402  1.00  0.00    -0.078 N 
ATOM     21  H43 UNL     1      27.209  16.716   9.699  1.00  0.00     0.274 HD
ATOM     22  H42 UNL     1      27.429  16.652  11.242  1.00  0.00     0.274 HD
ATOM     23  H41 UNL     1      28.642  16.045  10.256  1.00  0.00     0.274 HD
ENDBRANCH  19  20
ENDBRANCH  18  19
ENDBRANCH  16  18
ENDBRANCH  14  16
ENDBRANCH   1  14
TORSDOF 8
ENDMDL
MODEL 5
REMARK VINA RESULT: -6.825912135      3.865      7.212
REMARK  8 active torsions:
REMARK  status: ('A' for Active; 'I' for Inactive)
REMARK    1  A    between atoms: O1_2  and  C2_3 
REMARK    2  A    between atoms: C6_7  and  C7_8 
REMARK    3  A    between atoms: N1_9  and  N2_11 
REMARK    4  A    between atoms: N2_11  and  C8_13 
REMARK    5  A    between atoms: C8_13  and  N3_15 
REMARK    6  A    between atoms: N3_15  and  C9_17 
REMARK    7  A    between atoms: C9_17  and  C10_18 
REMARK    8  A    between atoms: C10_18  and  N4_19 
ROOT
HETATM    1  N2  UNL     1      27.465  15.172  11.126  1.00  0.00    -0.277 N 
ATOM      2  H2  UNL     1      26.750  15.760  10.695  1.00  0.00     0.189 HD
ENDROOT
BRANCH   1   3
HETATM    3  N1  UNL     1      28.368  15.727  12.013  1.00  0.00    -0.309 N 
HETATM    4  C7  UNL     1      29.427  15.155  12.444  1.00  0.00     0.118 C 
ATOM      5  H1  UNL     1      28.174  16.670  12.350  1.00  0.00     0.186 HD
BRANCH   4   6
HETATM    6  C6  UNL     1      30.283  15.869  13.379  1.00  0.00    -0.017 A 
HETATM    7  C5  UNL     1      30.709  15.260  14.539  1.00  0.00     0.013 A 
HETATM    8  C4  UNL     1      31.522  15.896  15.458  1.00  0.00     0.004 A 
HETATM    9  C3  UNL     1      31.885  17.186  15.143  1.00  0.00     0.037 A 
HETATM   10  C2  UNL     1      31.477  17.832  13.986  1.00  0.00     0.069 A 
HETATM   11  C11 UNL     1      30.668  17.153  13.107  1.00  0.00     0.049 A 
BRANCH  10  12
HETATM   12  O1  UNL     1      31.877  19.156  13.708  1.00  0.00    -0.356 OA
HETATM   13  C1  UNL     1      33.049  19.304  12.934  1.00  0.00     0.210 C 
ENDBRANCH  10  12
ENDBRANCH   4   6
ENDBRANCH   1   3
BRANCH   1  14
HETATM   14  C8  UNL     1      27.524  13.801  10.813  1.00  0.00     0.186 C 
HETATM   15  S1  UNL     1      28.423  13.307   9.560  1.00  0.00    -0.040 SA
BRANCH  14  16
HETATM   16  N3  UNL     1      26.804  12.864  11.587  1.00  0.00    -0.364 N 
ATOM     17  H3  UNL     1      26.003  13.180  12.134  1.00  0.00     0.162 HD
BRANCH  16  18
HETATM   18  C9  UNL     1      27.173  11.475  11.621  1.00  0.00     0.149 C 
BRANCH  18  19
HETATM   19  C10 UNL     1      28.138  11.244  12.734  1.00  0.00     0.249 C 
BRANCH  19  20
HETATM   20  N4  UNL     1      29.012  10.126  12.526  1.00  0.00    -0.078 N 
ATOM     21  H43 UNL     1      29.736  10.359  11.846  1.00  0.00     0.274 HD
ATOM     22  H42 UNL     1      29.593   9.968  13.349  1.00  0.00     0.274 HD
ATOM     23  H41 UNL     1      28.531   9.268  12.257  1.00  0.00     0.274 HD
ENDBRANCH  19  20
ENDBRANCH  18  19
ENDBRANCH  16  18
ENDBRANCH  14  16
ENDBRANCH   1  14
TORSDOF 8
ENDMDL
