MODEL 1
REMARK VINA RESULT: -6.518088650      0.000      0.000
REMARK  7 active torsions:
REMARK  status: ('A' for Active; 'I' for Inactive)
REMARK    1  A    between atoms: C2_2  and  N1_3 
REMARK    2  A    between atoms: C2_2  and  C3_7 
REMARK    3  A    between atoms: C3_7  and  N2_8 
REMARK    4  A    between atoms: N2_8  and  C4_10 
REMARK    5  A    between atoms: C9_15  and  C10_16 
REMARK    6  A    between atoms: C11_17  and  S1_18 
REMARK    7  A    between atoms: S1_18  and  N3_19 
ROOT
HETATM    1  C4  UNL     1      28.094  14.139  12.156  1.00  0.00     0.038 A 
HETATM    2  C5  UNL     1      26.991  13.928  11.345  1.00  0.00     0.030 A 
HETATM    3  C6  UNL     1      26.706  14.824  10.339  1.00  0.00     0.002 A 
HETATM    4  C7  UNL     1      27.487  15.929  10.112  1.00  0.00     0.001 A 
HETATM    5  C8  UNL     1      28.586  16.112  10.944  1.00  0.00     0.014 A 
HETATM    6  C9  UNL     1      28.898  15.229  11.962  1.00  0.00    -0.009 A 
ENDROOT
BRANCH   1   7
HETATM    7  N2  UNL     1      28.353  13.222  13.204  1.00  0.00    -0.387 N 
ATOM      8  H2  UNL     1      28.935  13.542  13.979  1.00  0.00     0.159 HD
BRANCH   7   9
HETATM    9  C3  UNL     1      27.852  11.865  13.255  1.00  0.00     0.152 C 
BRANCH   9  10
HETATM   10  C2  UNL     1      28.234  11.068  12.031  1.00  0.00     0.197 C 
HETATM   11  C1  UNL     1      29.037   9.858  12.540  1.00  0.00     0.041 C 
BRANCH  10  12
HETATM   12  N1  UNL     1      27.008  10.559  11.446  1.00  0.00    -0.074 N 
ATOM     13  H13 UNL     1      27.157   9.734  10.865  1.00  0.00     0.274 HD
ATOM     14  H12 UNL     1      26.389  10.128  12.132  1.00  0.00     0.274 HD
ATOM     15  H11 UNL     1      26.569  11.329  10.941  1.00  0.00     0.274 HD
ENDBRANCH  10  12
ENDBRANCH   9  10
ENDBRANCH   7   9
ENDBRANCH   1   7
BRANCH   6  16
HETATM   16  C10 UNL     1      30.071  15.519  12.761  1.00  0.00     0.027 C 
HETATM   17  C11 UNL     1      30.483  16.708  13.137  1.00  0.00     0.132 C 
BRANCH  17  18
HETATM   18  S1  UNL     1      31.941  16.912  14.116  1.00  0.00     0.246 S 
HETATM   19  O1  UNL     1      33.128  16.884  13.213  1.00  0.00    -0.202 OA
HETATM   20  O2  UNL     1      32.083  15.798  15.110  1.00  0.00    -0.202 OA
BRANCH  18  21
HETATM   21  N3  UNL     1      31.826  18.411  14.968  1.00  0.00    -0.325 N 
ATOM     22  H32 UNL     1      31.136  19.138  14.779  1.00  0.00     0.169 HD
ATOM     23  H31 UNL     1      32.557  18.438  15.678  1.00  0.00     0.169 HD
ENDBRANCH  18  21
ENDBRANCH  17  18
ENDBRANCH   6  16
TORSDOF 7
ENDMDL
MODEL 2
REMARK VINA RESULT: -6.209553499      3.664      5.395
REMARK  7 active torsions:
REMARK  status: ('A' for Active; 'I' for Inactive)
REMARK    1  A    between atoms: C2_2  and  N1_3 
REMARK    2  A    between atoms: C2_2  and  C3_7 
REMARK    3  A    between atoms: C3_7  and  N2_8 
REMARK    4  A    between atoms: N2_8  and  C4_10 
REMARK    5  A    between atoms: C9_15  and  C10_16 
REMARK    6  A    between atoms: C11_17  and  S1_18 
REMARK    7  A    between atoms: S1_18  and  N3_19 
ROOT
HETATM    1  C4  UNL     1      29.695  16.036  12.872  1.00  0.00     0.038 A 
HETATM    2  C5  UNL     1      30.478  17.127  13.211  1.00  0.00     0.030 A 
HETATM    3  C6  UNL     1      31.379  17.021  14.246  1.00  0.00     0.002 A 
HETATM    4  C7  UNL     1      31.528  15.858  14.960  1.00  0.00     0.001 A 
HETATM    5  C8  UNL     1      30.727  14.782  14.595  1.00  0.00     0.014 A 
HETATM    6  C9  UNL     1      29.814  14.858  13.560  1.00  0.00    -0.009 A 
ENDROOT
BRANCH   1   7
HETATM    7  N2  UNL     1      28.753  16.173  11.823  1.00  0.00    -0.387 N 
ATOM      8  H2  UNL     1      28.965  16.840  11.080  1.00  0.00     0.159 HD
BRANCH   7   9
HETATM    9  C3  UNL     1      27.511  15.435  11.729  1.00  0.00     0.152 C 
BRANCH   9  10
HETATM   10  C2  UNL     1      27.213  14.995  10.316  1.00  0.00     0.197 C 
HETATM   11  C1  UNL     1      28.552  14.524   9.721  1.00  0.00     0.041 C 
BRANCH  10  12
HETATM   12  N1  UNL     1      26.344  13.836  10.398  1.00  0.00    -0.074 N 
ATOM     13  H13 UNL     1      26.391  13.367  11.302  1.00  0.00     0.274 HD
ATOM     14  H12 UNL     1      25.355  14.081  10.427  1.00  0.00     0.274 HD
ATOM     15  H11 UNL     1      26.580  13.223   9.617  1.00  0.00     0.274 HD
ENDBRANCH  10  12
ENDBRANCH   9  10
ENDBRANCH   7   9
ENDBRANCH   1   7
BRANCH   6  16
HETATM   16  C10 UNL     1      29.037  13.671  13.264  1.00  0.00     0.027 C 
HETATM   17  C11 UNL     1      29.431  12.642  12.550  1.00  0.00     0.132 C 
BRANCH  17  18
HETATM   18  S1  UNL     1      28.371  11.254  12.269  1.00  0.00     0.246 S 
HETATM   19  O1  UNL     1      27.758  11.389  10.916  1.00  0.00    -0.202 OA
HETATM   20  O2  UNL     1      27.265  11.208  13.281  1.00  0.00    -0.202 OA
BRANCH  18  21
HETATM   21  N3  UNL     1      29.310   9.810  12.400  1.00  0.00    -0.325 N 
ATOM     22  H32 UNL     1      30.090   9.562  11.790  1.00  0.00     0.169 HD
ATOM     23  H31 UNL     1      28.953   9.259  13.181  1.00  0.00     0.169 HD
ENDBRANCH  18  21
ENDBRANCH  17  18
ENDBRANCH   6  16
TORSDOF 7
ENDMDL
MODEL 3
REMARK VINA RESULT: -5.870986459      6.455      8.524
REMARK  7 active torsions:
REMARK  status: ('A' for Active; 'I' for Inactive)
REMARK    1  A    between atoms: C2_2  and  N1_3 
REMARK    2  A    between atoms: C2_2  and  C3_7 
REMARK    3  A    between atoms: C3_7  and  N2_8 
REMARK    4  A    between atoms: N2_8  and  C4_10 
REMARK    5  A    between atoms: C9_15  and  C10_16 
REMARK    6  A    between atoms: C11_17  and  S1_18 
REMARK    7  A    between atoms: S1_18  and  N3_19 
ROOT
HETATM    1  C4  UNL     1      34.607  18.617  11.476  1.00  0.00     0.038 A 
HETATM    2  C5  UNL     1      35.319  17.538  11.973  1.00  0.00     0.030 A 
HETATM    3  C6  UNL     1      36.420  17.076  11.287  1.00  0.00     0.002 A 
HETATM    4  C7  UNL     1      36.838  17.656  10.116  1.00  0.00     0.001 A 
HETATM    5  C8  UNL     1      36.101  18.736   9.643  1.00  0.00     0.014 A 
HETATM    6  C9  UNL     1      34.992  19.222  10.310  1.00  0.00    -0.009 A 
ENDROOT
BRANCH   1   7
HETATM    7  N2  UNL     1      33.460  19.058  12.179  1.00  0.00    -0.387 N 
ATOM      8  H2  UNL     1      32.719  19.509  11.642  1.00  0.00     0.159 HD
BRANCH   7   9
HETATM    9  C3  UNL     1      33.264  18.917  13.607  1.00  0.00     0.152 C 
BRANCH   9  10
HETATM   10  C2  UNL     1      31.993  18.173  13.939  1.00  0.00     0.197 C 
HETATM   11  C1  UNL     1      32.057  16.846  13.161  1.00  0.00     0.041 C 
BRANCH  10  12
HETATM   12  N1  UNL     1      32.037  17.849  15.352  1.00  0.00    -0.074 N 
ATOM     13  H13 UNL     1      31.154  18.026  15.829  1.00  0.00     0.274 HD
ATOM     14  H12 UNL     1      32.086  16.846  15.529  1.00  0.00     0.274 HD
ATOM     15  H11 UNL     1      32.819  18.363  15.757  1.00  0.00     0.274 HD
ENDBRANCH  10  12
ENDBRANCH   9  10
ENDBRANCH   7   9
ENDBRANCH   1   7
BRANCH   6  16
HETATM   16  C10 UNL     1      34.305  20.357   9.726  1.00  0.00     0.027 C 
HETATM   17  C11 UNL     1      34.838  21.272   8.948  1.00  0.00     0.132 C 
BRANCH  17  18
HETATM   18  S1  UNL     1      33.875  22.609   8.305  1.00  0.00     0.246 S 
HETATM   19  O1  UNL     1      34.002  22.614   6.818  1.00  0.00    -0.202 OA
HETATM   20  O2  UNL     1      34.371  23.926   8.821  1.00  0.00    -0.202 OA
BRANCH  18  21
HETATM   21  N3  UNL     1      32.234  22.394   8.802  1.00  0.00    -0.325 N 
ATOM     22  H32 UNL     1      31.935  21.840   9.604  1.00  0.00     0.169 HD
ATOM     23  H31 UNL     1      31.630  22.909   8.161  1.00  0.00     0.169 HD
ENDBRANCH  18  21
ENDBRANCH  17  18
ENDBRANCH   6  16
TORSDOF 7
ENDMDL
MODEL 4
REMARK VINA RESULT: -5.865221877      5.877      7.734
REMARK  7 active torsions:
REMARK  status: ('A' for Active; 'I' for Inactive)
REMARK    1  A    between atoms: C2_2  and  N1_3 
REMARK    2  A    between atoms: C2_2  and  C3_7 
REMARK    3  A    between atoms: C3_7  and  N2_8 
REMARK    4  A    between atoms: N2_8  and  C4_10 
REMARK    5  A    between atoms: C9_15  and  C10_16 
REMARK    6  A    between atoms: C11_17  and  S1_18 
REMARK    7  A    between atoms: S1_18  and  N3_19 
ROOT
HETATM    1  C4  UNL     1      32.929  17.767  12.703  1.00  0.00     0.038 A 
HETATM    2  C5  UNL     1      32.199  16.597  12.833  1.00  0.00     0.030 A 
HETATM    3  C6  UNL     1      31.595  16.302  14.035  1.00  0.00     0.002 A 
HETATM    4  C7  UNL     1      31.694  17.139  15.118  1.00  0.00     0.001 A 
HETATM    5  C8  UNL     1      32.434  18.305  14.954  1.00  0.00     0.014 A 
HETATM    6  C9  UNL     1      33.051  18.628  13.760  1.00  0.00    -0.009 A 
ENDROOT
BRANCH   1   7
HETATM    7  N2  UNL     1      33.567  18.037  11.468  1.00  0.00    -0.387 N 
ATOM      8  H2  UNL     1      33.017  18.497  10.741  1.00  0.00     0.159 HD
BRANCH   7   9
HETATM    9  C3  UNL     1      34.944  17.709  11.162  1.00  0.00     0.152 C 
BRANCH   9  10
HETATM   10  C2  UNL     1      35.565  18.690  10.198  1.00  0.00     0.197 C 
HETATM   11  C1  UNL     1      34.601  19.887  10.123  1.00  0.00     0.041 C 
BRANCH  10  12
HETATM   12  N1  UNL     1      36.798  19.164  10.798  1.00  0.00    -0.074 N 
ATOM     13  H13 UNL     1      36.648  19.895  11.491  1.00  0.00     0.274 HD
ATOM     14  H12 UNL     1      37.229  18.479  11.418  1.00  0.00     0.274 HD
ATOM     15  H11 UNL     1      37.414  19.454  10.038  1.00  0.00     0.274 HD
ENDBRANCH  10  12
ENDBRANCH   9  10
ENDBRANCH   7   9
ENDBRANCH   1   7
BRANCH   6  16
HETATM   16  C10 UNL     1      33.791  19.872  13.705  1.00  0.00     0.027 C 
HETATM   17  C11 UNL     1      35.086  20.015  13.866  1.00  0.00     0.132 C 
BRANCH  17  18
HETATM   18  S1  UNL     1      35.858  21.604  13.772  1.00  0.00     0.246 S 
HETATM   19  O1  UNL     1      36.714  21.645  12.550  1.00  0.00    -0.202 OA
HETATM   20  O2  UNL     1      36.733  21.848  14.965  1.00  0.00    -0.202 OA
BRANCH  18  21
HETATM   21  N3  UNL     1      34.624  22.812  13.725  1.00  0.00    -0.325 N 
ATOM     22  H32 UNL     1      33.663  22.679  14.040  1.00  0.00     0.169 HD
ATOM     23  H31 UNL     1      35.021  23.667  13.334  1.00  0.00     0.169 HD
ENDBRANCH  18  21
ENDBRANCH  17  18
ENDBRANCH   6  16
TORSDOF 7
ENDMDL
MODEL 5
REMARK VINA RESULT: -5.831158973      5.858      9.191
REMARK  7 active torsions:
REMARK  status: ('A' for Active; 'I' for Inactive)
REMARK    1  A    between atoms: C2_2  and  N1_3 
REMARK    2  A    between atoms: C2_2  and  C3_7 
REMARK    3  A    between atoms: C3_7  and  N2_8 
REMARK    4  A    between atoms: N2_8  and  C4_10 
REMARK    5  A    between atoms: C9_15  and  C10_16 
REMARK    6  A    between atoms: C11_17  and  S1_18 
REMARK    7  A    between atoms: S1_18  and  N3_19 
ROOT
HETATM    1  C4  UNL     1      34.806  20.321  11.480  1.00  0.00     0.038 A 
HETATM    2  C5  UNL     1      35.685  20.652  10.463  1.00  0.00     0.030 A 
HETATM    3  C6  UNL     1      35.918  19.752   9.447  1.00  0.00     0.002 A 
HETATM    4  C7  UNL     1      35.301  18.527   9.410  1.00  0.00     0.001 A 
HETATM    5  C8  UNL     1      34.425  18.225  10.447  1.00  0.00     0.014 A 
HETATM    6  C9  UNL     1      34.170  19.108  11.480  1.00  0.00    -0.009 A 
ENDROOT
BRANCH   1   7
HETATM    7  N2  UNL     1      34.601  21.248  12.532  1.00  0.00    -0.387 N 
ATOM      8  H2  UNL     1      33.887  21.964  12.400  1.00  0.00     0.159 HD
BRANCH   7   9
HETATM    9  C3  UNL     1      35.334  21.252  13.780  1.00  0.00     0.152 C 
BRANCH   9  10
HETATM   10  C2  UNL     1      36.511  22.197  13.750  1.00  0.00     0.197 C 
HETATM   11  C1  UNL     1      36.023  23.467  13.030  1.00  0.00     0.041 C 
BRANCH  10  12
HETATM   12  N1  UNL     1      36.806  22.564  15.122  1.00  0.00    -0.074 N 
ATOM     13  H13 UNL     1      36.934  23.568  15.247  1.00  0.00     0.274 HD
ATOM     14  H12 UNL     1      36.007  22.454  15.745  1.00  0.00     0.274 HD
ATOM     15  H11 UNL     1      37.617  22.019  15.415  1.00  0.00     0.274 HD
ENDBRANCH  10  12
ENDBRANCH   9  10
ENDBRANCH   7   9
ENDBRANCH   1   7
BRANCH   6  16
HETATM   16  C10 UNL     1      33.234  18.689  12.503  1.00  0.00     0.027 C 
HETATM   17  C11 UNL     1      32.948  17.451  12.835  1.00  0.00     0.132 C 
BRANCH  17  18
HETATM   18  S1  UNL     1      31.777  17.085  14.109  1.00  0.00     0.246 S 
HETATM   19  O1  UNL     1      31.955  15.662  14.524  1.00  0.00    -0.202 OA
HETATM   20  O2  UNL     1      30.372  17.255  13.614  1.00  0.00    -0.202 OA
BRANCH  18  21
HETATM   21  N3  UNL     1      32.041  18.170  15.427  1.00  0.00    -0.325 N 
ATOM     22  H32 UNL     1      31.901  19.179  15.389  1.00  0.00     0.169 HD
ATOM     23  H31 UNL     1      32.356  17.631  16.234  1.00  0.00     0.169 HD
ENDBRANCH  18  21
ENDBRANCH  17  18
ENDBRANCH   6  16
TORSDOF 7
ENDMDL
