MODEL 1
REMARK VINA RESULT: -6.396400626      0.000      0.000
REMARK  6 active torsions:
REMARK  status: ('A' for Active; 'I' for Inactive)
REMARK    1  A    between atoms: N1_2  and  S1_4 
REMARK    2  A    between atoms: S1_4  and  N2_6 
REMARK    3  A    between atoms: S1_4  and  N5_17 
REMARK    4  A    between atoms: N2_6  and  N3_8 
REMARK    5  A    between atoms: C2_10  and  C3_11 
REMARK    6  A    between atoms: N5_17  and  C7_19 
ROOT
HETATM    1  N2  UNL     1      30.063  13.687  13.629  1.00  0.00    -0.228 N 
ATOM      2  H2  UNL     1      30.158  13.088  14.449  1.00  0.00     0.200 HD
ENDROOT
BRANCH   1   3
HETATM    3  S1  UNL     1      28.911  13.310  12.436  1.00  0.00     0.208 S 
HETATM    4  O1  UNL     1      29.527  12.713  11.198  1.00  0.00    -0.205 OA
BRANCH   3   5
HETATM    5  N1  UNL     1      27.931  12.201  12.980  1.00  0.00    -0.323 N 
HETATM    6  C1  UNL     1      27.696  11.131  12.021  1.00  0.00     0.159 C 
ATOM      7  H1  UNL     1      27.507  12.231  13.908  1.00  0.00     0.171 HD
ENDBRANCH   3   5
BRANCH   3   8
HETATM    8  N5  UNL     1      27.939  14.642  11.987  1.00  0.00    -0.315 N 
ATOM      9  H5  UNL     1      27.585  15.326  12.656  1.00  0.00     0.172 HD
BRANCH   8  10
HETATM   10  C7  UNL     1      27.666  14.708  10.575  1.00  0.00     0.085 C 
HETATM   11  C8  UNL     1      26.240  14.297  10.281  1.00  0.00     0.032 C 
HETATM   12  C9  UNL     1      27.783  16.185  10.180  1.00  0.00     0.032 C 
ENDBRANCH   8  10
ENDBRANCH   3   8
ENDBRANCH   1   3
BRANCH   1  13
HETATM   13  N3  UNL     1      30.871  14.799  13.494  1.00  0.00    -0.300 N 
HETATM   14  C2  UNL     1      30.891  15.789  14.322  1.00  0.00     0.137 C 
ATOM     15  H3  UNL     1      31.493  14.841  12.686  1.00  0.00     0.186 HD
BRANCH  14  16
HETATM   16  C3  UNL     1      31.809  16.885  14.024  1.00  0.00     0.049 A 
HETATM   17  C4  UNL     1      32.114  17.981  14.799  1.00  0.00     0.032 A 
HETATM   18  C5  UNL     1      33.034  18.774  14.135  1.00  0.00     0.019 A 
HETATM   19  C6  UNL     1      33.282  18.141  12.948  1.00  0.00     0.088 A 
HETATM   20  N4  UNL     1      32.544  17.025  12.906  1.00  0.00    -0.365 N 
ATOM     21  H4  UNL     1      32.539  16.367  12.128  1.00  0.00     0.165 HD
ENDBRANCH  14  16
ENDBRANCH   1  13
TORSDOF 6
ENDMDL
MODEL 2
REMARK VINA RESULT: -6.083957786      1.536      2.812
REMARK  6 active torsions:
REMARK  status: ('A' for Active; 'I' for Inactive)
REMARK    1  A    between atoms: N1_2  and  S1_4 
REMARK    2  A    between atoms: S1_4  and  N2_6 
REMARK    3  A    between atoms: S1_4  and  N5_17 
REMARK    4  A    between atoms: N2_6  and  N3_8 
REMARK    5  A    between atoms: C2_10  and  C3_11 
REMARK    6  A    between atoms: N5_17  and  C7_19 
ROOT
HETATM    1  N2  UNL     1      30.179  14.672  13.571  1.00  0.00    -0.228 N 
ATOM      2  H2  UNL     1      30.292  14.078  14.392  1.00  0.00     0.200 HD
ENDROOT
BRANCH   1   3
HETATM    3  S1  UNL     1      28.870  14.415  12.516  1.00  0.00     0.208 S 
HETATM    4  O1  UNL     1      27.886  15.556  12.519  1.00  0.00    -0.205 OA
BRANCH   3   5
HETATM    5  N1  UNL     1      29.397  14.335  11.032  1.00  0.00    -0.323 N 
HETATM    6  C1  UNL     1      28.607  15.133  10.105  1.00  0.00     0.159 C 
ATOM      7  H1  UNL     1      30.207  13.781  10.752  1.00  0.00     0.171 HD
ENDBRANCH   3   5
BRANCH   3   8
HETATM    8  N5  UNL     1      28.032  12.956  12.816  1.00  0.00    -0.315 N 
ATOM      9  H5  UNL     1      27.352  12.847  13.569  1.00  0.00     0.172 HD
BRANCH   8  10
HETATM   10  C7  UNL     1      28.376  11.896  11.904  1.00  0.00     0.085 C 
HETATM   11  C8  UNL     1      28.696  10.622  12.655  1.00  0.00     0.032 C 
HETATM   12  C9  UNL     1      27.115  11.609  11.080  1.00  0.00     0.032 C 
ENDBRANCH   8  10
ENDBRANCH   3   8
ENDBRANCH   1   3
BRANCH   1  13
HETATM   13  N3  UNL     1      31.090  15.681  13.322  1.00  0.00    -0.300 N 
HETATM   14  C2  UNL     1      31.261  16.709  14.082  1.00  0.00     0.137 C 
ATOM     15  H3  UNL     1      31.665  15.607  12.483  1.00  0.00     0.186 HD
BRANCH  14  16
HETATM   16  C3  UNL     1      32.270  17.680  13.667  1.00  0.00     0.049 A 
HETATM   17  C4  UNL     1      33.157  17.597  12.617  1.00  0.00     0.032 A 
HETATM   18  C5  UNL     1      33.938  18.740  12.581  1.00  0.00     0.019 A 
HETATM   19  C6  UNL     1      33.510  19.515  13.624  1.00  0.00     0.088 A 
HETATM   20  N4  UNL     1      32.522  18.865  14.251  1.00  0.00    -0.365 N 
ATOM     21  H4  UNL     1      32.024  19.222  15.067  1.00  0.00     0.165 HD
ENDBRANCH  14  16
ENDBRANCH   1  13
TORSDOF 6
ENDMDL
MODEL 3
REMARK VINA RESULT: -6.034581332      1.433      2.876
REMARK  6 active torsions:
REMARK  status: ('A' for Active; 'I' for Inactive)
REMARK    1  A    between atoms: N1_2  and  S1_4 
REMARK    2  A    between atoms: S1_4  and  N2_6 
REMARK    3  A    between atoms: S1_4  and  N5_17 
REMARK    4  A    between atoms: N2_6  and  N3_8 
REMARK    5  A    between atoms: C2_10  and  C3_11 
REMARK    6  A    between atoms: N5_17  and  C7_19 
ROOT
HETATM    1  N2  UNL     1      30.177  14.659  13.635  1.00  0.00    -0.228 N 
ATOM      2  H2  UNL     1      30.132  14.201  14.545  1.00  0.00     0.200 HD
ENDROOT
BRANCH   1   3
HETATM    3  S1  UNL     1      29.087  14.212  12.408  1.00  0.00     0.208 S 
HETATM    4  O1  UNL     1      27.649  14.441  12.792  1.00  0.00    -0.205 OA
BRANCH   3   5
HETATM    5  N1  UNL     1      29.320  15.119  11.140  1.00  0.00    -0.323 N 
HETATM    6  C1  UNL     1      28.177  15.137  10.237  1.00  0.00     0.159 C 
ATOM      7  H1  UNL     1      30.181  15.639  10.970  1.00  0.00     0.171 HD
ENDBRANCH   3   5
BRANCH   3   8
HETATM    8  N5  UNL     1      29.275  12.594  11.891  1.00  0.00    -0.315 N 
ATOM      9  H5  UNL     1      30.059  12.277  11.319  1.00  0.00     0.172 HD
BRANCH   8  10
HETATM   10  C7  UNL     1      28.222  11.719  12.339  1.00  0.00     0.085 C 
HETATM   11  C8  UNL     1      27.176  11.538  11.261  1.00  0.00     0.032 C 
HETATM   12  C9  UNL     1      28.865  10.343  12.554  1.00  0.00     0.032 C 
ENDBRANCH   8  10
ENDBRANCH   3   8
ENDBRANCH   1   3
BRANCH   1  13
HETATM   13  N3  UNL     1      31.123  15.640  13.406  1.00  0.00    -0.300 N 
HETATM   14  C2  UNL     1      31.174  16.763  14.041  1.00  0.00     0.137 C 
ATOM     15  H3  UNL     1      31.826  15.466  12.688  1.00  0.00     0.186 HD
BRANCH  14  16
HETATM   16  C3  UNL     1      32.243  17.686  13.670  1.00  0.00     0.049 A 
HETATM   17  C4  UNL     1      33.152  17.574  12.642  1.00  0.00     0.032 A 
HETATM   18  C5  UNL     1      33.993  18.675  12.648  1.00  0.00     0.019 A 
HETATM   19  C6  UNL     1      33.579  19.452  13.694  1.00  0.00     0.088 A 
HETATM   20  N4  UNL     1      32.541  18.845  14.283  1.00  0.00    -0.365 N 
ATOM     21  H4  UNL     1      32.042  19.213  15.092  1.00  0.00     0.165 HD
ENDBRANCH  14  16
ENDBRANCH   1  13
TORSDOF 6
ENDMDL
MODEL 4
REMARK VINA RESULT: -5.984679541      2.673      6.419
REMARK  6 active torsions:
REMARK  status: ('A' for Active; 'I' for Inactive)
REMARK    1  A    between atoms: N1_2  and  S1_4 
REMARK    2  A    between atoms: S1_4  and  N2_6 
REMARK    3  A    between atoms: S1_4  and  N5_17 
REMARK    4  A    between atoms: N2_6  and  N3_8 
REMARK    5  A    between atoms: C2_10  and  C3_11 
REMARK    6  A    between atoms: N5_17  and  C7_19 
ROOT
HETATM    1  N2  UNL     1      31.752  16.087  12.941  1.00  0.00    -0.228 N 
ATOM      2  H2  UNL     1      32.578  15.505  12.803  1.00  0.00     0.200 HD
ENDROOT
BRANCH   1   3
HETATM    3  S1  UNL     1      31.834  17.443  13.964  1.00  0.00     0.208 S 
HETATM    4  O1  UNL     1      30.648  18.359  13.815  1.00  0.00    -0.205 OA
BRANCH   3   5
HETATM    5  N1  UNL     1      31.798  16.971  15.468  1.00  0.00    -0.323 N 
HETATM    6  C1  UNL     1      31.412  15.575  15.616  1.00  0.00     0.159 C 
ATOM      7  H1  UNL     1      32.022  17.581  16.255  1.00  0.00     0.171 HD
ENDBRANCH   3   5
BRANCH   3   8
HETATM    8  N5  UNL     1      33.268  18.353  13.772  1.00  0.00    -0.315 N 
ATOM      9  H5  UNL     1      34.109  18.194  14.327  1.00  0.00     0.172 HD
BRANCH   8  10
HETATM   10  C7  UNL     1      33.177  19.364  12.751  1.00  0.00     0.085 C 
HETATM   11  C8  UNL     1      33.997  20.580  13.122  1.00  0.00     0.032 C 
HETATM   12  C9  UNL     1      33.826  18.770  11.495  1.00  0.00     0.032 C 
ENDBRANCH   8  10
ENDBRANCH   3   8
ENDBRANCH   1   3
BRANCH   1  13
HETATM   13  N3  UNL     1      30.572  15.770  12.295  1.00  0.00    -0.300 N 
HETATM   14  C2  UNL     1      30.085  14.577  12.215  1.00  0.00     0.137 C 
ATOM     15  H3  UNL     1      30.052  16.527  11.852  1.00  0.00     0.186 HD
BRANCH  14  16
HETATM   16  C3  UNL     1      28.825  14.422  11.492  1.00  0.00     0.049 A 
HETATM   17  C4  UNL     1      27.940  15.400  11.096  1.00  0.00     0.032 A 
HETATM   18  C5  UNL     1      26.872  14.815  10.437  1.00  0.00     0.019 A 
HETATM   19  C6  UNL     1      27.124  13.470  10.441  1.00  0.00     0.088 A 
HETATM   20  N4  UNL     1      28.287  13.264  11.072  1.00  0.00    -0.365 N 
ATOM     21  H4  UNL     1      28.709  12.347  11.216  1.00  0.00     0.165 HD
ENDBRANCH  14  16
ENDBRANCH   1  13
TORSDOF 6
ENDMDL
MODEL 5
REMARK VINA RESULT: -5.937286763      2.237      3.291
REMARK  6 active torsions:
REMARK  status: ('A' for Active; 'I' for Inactive)
REMARK    1  A    between atoms: N1_2  and  S1_4 
REMARK    2  A    between atoms: S1_4  and  N2_6 
REMARK    3  A    between atoms: S1_4  and  N5_17 
REMARK    4  A    between atoms: N2_6  and  N3_8 
REMARK    5  A    between atoms: C2_10  and  C3_11 
REMARK    6  A    between atoms: N5_17  and  C7_19 
ROOT
HETATM    1  N2  UNL     1      27.652  15.821  11.187  1.00  0.00    -0.228 N 
ATOM      2  H2  UNL     1      27.193  16.563  10.658  1.00  0.00     0.200 HD
ENDROOT
BRANCH   1   3
HETATM    3  S1  UNL     1      27.353  14.194  10.795  1.00  0.00     0.208 S 
HETATM    4  O1  UNL     1      26.040  13.997  10.084  1.00  0.00    -0.205 OA
BRANCH   3   5
HETATM    5  N1  UNL     1      28.447  13.686   9.780  1.00  0.00    -0.323 N 
HETATM    6  C1  UNL     1      28.006  12.541   8.995  1.00  0.00     0.159 C 
ATOM      7  H1  UNL     1      29.367  14.116   9.683  1.00  0.00     0.171 HD
ENDBRANCH   3   5
BRANCH   3   8
HETATM    8  N5  UNL     1      27.417  13.148  12.145  1.00  0.00    -0.315 N 
ATOM      9  H5  UNL     1      26.792  13.232  12.947  1.00  0.00     0.172 HD
BRANCH   8  10
HETATM   10  C7  UNL     1      28.437  12.137  12.043  1.00  0.00     0.085 C 
HETATM   11  C8  UNL     1      29.492  12.325  13.112  1.00  0.00     0.032 C 
HETATM   12  C9  UNL     1      27.751  10.798  12.342  1.00  0.00     0.032 C 
ENDBRANCH   8  10
ENDBRANCH   3   8
ENDBRANCH   1   3
BRANCH   1  13
HETATM   13  N3  UNL     1      28.513  16.145  12.218  1.00  0.00    -0.300 N 
HETATM   14  C2  UNL     1      29.758  15.806  12.259  1.00  0.00     0.137 C 
ATOM     15  H3  UNL     1      28.141  16.688  12.997  1.00  0.00     0.186 HD
BRANCH  14  16
HETATM   16  C3  UNL     1      30.523  16.234  13.427  1.00  0.00     0.049 A 
HETATM   17  C4  UNL     1      30.873  15.499  14.538  1.00  0.00     0.032 A 
HETATM   18  C5  UNL     1      31.601  16.295  15.407  1.00  0.00     0.019 A 
HETATM   19  C6  UNL     1      31.685  17.520  14.805  1.00  0.00     0.088 A 
HETATM   20  N4  UNL     1      31.039  17.458  13.635  1.00  0.00    -0.365 N 
ATOM     21  H4  UNL     1      30.949  18.238  12.984  1.00  0.00     0.165 HD
ENDBRANCH  14  16
ENDBRANCH   1  13
TORSDOF 6
ENDMDL
