MODEL 1
REMARK VINA RESULT: -7.166047927      0.000      0.000
REMARK  5 active torsions:
REMARK  status: ('A' for Active; 'I' for Inactive)
REMARK    1  A    between atoms: C2_3  and  N2_4 
REMARK    2  A    between atoms: C6_17  and  C7_18 
REMARK    3  A    between atoms: C7_18  and  O2_20 
REMARK    4  A    between atoms: O2_20  and  C8_21 
REMARK    5  A    between atoms: N7_24  and  O3_25 
ROOT
HETATM    1  C8  UNL     1       7.966   3.085  21.627  1.00  0.00     0.302 C 
HETATM    2  C9  UNL     1       8.563   2.195  22.629  1.00  0.00     0.085 C 
HETATM    3  N6  UNL     1       9.028   1.472  23.424  1.00  0.00    -0.195 NA
ENDROOT
BRANCH   1   4
HETATM    4  O2  UNL     1       7.158   4.016  22.323  1.00  0.00    -0.301 OA
BRANCH   4   5
HETATM    5  C7  UNL     1       7.577   5.333  22.386  1.00  0.00     0.331 C 
HETATM    6  O1  UNL     1       8.611   5.607  23.036  1.00  0.00    -0.256 OA
BRANCH   5   7
HETATM    7  C6  UNL     1       6.857   6.418  21.722  1.00  0.00     0.211 A 
HETATM    8  N5  UNL     1       7.097   7.736  21.794  1.00  0.00    -0.319 N 
HETATM    9  C5  UNL     1       6.196   8.404  21.025  1.00  0.00     0.158 A 
ATOM     10  H5  UNL     1       7.841   8.170  22.340  1.00  0.00     0.169 HD
HETATM   11  N1  UNL     1       6.005   9.708  20.758  1.00  0.00    -0.170 N 
HETATM   12  C4  UNL     1       5.372   7.454  20.461  1.00  0.00     0.153 A 
HETATM   13  C1  UNL     1       6.887  10.687  21.365  1.00  0.00     0.177 C 
HETATM   14  C2  UNL     1       5.033  10.161  19.953  1.00  0.00     0.681 A 
HETATM   15  N3  UNL     1       4.236   9.237  19.409  1.00  0.00    -0.175 N 
HETATM   16  C3  UNL     1       4.366   7.898  19.630  1.00  0.00     0.148 A 
ATOM     17  H3  UNL     1       3.487   9.551  18.793  1.00  0.00     0.186 HD
HETATM   18  N4  UNL     1       3.565   7.071  19.074  1.00  0.00    -0.383 N 
ATOM     19  H42 UNL     1       2.821   7.399  18.459  1.00  0.00     0.157 HD
ATOM     20  H41 UNL     1       3.663   6.069  19.239  1.00  0.00     0.157 HD
HETATM   21  N7  UNL     1       5.800   6.266  20.904  1.00  0.00    -0.194 N 
BRANCH  14  22
HETATM   22  N2  UNL     1       4.873  11.435  19.713  1.00  0.00    -0.234 N 
ATOM     23  H22 UNL     1       5.397  12.147  20.221  1.00  0.00     0.174 HD
ATOM     24  H21 UNL     1       4.219  11.773  19.007  1.00  0.00     0.174 HD
ENDBRANCH  14  22
BRANCH  21  25
HETATM   25  O3  UNL     1       5.247   5.053  20.578  1.00  0.00    -0.280 OA
ATOM     26  H3  UNL     1       4.368   4.774  20.801  1.00  0.00     0.245 HD
ENDBRANCH  21  25
ENDBRANCH   5   7
ENDBRANCH   4   5
ENDBRANCH   1   4
TORSDOF 5
ENDMDL
MODEL 2
REMARK VINA RESULT: -7.076790954      8.997     10.110
REMARK  5 active torsions:
REMARK  status: ('A' for Active; 'I' for Inactive)
REMARK    1  A    between atoms: C2_3  and  N2_4 
REMARK    2  A    between atoms: C6_17  and  C7_18 
REMARK    3  A    between atoms: C7_18  and  O2_20 
REMARK    4  A    between atoms: O2_20  and  C8_21 
REMARK    5  A    between atoms: N7_24  and  O3_25 
ROOT
HETATM    1  C8  UNL     1      -3.001   7.540  18.658  1.00  0.00     0.302 C 
HETATM    2  C9  UNL     1      -3.009   6.152  19.134  1.00  0.00     0.085 C 
HETATM    3  N6  UNL     1      -3.020   5.051  19.530  1.00  0.00    -0.195 NA
ENDROOT
BRANCH   1   4
HETATM    4  O2  UNL     1      -1.647   7.947  18.576  1.00  0.00    -0.301 OA
BRANCH   4   5
HETATM    5  C7  UNL     1      -1.371   9.232  18.147  1.00  0.00     0.331 C 
HETATM    6  O1  UNL     1      -1.468  10.175  18.964  1.00  0.00    -0.256 OA
BRANCH   5   7
HETATM    7  C6  UNL     1      -0.971   9.532  16.773  1.00  0.00     0.211 A 
HETATM    8  N5  UNL     1       0.072   9.037  16.089  1.00  0.00    -0.319 N 
HETATM    9  C5  UNL     1       0.090   9.573  14.840  1.00  0.00     0.158 A 
ATOM     10  H5  UNL     1       0.747   8.363  16.450  1.00  0.00     0.169 HD
HETATM   11  N1  UNL     1       0.908   9.414  13.785  1.00  0.00    -0.170 N 
HETATM   12  C4  UNL     1      -0.986  10.430  14.759  1.00  0.00     0.153 A 
HETATM   13  C1  UNL     1       2.033   8.506  13.897  1.00  0.00     0.177 C 
HETATM   14  C2  UNL     1       0.741  10.055  12.618  1.00  0.00     0.681 A 
HETATM   15  N3  UNL     1      -0.304  10.885  12.545  1.00  0.00    -0.175 N 
HETATM   16  C3  UNL     1      -1.177  11.100  13.570  1.00  0.00     0.148 A 
ATOM     17  H3  UNL     1      -0.457  11.388  11.671  1.00  0.00     0.186 HD
HETATM   18  N4  UNL     1      -2.155  11.910  13.425  1.00  0.00    -0.383 N 
ATOM     19  H42 UNL     1      -2.297  12.406  12.545  1.00  0.00     0.157 HD
ATOM     20  H41 UNL     1      -2.809  12.070  14.192  1.00  0.00     0.157 HD
HETATM   21  N7  UNL     1      -1.604  10.380  15.945  1.00  0.00    -0.194 N 
BRANCH  14  22
HETATM   22  N2  UNL     1       1.552   9.879  11.611  1.00  0.00    -0.234 N 
ATOM     23  H22 UNL     1       2.549  10.083  11.682  1.00  0.00     0.174 HD
ATOM     24  H21 UNL     1       1.226   9.531  10.710  1.00  0.00     0.174 HD
ENDBRANCH  14  22
BRANCH  21  25
HETATM   25  O3  UNL     1      -2.729  11.090  16.282  1.00  0.00    -0.280 OA
ATOM     26  H3  UNL     1      -3.507  10.725  16.686  1.00  0.00     0.245 HD
ENDBRANCH  21  25
ENDBRANCH   5   7
ENDBRANCH   4   5
ENDBRANCH   1   4
TORSDOF 5
ENDMDL
MODEL 3
REMARK VINA RESULT: -6.869404814      3.491      6.429
REMARK  5 active torsions:
REMARK  status: ('A' for Active; 'I' for Inactive)
REMARK    1  A    between atoms: C2_3  and  N2_4 
REMARK    2  A    between atoms: C6_17  and  C7_18 
REMARK    3  A    between atoms: C7_18  and  O2_20 
REMARK    4  A    between atoms: O2_20  and  C8_21 
REMARK    5  A    between atoms: N7_24  and  O3_25 
ROOT
HETATM    1  C8  UNL     1       4.373   9.167  14.876  1.00  0.00     0.302 C 
HETATM    2  C9  UNL     1       3.836   8.440  13.720  1.00  0.00     0.085 C 
HETATM    3  N6  UNL     1       3.391   7.867  12.801  1.00  0.00    -0.195 NA
ENDROOT
BRANCH   1   4
HETATM    4  O2  UNL     1       4.525   8.230  15.925  1.00  0.00    -0.301 OA
BRANCH   4   5
HETATM    5  C7  UNL     1       5.712   8.225  16.635  1.00  0.00     0.331 C 
HETATM    6  O1  UNL     1       6.735   8.714  16.106  1.00  0.00    -0.256 OA
BRANCH   5   7
HETATM    7  C6  UNL     1       5.818   7.668  17.983  1.00  0.00     0.211 A 
HETATM    8  N5  UNL     1       6.931   7.385  18.677  1.00  0.00    -0.319 N 
HETATM    9  C5  UNL     1       6.592   6.881  19.893  1.00  0.00     0.158 A 
ATOM     10  H5  UNL     1       7.885   7.528  18.343  1.00  0.00     0.169 HD
HETATM   11  N1  UNL     1       7.315   6.450  20.941  1.00  0.00    -0.170 N 
HETATM   12  C4  UNL     1       5.215   6.855  19.943  1.00  0.00     0.153 A 
HETATM   13  C1  UNL     1       8.762   6.489  20.862  1.00  0.00     0.177 C 
HETATM   14  C2  UNL     1       6.767   5.980  22.072  1.00  0.00     0.681 A 
HETATM   15  N3  UNL     1       5.431   5.956  22.116  1.00  0.00    -0.175 N 
HETATM   16  C3  UNL     1       4.630   6.375  21.095  1.00  0.00     0.148 A 
ATOM     17  H3  UNL     1       4.985   5.603  22.962  1.00  0.00     0.186 HD
HETATM   18  N4  UNL     1       3.358   6.322  21.209  1.00  0.00    -0.383 N 
ATOM     19  H42 UNL     1       2.925   5.968  22.062  1.00  0.00     0.157 HD
ATOM     20  H41 UNL     1       2.759   6.636  20.446  1.00  0.00     0.157 HD
HETATM   21  N7  UNL     1       4.781   7.336  18.773  1.00  0.00    -0.194 N 
BRANCH  14  22
HETATM   22  N2  UNL     1       7.495   5.569  23.074  1.00  0.00    -0.234 N 
ATOM     23  H22 UNL     1       8.125   6.196  23.574  1.00  0.00     0.174 HD
ATOM     24  H21 UNL     1       7.466   4.604  23.402  1.00  0.00     0.174 HD
ENDBRANCH  14  22
BRANCH  21  25
HETATM   25  O3  UNL     1       3.464   7.479  18.414  1.00  0.00    -0.280 OA
ATOM     26  H3  UNL     1       2.967   6.858  17.896  1.00  0.00     0.245 HD
ENDBRANCH  21  25
ENDBRANCH   5   7
ENDBRANCH   4   5
ENDBRANCH   1   4
TORSDOF 5
ENDMDL
MODEL 4
REMARK VINA RESULT: -6.809303422      9.102     11.092
REMARK  5 active torsions:
REMARK  status: ('A' for Active; 'I' for Inactive)
REMARK    1  A    between atoms: C2_3  and  N2_4 
REMARK    2  A    between atoms: C6_17  and  C7_18 
REMARK    3  A    between atoms: C7_18  and  O2_20 
REMARK    4  A    between atoms: O2_20  and  C8_21 
REMARK    5  A    between atoms: N7_24  and  O3_25 
ROOT
HETATM    1  C8  UNL     1      -1.831  10.317  15.789  1.00  0.00     0.302 C 
HETATM    2  C9  UNL     1      -1.584   9.356  16.871  1.00  0.00     0.085 C 
HETATM    3  N6  UNL     1      -1.372   8.598  17.737  1.00  0.00    -0.195 NA
ENDROOT
BRANCH   1   4
HETATM    4  O2  UNL     1      -1.512   9.669  14.572  1.00  0.00    -0.301 OA
BRANCH   4   5
HETATM    5  C7  UNL     1      -0.869  10.397  13.588  1.00  0.00     0.331 C 
HETATM    6  O1  UNL     1      -1.385  11.466  13.193  1.00  0.00    -0.256 OA
BRANCH   5   7
HETATM    7  C6  UNL     1       0.393   9.964  12.990  1.00  0.00     0.211 A 
HETATM    8  N5  UNL     1       0.874  10.256  11.771  1.00  0.00    -0.319 N 
HETATM    9  C5  UNL     1       2.081   9.654  11.604  1.00  0.00     0.158 A 
ATOM     10  H5  UNL     1       0.406  10.840  11.078  1.00  0.00     0.169 HD
HETATM   11  N1  UNL     1       2.961   9.628  10.588  1.00  0.00    -0.170 N 
HETATM   12  C4  UNL     1       2.347   8.966  12.769  1.00  0.00     0.153 A 
HETATM   13  C1  UNL     1       2.656  10.361   9.374  1.00  0.00     0.177 C 
HETATM   14  C2  UNL     1       4.121   8.955  10.633  1.00  0.00     0.681 A 
HETATM   15  N3  UNL     1       4.374   8.289  11.763  1.00  0.00    -0.175 N 
HETATM   16  C3  UNL     1       3.533   8.267  12.836  1.00  0.00     0.148 A 
ATOM     17  H3  UNL     1       5.248   7.766  11.827  1.00  0.00     0.186 HD
HETATM   18  N4  UNL     1       3.843   7.606  13.886  1.00  0.00    -0.383 N 
ATOM     19  H42 UNL     1       4.721   7.089  13.937  1.00  0.00     0.157 HD
ATOM     20  H41 UNL     1       3.215   7.590  14.689  1.00  0.00     0.157 HD
HETATM   21  N7  UNL     1       1.306   9.175  13.582  1.00  0.00    -0.194 N 
BRANCH  14  22
HETATM   22  N2  UNL     1       4.955   8.949   9.629  1.00  0.00    -0.234 N 
ATOM     23  H22 UNL     1       4.840   9.573   8.831  1.00  0.00     0.174 HD
ATOM     24  H21 UNL     1       5.759   8.322   9.599  1.00  0.00     0.174 HD
ENDBRANCH  14  22
BRANCH  21  25
HETATM   25  O3  UNL     1       1.175   8.663  14.848  1.00  0.00    -0.280 OA
ATOM     26  H3  UNL     1       0.422   8.784  15.413  1.00  0.00     0.245 HD
ENDBRANCH  21  25
ENDBRANCH   5   7
ENDBRANCH   4   5
ENDBRANCH   1   4
TORSDOF 5
ENDMDL
MODEL 5
REMARK VINA RESULT: -6.680024972      9.171     11.340
REMARK  5 active torsions:
REMARK  status: ('A' for Active; 'I' for Inactive)
REMARK    1  A    between atoms: C2_3  and  N2_4 
REMARK    2  A    between atoms: C6_17  and  C7_18 
REMARK    3  A    between atoms: C7_18  and  O2_20 
REMARK    4  A    between atoms: O2_20  and  C8_21 
REMARK    5  A    between atoms: N7_24  and  O3_25 
ROOT
HETATM    1  C8  UNL     1      -2.130  11.181  14.918  1.00  0.00     0.302 C 
HETATM    2  C9  UNL     1      -1.599  10.105  15.763  1.00  0.00     0.085 C 
HETATM    3  N6  UNL     1      -1.166   9.259  16.445  1.00  0.00    -0.195 NA
ENDROOT
BRANCH   1   4
HETATM    4  O2  UNL     1      -1.479  11.088  13.665  1.00  0.00    -0.301 OA
BRANCH   4   5
HETATM    5  C7  UNL     1      -0.208  11.620  13.543  1.00  0.00     0.331 C 
HETATM    6  O1  UNL     1       0.003  12.781  13.960  1.00  0.00    -0.256 OA
BRANCH   5   7
HETATM    7  C6  UNL     1       0.899  10.877  12.943  1.00  0.00     0.211 A 
HETATM    8  N5  UNL     1       1.383  10.978  11.695  1.00  0.00    -0.319 N 
HETATM    9  C5  UNL     1       2.417  10.110  11.538  1.00  0.00     0.158 A 
ATOM     10  H5  UNL     1       1.029  11.609  10.975  1.00  0.00     0.169 HD
HETATM   11  N1  UNL     1       3.226   9.824  10.504  1.00  0.00    -0.170 N 
HETATM   12  C4  UNL     1       2.570   9.452  12.740  1.00  0.00     0.153 A 
HETATM   13  C1  UNL     1       3.043  10.531   9.251  1.00  0.00     0.177 C 
HETATM   14  C2  UNL     1       4.207   8.910  10.564  1.00  0.00     0.681 A 
HETATM   15  N3  UNL     1       4.351   8.275  11.731  1.00  0.00    -0.175 N 
HETATM   16  C3  UNL     1       3.571   8.509  12.824  1.00  0.00     0.148 A 
ATOM     17  H3  UNL     1       5.087   7.573  11.808  1.00  0.00     0.186 HD
HETATM   18  N4  UNL     1       3.769   7.861  13.909  1.00  0.00    -0.383 N 
ATOM     19  H42 UNL     1       4.510   7.163  13.972  1.00  0.00     0.157 HD
ATOM     20  H41 UNL     1       3.186   8.036  14.727  1.00  0.00     0.157 HD
HETATM   21  N7  UNL     1       1.636   9.941  13.564  1.00  0.00    -0.194 N 
BRANCH  14  22
HETATM   22  N2  UNL     1       4.977   8.654   9.542  1.00  0.00    -0.234 N 
ATOM     23  H22 UNL     1       4.930   9.203   8.683  1.00  0.00     0.174 HD
ATOM     24  H21 UNL     1       5.659   7.897   9.556  1.00  0.00     0.174 HD
ENDBRANCH  14  22
BRANCH  21  25
HETATM   25  O3  UNL     1       1.447   9.550  14.866  1.00  0.00    -0.280 OA
ATOM     26  H3  UNL     1       0.675   9.108  15.198  1.00  0.00     0.245 HD
ENDBRANCH  21  25
ENDBRANCH   5   7
ENDBRANCH   4   5
ENDBRANCH   1   4
TORSDOF 5
ENDMDL
