MODEL 1
REMARK VINA RESULT: -6.268536525      0.000      0.000
REMARK  5 active torsions:
REMARK  status: ('A' for Active; 'I' for Inactive)
REMARK    1  A    between atoms: O1_2  and  C2_3 
REMARK    2  A    between atoms: C2_3  and  C3_5 
REMARK    3  A    between atoms: N1_7  and  O3_8 
REMARK    4  A    between atoms: C5_14  and  N4_15 
REMARK    5  A    between atoms: N4_15  and  C6_17 
ROOT
HETATM    1  C3  UNL     1       2.110   9.387  12.997  1.00  0.00     0.228 C 
HETATM    2  C4  UNL     1       2.700   9.521  11.586  1.00  0.00     0.063 C 
HETATM    3  N1  UNL     1       1.067   8.414  12.961  1.00  0.00    -0.060 NA
HETATM    4  N2  UNL     1      -0.078   8.848  12.294  1.00  0.00    -0.235 N 
ATOM      5  H2  UNL     1      -0.328   8.397  11.414  1.00  0.00     0.204 HD
HETATM    6  N3  UNL     1      -0.896   9.868  12.772  1.00  0.00    -0.266 N 
ATOM      7  H3  UNL     1      -1.911   9.800  12.686  1.00  0.00     0.190 HD
HETATM    8  C5  UNL     1      -0.352  10.906  13.326  1.00  0.00     0.194 C 
HETATM    9  S1  UNL     1       1.396  10.959  13.434  1.00  0.00     0.123 S 
HETATM   10  O4  UNL     1       1.917  11.535  14.713  1.00  0.00    -0.247 OA
ENDROOT
BRANCH   8  11
HETATM   11  N4  UNL     1      -1.178  11.963  13.823  1.00  0.00    -0.324 N 
ATOM     12  H4  UNL     1      -1.627  12.623  13.187  1.00  0.00     0.169 HD
BRANCH  11  13
HETATM   13  C6  UNL     1      -1.356  12.065  15.224  1.00  0.00     0.072 C 
HETATM   14  C7  UNL     1      -2.238  11.152  15.995  1.00  0.00     0.088 C 
HETATM   15  N5  UNL     1      -0.726  12.989  15.865  1.00  0.00    -0.389 N 
ATOM     16  H52 UNL     1      -0.120  13.616  15.336  1.00  0.00     0.157 HD
ATOM     17  H51 UNL     1      -0.854  13.063  16.874  1.00  0.00     0.157 HD
ENDBRANCH  11  13
ENDBRANCH   8  11
BRANCH   1  18
HETATM   18  C2  UNL     1       3.199   8.965  13.875  1.00  0.00     0.299 C 
HETATM   19  O2  UNL     1       4.332   8.773  13.371  1.00  0.00    -0.262 OA
BRANCH  18  20
HETATM   20  O1  UNL     1       3.078   8.760  15.238  1.00  0.00    -0.324 OA
HETATM   21  C1  UNL     1       4.240   8.719  16.044  1.00  0.00     0.213 C 
ENDBRANCH  18  20
ENDBRANCH   1  18
BRANCH   3  22
HETATM   22  O3  UNL     1       0.742   7.927  14.183  1.00  0.00    -0.291 OA
ATOM     23  H3  UNL     1      -0.176   7.697  14.265  1.00  0.00     0.239 HD
ENDBRANCH   3  22
TORSDOF 5
ENDMDL
MODEL 2
REMARK VINA RESULT: -5.919109489      2.576      4.756
REMARK  5 active torsions:
REMARK  status: ('A' for Active; 'I' for Inactive)
REMARK    1  A    between atoms: O1_2  and  C2_3 
REMARK    2  A    between atoms: C2_3  and  C3_5 
REMARK    3  A    between atoms: N1_7  and  O3_8 
REMARK    4  A    between atoms: C5_14  and  N4_15 
REMARK    5  A    between atoms: N4_15  and  C6_17 
ROOT
HETATM    1  C3  UNL     1       1.057   9.202  13.842  1.00  0.00     0.228 C 
HETATM    2  C4  UNL     1       2.135   8.495  14.677  1.00  0.00     0.063 C 
HETATM    3  N1  UNL     1       0.679   8.341  12.769  1.00  0.00    -0.060 NA
HETATM    4  N2  UNL     1       1.658   8.213  11.784  1.00  0.00    -0.235 N 
ATOM      5  H2  UNL     1       2.114   7.309  11.668  1.00  0.00     0.204 HD
HETATM    6  N3  UNL     1       2.042   9.262  10.953  1.00  0.00    -0.266 N 
ATOM      7  H3  UNL     1       2.242   9.093   9.967  1.00  0.00     0.190 HD
HETATM    8  C5  UNL     1       2.143  10.455  11.449  1.00  0.00     0.194 C 
HETATM    9  S1  UNL     1       1.789  10.672  13.151  1.00  0.00     0.123 S 
HETATM   10  O4  UNL     1       1.050  11.933  13.472  1.00  0.00    -0.247 OA
ENDROOT
BRANCH   8  11
HETATM   11  N4  UNL     1       2.536  11.544  10.608  1.00  0.00    -0.324 N 
ATOM     12  H4  UNL     1       2.134  12.474  10.730  1.00  0.00     0.169 HD
BRANCH  11  13
HETATM   13  C6  UNL     1       3.500  11.293   9.602  1.00  0.00     0.072 C 
HETATM   14  C7  UNL     1       3.245  10.395   8.445  1.00  0.00     0.088 C 
HETATM   15  N5  UNL     1       4.652  11.865   9.687  1.00  0.00    -0.389 N 
ATOM     16  H52 UNL     1       4.827  12.482  10.480  1.00  0.00     0.157 HD
ATOM     17  H51 UNL     1       5.346  11.684   8.962  1.00  0.00     0.157 HD
ENDBRANCH  11  13
ENDBRANCH   8  11
BRANCH   1  18
HETATM   18  C2  UNL     1      -0.068   9.463  14.736  1.00  0.00     0.299 C 
HETATM   19  O2  UNL     1      -0.007   9.036  15.914  1.00  0.00    -0.262 OA
BRANCH  18  20
HETATM   20  O1  UNL     1      -1.213  10.156  14.381  1.00  0.00    -0.324 OA
HETATM   21  C1  UNL     1      -1.838  11.002  15.326  1.00  0.00     0.213 C 
ENDBRANCH  18  20
ENDBRANCH   1  18
BRANCH   3  22
HETATM   22  O3  UNL     1      -0.510   8.669  12.209  1.00  0.00    -0.291 OA
ATOM     23  H3  UNL     1      -1.229   8.679  12.829  1.00  0.00     0.239 HD
ENDBRANCH   3  22
TORSDOF 5
ENDMDL
MODEL 3
REMARK VINA RESULT: -5.878522365      2.855      5.190
REMARK  5 active torsions:
REMARK  status: ('A' for Active; 'I' for Inactive)
REMARK    1  A    between atoms: O1_2  and  C2_3 
REMARK    2  A    between atoms: C2_3  and  C3_5 
REMARK    3  A    between atoms: N1_7  and  O3_8 
REMARK    4  A    between atoms: C5_14  and  N4_15 
REMARK    5  A    between atoms: N4_15  and  C6_17 
ROOT
HETATM    1  C3  UNL     1       2.167   9.816  14.444  1.00  0.00     0.228 C 
HETATM    2  C4  UNL     1       3.201  10.807  14.996  1.00  0.00     0.063 C 
HETATM    3  N1  UNL     1       2.586   8.493  14.777  1.00  0.00    -0.060 NA
HETATM    4  N2  UNL     1       3.698   8.062  14.054  1.00  0.00    -0.235 N 
ATOM      5  H2  UNL     1       4.573   7.912  14.555  1.00  0.00     0.204 HD
HETATM    6  N3  UNL     1       3.670   7.826  12.683  1.00  0.00    -0.266 N 
ATOM      7  H3  UNL     1       4.172   7.032  12.284  1.00  0.00     0.190 HD
HETATM    8  C5  UNL     1       2.998   8.628  11.918  1.00  0.00     0.194 C 
HETATM    9  S1  UNL     1       2.163   9.973  12.669  1.00  0.00     0.123 S 
HETATM   10  O4  UNL     1       0.819  10.270  12.083  1.00  0.00    -0.247 OA
ENDROOT
BRANCH   8  11
HETATM   11  N4  UNL     1       2.958   8.400  10.506  1.00  0.00    -0.324 N 
ATOM     12  H4  UNL     1       2.305   7.728  10.101  1.00  0.00     0.169 HD
BRANCH  11  13
HETATM   13  C6  UNL     1       3.851   9.135   9.689  1.00  0.00     0.072 C 
HETATM   14  C7  UNL     1       3.447  10.360   8.951  1.00  0.00     0.088 C 
HETATM   15  N5  UNL     1       5.068   8.729   9.575  1.00  0.00    -0.389 N 
ATOM     16  H52 UNL     1       5.345   7.888  10.082  1.00  0.00     0.157 HD
ATOM     17  H51 UNL     1       5.711   9.258   8.986  1.00  0.00     0.157 HD
ENDBRANCH  11  13
ENDBRANCH   8  11
BRANCH   1  18
HETATM   18  C2  UNL     1       0.889  10.142  15.071  1.00  0.00     0.299 C 
HETATM   19  O2  UNL     1       0.855  11.076  15.908  1.00  0.00    -0.262 OA
BRANCH  18  20
HETATM   20  O1  UNL     1      -0.306   9.493  14.810  1.00  0.00    -0.324 OA
HETATM   21  C1  UNL     1      -1.506  10.239  14.748  1.00  0.00     0.213 C 
ENDBRANCH  18  20
ENDBRANCH   1  18
BRANCH   3  22
HETATM   22  O3  UNL     1       1.591   7.577  14.697  1.00  0.00    -0.291 OA
ATOM     23  H3  UNL     1       1.714   6.835  15.276  1.00  0.00     0.239 HD
ENDBRANCH   3  22
TORSDOF 5
ENDMDL
MODEL 4
REMARK VINA RESULT: -5.852840305      2.745      4.260
REMARK  5 active torsions:
REMARK  status: ('A' for Active; 'I' for Inactive)
REMARK    1  A    between atoms: O1_2  and  C2_3 
REMARK    2  A    between atoms: C2_3  and  C3_5 
REMARK    3  A    between atoms: N1_7  and  O3_8 
REMARK    4  A    between atoms: C5_14  and  N4_15 
REMARK    5  A    between atoms: N4_15  and  C6_17 
ROOT
HETATM    1  C3  UNL     1       2.147   9.330  12.358  1.00  0.00     0.228 C 
HETATM    2  C4  UNL     1       2.372  10.840  12.193  1.00  0.00     0.063 C 
HETATM    3  N1  UNL     1       0.749   9.095  12.517  1.00  0.00    -0.060 NA
HETATM    4  N2  UNL     1       0.249   9.518  13.748  1.00  0.00    -0.235 N 
ATOM      5  H2  UNL     1      -0.404  10.301  13.763  1.00  0.00     0.204 HD
HETATM    6  N3  UNL     1       0.598   8.922  14.957  1.00  0.00    -0.266 N 
ATOM      7  H3  UNL     1      -0.102   8.782  15.685  1.00  0.00     0.190 HD
HETATM    8  C5  UNL     1       1.825   8.547  15.143  1.00  0.00     0.194 C 
HETATM    9  S1  UNL     1       2.976   8.822  13.851  1.00  0.00     0.123 S 
HETATM   10  O4  UNL     1       3.963   7.714  13.658  1.00  0.00    -0.247 OA
ENDROOT
BRANCH   8  11
HETATM   11  N4  UNL     1       2.201   7.932  16.380  1.00  0.00    -0.324 N 
ATOM     12  H4  UNL     1       1.670   7.148  16.759  1.00  0.00     0.169 HD
BRANCH  11  13
HETATM   13  C6  UNL     1       3.333   8.444  17.060  1.00  0.00     0.072 C 
HETATM   14  C7  UNL     1       3.284   9.669  17.899  1.00  0.00     0.088 C 
HETATM   15  N5  UNL     1       4.458   7.825  16.950  1.00  0.00    -0.389 N 
ATOM     16  H52 UNL     1       4.491   6.984  16.374  1.00  0.00     0.157 HD
ATOM     17  H51 UNL     1       5.273   8.194  17.439  1.00  0.00     0.157 HD
ENDBRANCH  11  13
ENDBRANCH   8  11
BRANCH   1  18
HETATM   18  C2  UNL     1       2.660   8.691  11.148  1.00  0.00     0.299 C 
HETATM   19  O2  UNL     1       2.617   7.439  11.070  1.00  0.00    -0.262 OA
BRANCH  18  20
HETATM   20  O1  UNL     1       3.195   9.367  10.065  1.00  0.00    -0.324 OA
HETATM   21  C1  UNL     1       4.505   9.061   9.630  1.00  0.00     0.213 C 
ENDBRANCH  18  20
ENDBRANCH   1  18
BRANCH   3  22
HETATM   22  O3  UNL     1       0.389   7.811  12.280  1.00  0.00    -0.291 OA
ATOM     23  H3  UNL     1       0.396   7.267  13.059  1.00  0.00     0.239 HD
ENDBRANCH   3  22
TORSDOF 5
ENDMDL
MODEL 5
REMARK VINA RESULT: -5.849825227      3.044      5.272
REMARK  5 active torsions:
REMARK  status: ('A' for Active; 'I' for Inactive)
REMARK    1  A    between atoms: O1_2  and  C2_3 
REMARK    2  A    between atoms: C2_3  and  C3_5 
REMARK    3  A    between atoms: N1_7  and  O3_8 
REMARK    4  A    between atoms: C5_14  and  N4_15 
REMARK    5  A    between atoms: N4_15  and  C6_17 
ROOT
HETATM    1  C3  UNL     1       1.475   9.738  14.335  1.00  0.00     0.228 C 
HETATM    2  C4  UNL     1       1.296  11.258  14.220  1.00  0.00     0.063 C 
HETATM    3  N1  UNL     1       2.704   9.476  15.011  1.00  0.00    -0.060 NA
HETATM    4  N2  UNL     1       3.833   9.764  14.245  1.00  0.00    -0.235 N 
ATOM      5  H2  UNL     1       4.433  10.536  14.536  1.00  0.00     0.204 HD
HETATM    6  N3  UNL     1       4.182   9.048  13.104  1.00  0.00    -0.266 N 
ATOM      7  H3  UNL     1       5.159   8.827  12.910  1.00  0.00     0.190 HD
HETATM    8  C5  UNL     1       3.248   8.665  12.290  1.00  0.00     0.194 C 
HETATM    9  S1  UNL     1       1.592   9.083  12.683  1.00  0.00     0.123 S 
HETATM   10  O4  UNL     1       0.596   8.009  12.376  1.00  0.00    -0.247 OA
ENDROOT
BRANCH   8  11
HETATM   11  N4  UNL     1       3.588   7.927  11.112  1.00  0.00    -0.324 N 
ATOM     12  H4  UNL     1       3.500   6.911  11.085  1.00  0.00     0.169 HD
BRANCH  11  13
HETATM   13  C6  UNL     1       4.050   8.650   9.985  1.00  0.00     0.072 C 
HETATM   14  C7  UNL     1       3.187   9.583   9.216  1.00  0.00     0.088 C 
HETATM   15  N5  UNL     1       5.271   8.496   9.605  1.00  0.00    -0.389 N 
ATOM     16  H52 UNL     1       5.864   7.855  10.133  1.00  0.00     0.157 HD
ATOM     17  H51 UNL     1       5.604   9.016   8.793  1.00  0.00     0.157 HD
ENDBRANCH  11  13
ENDBRANCH   8  11
BRANCH   1  18
HETATM   18  C2  UNL     1       0.333   9.233  15.094  1.00  0.00     0.299 C 
HETATM   19  O2  UNL     1      -0.816   9.382  14.614  1.00  0.00    -0.262 OA
BRANCH  18  20
HETATM   20  O1  UNL     1       0.421   8.593  16.318  1.00  0.00    -0.324 OA
HETATM   21  C1  UNL     1      -0.016   9.258  17.487  1.00  0.00     0.213 C 
ENDBRANCH  18  20
ENDBRANCH   1  18
BRANCH   3  22
HETATM   22  O3  UNL     1       2.785   8.221  15.514  1.00  0.00    -0.291 OA
ATOM     23  H3  UNL     1       3.674   7.893  15.567  1.00  0.00     0.239 HD
ENDBRANCH   3  22
TORSDOF 5
ENDMDL
