MODEL 1
REMARK VINA RESULT: -8.146576700      0.000      0.000
REMARK  3 active torsions:
REMARK  status: ('A' for Active; 'I' for Inactive)
REMARK    1  A    between atoms: N1_1  and  C1_4 
REMARK    2  A    between atoms: C4_12  and  C5_13 
REMARK    3  A    between atoms: C6_22  and  N8_23 
ROOT
HETATM    1  C1  UNL     1       7.548   5.831  22.158  1.00  0.00     0.680 A 
HETATM    2  N2  UNL     1       6.218   5.662  22.247  1.00  0.00    -0.154 N 
ATOM      3  H2  UNL     1       5.833   5.241  23.093  1.00  0.00     0.187 HD
HETATM    4  C2  UNL     1       5.378   6.025  21.266  1.00  0.00     0.290 A 
HETATM    5  O1  UNL     1       4.141   5.864  21.355  1.00  0.00    -0.265 OA
HETATM    6  C3  UNL     1       5.887   6.597  20.110  1.00  0.00     0.147 A 
HETATM    7  N3  UNL     1       5.107   6.976  19.100  1.00  0.00    -0.342 N 
ATOM      8  H3  UNL     1       4.100   6.837  19.192  1.00  0.00     0.166 HD
HETATM    9  C4  UNL     1       5.582   7.549  17.934  1.00  0.00     0.131 A 
HETATM   10  C6  UNL     1       6.926   7.723  17.845  1.00  0.00     0.206 A 
HETATM   11  N9  UNL     1       7.715   7.318  18.907  1.00  0.00    -0.319 N 
ATOM     12  H9  UNL     1       8.723   7.449  18.831  1.00  0.00     0.169 HD
HETATM   13  C7  UNL     1       7.242   6.770  20.017  1.00  0.00     0.155 A 
HETATM   14  N10 UNL     1       8.043   6.391  21.026  1.00  0.00    -0.174 N 
ATOM     15  H10 UNL     1       9.049   6.528  20.939  1.00  0.00     0.186 HD
ENDROOT
BRANCH   9  16
HETATM   16  C5  UNL     1       4.626   7.892  16.894  1.00  0.00     0.168 A 
HETATM   17  N4  UNL     1       4.668   8.274  15.639  1.00  0.00    -0.267 N 
HETATM   18  N5  UNL     1       3.455   8.456  15.162  1.00  0.00    -0.227 N 
ATOM     19  H4  UNL     1       5.526   8.413  15.105  1.00  0.00     0.190 HD
HETATM   20  N6  UNL     1       2.579   8.188  16.123  1.00  0.00    -0.227 N 
ATOM     21  H5  UNL     1       3.227   8.752  14.214  1.00  0.00     0.210 HD
HETATM   22  N7  UNL     1       3.277   7.844  17.180  1.00  0.00    -0.267 N 
ATOM     23  H6  UNL     1       1.563   8.239  16.053  1.00  0.00     0.210 HD
ATOM     24  H7  UNL     1       2.880   7.581  18.082  1.00  0.00     0.190 HD
ENDBRANCH   9  16
BRANCH  10  25
HETATM   25  N8  UNL     1       7.569   8.284  16.729  1.00  0.00    -0.095 N 
HETATM   26  O2  UNL     1       8.553   7.581  16.271  1.00  0.00    -0.530 OA
HETATM   27  O3  UNL     1       7.351   9.416  16.038  1.00  0.00    -0.530 OA
ENDBRANCH  10  25
BRANCH   1  28
HETATM   28  N1  UNL     1       8.333   5.469  23.121  1.00  0.00    -0.234 N 
ATOM     29  H12 UNL     1       7.976   4.951  23.924  1.00  0.00     0.174 HD
ATOM     30  H11 UNL     1       9.328   5.694  23.102  1.00  0.00     0.174 HD
ENDBRANCH   1  28
TORSDOF 3
ENDMDL
MODEL 2
REMARK VINA RESULT: -8.100492841      2.953      6.655
REMARK  3 active torsions:
REMARK  status: ('A' for Active; 'I' for Inactive)
REMARK    1  A    between atoms: N1_1  and  C1_4 
REMARK    2  A    between atoms: C4_12  and  C5_13 
REMARK    3  A    between atoms: C6_22  and  N8_23 
ROOT
HETATM    1  C1  UNL     1       1.475   9.042  13.140  1.00  0.00     0.680 A 
HETATM    2  N2  UNL     1       0.521   9.081  14.085  1.00  0.00    -0.154 N 
ATOM      3  H2  UNL     1      -0.440   9.280  13.803  1.00  0.00     0.187 HD
HETATM    4  C2  UNL     1       0.782   8.870  15.384  1.00  0.00     0.290 A 
HETATM    5  O1  UNL     1      -0.111   8.909  16.258  1.00  0.00    -0.265 OA
HETATM    6  C3  UNL     1       2.083   8.601  15.782  1.00  0.00     0.147 A 
HETATM    7  N3  UNL     1       2.408   8.385  17.054  1.00  0.00    -0.342 N 
ATOM      8  H3  UNL     1       1.665   8.421  17.753  1.00  0.00     0.166 HD
HETATM    9  C4  UNL     1       3.695   8.114  17.485  1.00  0.00     0.131 A 
HETATM   10  C6  UNL     1       4.659   8.072  16.530  1.00  0.00     0.206 A 
HETATM   11  N9  UNL     1       4.296   8.302  15.215  1.00  0.00    -0.319 N 
ATOM     12  H9  UNL     1       5.027   8.271  14.505  1.00  0.00     0.169 HD
HETATM   13  C7  UNL     1       3.058   8.560  14.820  1.00  0.00     0.155 A 
HETATM   14  N10 UNL     1       2.747   8.777  13.533  1.00  0.00    -0.174 N 
ATOM     15  H10 UNL     1       3.486   8.743  12.831  1.00  0.00     0.186 HD
ENDROOT
BRANCH   9  16
HETATM   16  C5  UNL     1       3.921   7.926  18.908  1.00  0.00     0.168 A 
HETATM   17  N4  UNL     1       3.764   6.963  19.787  1.00  0.00    -0.267 N 
HETATM   18  N5  UNL     1       4.143   7.353  20.984  1.00  0.00    -0.227 N 
ATOM     19  H4  UNL     1       3.397   6.037  19.569  1.00  0.00     0.190 HD
HETATM   20  N6  UNL     1       4.565   8.610  20.906  1.00  0.00    -0.227 N 
ATOM     21  H5  UNL     1       4.118   6.786  21.831  1.00  0.00     0.210 HD
HETATM   22  N7  UNL     1       4.435   8.970  19.650  1.00  0.00    -0.267 N 
ATOM     23  H6  UNL     1       4.920   9.183  21.671  1.00  0.00     0.210 HD
ATOM     24  H7  UNL     1       4.678   9.887  19.277  1.00  0.00     0.190 HD
ENDBRANCH   9  16
BRANCH  10  25
HETATM   25  N8  UNL     1       6.014   7.815  16.799  1.00  0.00    -0.095 N 
HETATM   26  O2  UNL     1       6.682   8.845  17.206  1.00  0.00    -0.530 OA
HETATM   27  O3  UNL     1       6.752   6.695  16.720  1.00  0.00    -0.530 OA
ENDBRANCH  10  25
BRANCH   1  28
HETATM   28  N1  UNL     1       1.192   9.251  11.895  1.00  0.00    -0.234 N 
ATOM     29  H12 UNL     1       0.504   8.675  11.408  1.00  0.00     0.174 HD
ATOM     30  H11 UNL     1       1.649   9.995  11.369  1.00  0.00     0.174 HD
ENDBRANCH   1  28
TORSDOF 3
ENDMDL
MODEL 3
REMARK VINA RESULT: -8.046972703      3.438      6.294
REMARK  3 active torsions:
REMARK  status: ('A' for Active; 'I' for Inactive)
REMARK    1  A    between atoms: N1_1  and  C1_4 
REMARK    2  A    between atoms: C4_12  and  C5_13 
REMARK    3  A    between atoms: C6_22  and  N8_23 
ROOT
HETATM    1  C1  UNL     1       5.524  11.517  19.909  1.00  0.00     0.680 A 
HETATM    2  N2  UNL     1       6.791  11.433  20.345  1.00  0.00    -0.154 N 
ATOM      3  H2  UNL     1       7.386  12.260  20.288  1.00  0.00     0.187 HD
HETATM    4  C2  UNL     1       7.306  10.302  20.853  1.00  0.00     0.290 A 
HETATM    5  O1  UNL     1       8.487  10.230  21.257  1.00  0.00    -0.265 OA
HETATM    6  C3  UNL     1       6.511   9.169  20.936  1.00  0.00     0.147 A 
HETATM    7  N3  UNL     1       6.962   8.017  21.427  1.00  0.00    -0.342 N 
ATOM      8  H3  UNL     1       7.928   7.979  21.752  1.00  0.00     0.166 HD
HETATM    9  C4  UNL     1       6.196   6.869  21.524  1.00  0.00     0.131 A 
HETATM   10  C6  UNL     1       4.913   6.955  21.085  1.00  0.00     0.206 A 
HETATM   11  N9  UNL     1       4.470   8.163  20.576  1.00  0.00    -0.319 N 
ATOM     12  H9  UNL     1       3.506   8.217  20.246  1.00  0.00     0.169 HD
HETATM   13  C7  UNL     1       5.218   9.253  20.491  1.00  0.00     0.155 A 
HETATM   14  N10 UNL     1       4.748  10.407  19.991  1.00  0.00    -0.174 N 
ATOM     15  H10 UNL     1       3.783  10.450  19.665  1.00  0.00     0.186 HD
ENDROOT
BRANCH   9  16
HETATM   16  C5  UNL     1       6.817   5.667  22.053  1.00  0.00     0.168 A 
HETATM   17  N4  UNL     1       7.111   5.178  23.235  1.00  0.00    -0.267 N 
HETATM   18  N5  UNL     1       7.695   4.005  23.128  1.00  0.00    -0.227 N 
ATOM     19  H4  UNL     1       6.913   5.647  24.119  1.00  0.00     0.190 HD
HETATM   20  N6  UNL     1       7.795   3.700  21.839  1.00  0.00    -0.227 N 
ATOM     21  H5  UNL     1       8.017   3.427  23.903  1.00  0.00     0.210 HD
HETATM   22  N7  UNL     1       7.266   4.701  21.176  1.00  0.00    -0.267 N 
ATOM     23  H6  UNL     1       8.203   2.853  21.443  1.00  0.00     0.210 HD
ATOM     24  H7  UNL     1       7.197   4.757  20.160  1.00  0.00     0.190 HD
ENDBRANCH   9  16
BRANCH  10  25
HETATM   25  N8  UNL     1       4.007   5.882  21.107  1.00  0.00    -0.095 N 
HETATM   26  O2  UNL     1       4.421   4.820  20.498  1.00  0.00    -0.530 OA
HETATM   27  O3  UNL     1       2.785   5.746  21.651  1.00  0.00    -0.530 OA
ENDBRANCH  10  25
BRANCH   1  28
HETATM   28  N1  UNL     1       5.057  12.622  19.422  1.00  0.00    -0.234 N 
ATOM     29  H12 UNL     1       4.614  13.316  20.025  1.00  0.00     0.174 HD
ATOM     30  H11 UNL     1       5.118  12.825  18.425  1.00  0.00     0.174 HD
ENDBRANCH   1  28
TORSDOF 3
ENDMDL
MODEL 4
REMARK VINA RESULT: -7.889002842      3.501      7.418
REMARK  3 active torsions:
REMARK  status: ('A' for Active; 'I' for Inactive)
REMARK    1  A    between atoms: N1_1  and  C1_4 
REMARK    2  A    between atoms: C4_12  and  C5_13 
REMARK    3  A    between atoms: C6_22  and  N8_23 
ROOT
HETATM    1  C1  UNL     1       2.006  10.321  11.482  1.00  0.00     0.680 A 
HETATM    2  N2  UNL     1       1.187   9.420  12.049  1.00  0.00    -0.154 N 
ATOM      3  H2  UNL     1       0.300   9.206  11.591  1.00  0.00     0.187 HD
HETATM    4  C2  UNL     1       1.489   8.792  13.195  1.00  0.00     0.290 A 
HETATM    5  O1  UNL     1       0.721   7.955  13.719  1.00  0.00    -0.265 OA
HETATM    6  C3  UNL     1       2.689   9.074  13.831  1.00  0.00     0.147 A 
HETATM    7  N3  UNL     1       3.046   8.486  14.970  1.00  0.00    -0.342 N 
ATOM      8  H3  UNL     1       2.406   7.806  15.382  1.00  0.00     0.166 HD
HETATM    9  C4  UNL     1       4.235   8.744  15.630  1.00  0.00     0.131 A 
HETATM   10  C6  UNL     1       5.064   9.653  15.055  1.00  0.00     0.206 A 
HETATM   11  N9  UNL     1       4.669  10.250  13.871  1.00  0.00    -0.319 N 
ATOM     12  H9  UNL     1       5.297  10.934  13.448  1.00  0.00     0.169 HD
HETATM   13  C7  UNL     1       3.526   9.991  13.253  1.00  0.00     0.155 A 
HETATM   14  N10 UNL     1       3.180  10.594  12.105  1.00  0.00    -0.174 N 
ATOM     15  H10 UNL     1       3.815  11.274  11.690  1.00  0.00     0.186 HD
ENDROOT
BRANCH   9  16
HETATM   16  C5  UNL     1       4.492   8.056  16.884  1.00  0.00     0.168 A 
HETATM   17  N4  UNL     1       5.527   7.530  17.496  1.00  0.00    -0.267 N 
HETATM   18  N5  UNL     1       5.177   7.014  18.654  1.00  0.00    -0.227 N 
ATOM     19  H4  UNL     1       6.476   7.523  17.124  1.00  0.00     0.190 HD
HETATM   20  N6  UNL     1       3.872   7.199  18.821  1.00  0.00    -0.227 N 
ATOM     21  H5  UNL     1       5.801   6.550  19.312  1.00  0.00     0.210 HD
HETATM   22  N7  UNL     1       3.444   7.831  17.753  1.00  0.00    -0.267 N 
ATOM     23  H6  UNL     1       3.313   6.907  19.623  1.00  0.00     0.210 HD
ATOM     24  H7  UNL     1       2.479   8.113  17.589  1.00  0.00     0.190 HD
ENDBRANCH   9  16
BRANCH  10  25
HETATM   25  N8  UNL     1       6.304  10.031  15.597  1.00  0.00    -0.095 N 
HETATM   26  O2  UNL     1       6.437  11.303  15.787  1.00  0.00    -0.530 OA
HETATM   27  O3  UNL     1       7.383   9.318  15.964  1.00  0.00    -0.530 OA
ENDBRANCH  10  25
BRANCH   1  28
HETATM   28  N1  UNL     1       1.686  10.912  10.375  1.00  0.00    -0.234 N 
ATOM     29  H12 UNL     1       0.713  11.126  10.156  1.00  0.00     0.174 HD
ATOM     30  H11 UNL     1       2.398  11.176   9.695  1.00  0.00     0.174 HD
ENDBRANCH   1  28
TORSDOF 3
ENDMDL
MODEL 5
REMARK VINA RESULT: -7.712659709      7.248      9.478
REMARK  3 active torsions:
REMARK  status: ('A' for Active; 'I' for Inactive)
REMARK    1  A    between atoms: N1_1  and  C1_4 
REMARK    2  A    between atoms: C4_12  and  C5_13 
REMARK    3  A    between atoms: C6_22  and  N8_23 
ROOT
HETATM    1  C1  UNL     1       4.812   8.567   9.782  1.00  0.00     0.680 A 
HETATM    2  N2  UNL     1       4.099   9.463   9.079  1.00  0.00    -0.154 N 
ATOM      3  H2  UNL     1       4.387   9.678   8.124  1.00  0.00     0.187 HD
HETATM    4  C2  UNL     1       3.024  10.085   9.585  1.00  0.00     0.290 A 
HETATM    5  O1  UNL     1       2.364  10.918   8.926  1.00  0.00    -0.265 OA
HETATM    6  C3  UNL     1       2.621   9.804  10.882  1.00  0.00     0.147 A 
HETATM    7  N3  UNL     1       1.565  10.389  11.442  1.00  0.00    -0.342 N 
ATOM      8  H3  UNL     1       1.040  11.066  10.888  1.00  0.00     0.166 HD
HETATM    9  C4  UNL     1       1.137  10.132  12.733  1.00  0.00     0.131 A 
HETATM   10  C6  UNL     1       1.856   9.225  13.443  1.00  0.00     0.206 A 
HETATM   11  N9  UNL     1       2.951   8.632  12.838  1.00  0.00    -0.319 N 
ATOM     12  H9  UNL     1       3.487   7.954  13.379  1.00  0.00     0.169 HD
HETATM   13  C7  UNL     1       3.347   8.891  11.600  1.00  0.00     0.155 A 
HETATM   14  N10 UNL     1       4.416   8.294  11.050  1.00  0.00    -0.174 N 
ATOM     15  H10 UNL     1       4.944   7.617  11.600  1.00  0.00     0.186 HD
ENDROOT
BRANCH   9  16
HETATM   16  C5  UNL     1      -0.015  10.860  13.236  1.00  0.00     0.168 A 
HETATM   17  N4  UNL     1      -1.318  10.825  13.079  1.00  0.00    -0.267 N 
HETATM   18  N5  UNL     1      -1.905  11.753  13.802  1.00  0.00    -0.227 N 
ATOM     19  H4  UNL     1      -1.809  10.165  12.476  1.00  0.00     0.190 HD
HETATM   20  N6  UNL     1      -0.970  12.428  14.461  1.00  0.00    -0.227 N 
ATOM     21  H5  UNL     1      -2.908  11.926  13.849  1.00  0.00     0.210 HD
HETATM   22  N7  UNL     1       0.182  11.896  14.126  1.00  0.00    -0.267 N 
ATOM     23  H6  UNL     1      -1.119  13.208  15.102  1.00  0.00     0.210 HD
ATOM     24  H7  UNL     1       1.090  12.204  14.472  1.00  0.00     0.190 HD
ENDBRANCH   9  16
BRANCH  10  25
HETATM   25  N8  UNL     1       1.560   8.854  14.765  1.00  0.00    -0.095 N 
HETATM   26  O2  UNL     1       1.234   7.612  14.911  1.00  0.00    -0.530 OA
HETATM   27  O3  UNL     1       1.555   9.549  15.916  1.00  0.00    -0.530 OA
ENDBRANCH  10  25
BRANCH   1  28
HETATM   28  N1  UNL     1       5.846   7.984   9.266  1.00  0.00    -0.234 N 
ATOM     29  H12 UNL     1       6.319   8.375   8.451  1.00  0.00     0.174 HD
ATOM     30  H11 UNL     1       6.214   7.118   9.661  1.00  0.00     0.174 HD
ENDBRANCH   1  28
TORSDOF 3
ENDMDL
