MODEL 1
REMARK VINA RESULT: -8.873114574      0.000      0.000
REMARK  14 active torsions:
REMARK  status: ('A' for Active; 'I' for Inactive)
REMARK    1  A    between atoms: C2_2  and  C3_3 
REMARK    2  A    between atoms: C5_5  and  O1_6 
REMARK    3  A    between atoms: C10_14  and  O4_15 
REMARK    4  A    between atoms: O4_15  and  C11_16 
REMARK    5  A    between atoms: C11_16  and  C12_17 
REMARK    6  A    between atoms: C12_17  and  C13_18 
REMARK    7  A    between atoms: C13_18  and  O5_19 
REMARK    8  A    between atoms: O5_19  and  C14_20 
REMARK    9  A    between atoms: C14_20  and  O6_21 
REMARK   10  A    between atoms: O6_21  and  C15_22 
REMARK   11  A    between atoms: C15_22  and  C16_23 
REMARK   12  A    between atoms: C20_29  and  O7_30 
REMARK   13  A    between atoms: C21_32  and  O8_33 
REMARK   14  A    between atoms: C22_35  and  O9_36 
ROOT
HETATM    1  C3  UNL     1      20.689  67.391  47.294  1.00  0.00     0.081 C 
HETATM    2  C4  UNL     1      22.128  67.340  47.111  1.00  0.00     0.065 C 
HETATM    3  C5  UNL     1      22.915  66.106  46.961  1.00  0.00     0.088 C 
HETATM    4  C6  UNL     1      22.396  65.073  46.012  1.00  0.00     0.044 C 
HETATM    5  C7  UNL     1      21.937  63.804  46.683  1.00  0.00     0.051 C 
HETATM    6  C8  UNL     1      21.629  63.925  48.113  1.00  0.00     0.169 A 
HETATM    7  O2  UNL     1      20.843  62.825  48.564  1.00  0.00    -0.222 OA
HETATM    8  O3  UNL     1      19.656  63.419  48.390  1.00  0.00    -0.227 OA
HETATM    9  C9  UNL     1      19.907  64.632  48.998  1.00  0.00     0.249 C 
HETATM   10  C10 UNL     1      19.167  65.774  48.300  1.00  0.00     0.252 C 
HETATM   11  N1  UNL     1      19.906  66.215  47.164  1.00  0.00    -0.390 N 
ATOM     12  H1  UNL     1      19.873  65.702  46.284  1.00  0.00     0.156 HD
HETATM   13  C20 UNL     1      21.300  64.985  48.965  1.00  0.00     0.165 A 
HETATM   14  C21 UNL     1      22.602  64.419  48.852  1.00  0.00     0.160 A 
HETATM   15  C22 UNL     1      23.479  65.513  48.231  1.00  0.00     0.193 C 
ENDROOT
BRANCH  10  16
HETATM   16  O4  UNL     1      17.962  65.254  47.860  1.00  0.00    -0.364 OA
BRANCH  16  17
HETATM   17  C11 UNL     1      16.940  66.195  47.847  1.00  0.00     0.172 C 
BRANCH  17  18
HETATM   18  C12 UNL     1      15.654  65.421  47.526  1.00  0.00     0.052 C 
BRANCH  18  19
HETATM   19  C13 UNL     1      15.217  65.755  46.116  1.00  0.00     0.172 C 
BRANCH  19  20
HETATM   20  O5  UNL     1      15.589  64.705  45.290  1.00  0.00    -0.367 OA
BRANCH  20  21
HETATM   21  C14 UNL     1      16.327  65.140  44.190  1.00  0.00     0.337 C 
BRANCH  21  22
HETATM   22  O6  UNL     1      16.014  64.314  43.116  1.00  0.00    -0.363 OA
BRANCH  22  23
HETATM   23  C15 UNL     1      16.890  63.248  42.998  1.00  0.00     0.198 C 
BRANCH  23  24
HETATM   24  C16 UNL     1      17.094  62.997  41.548  1.00  0.00     0.001 C 
HETATM   25  C17 UNL     1      18.208  63.381  40.942  1.00  0.00    -0.089 C 
HETATM   26  C18 UNL     1      18.407  63.129  39.493  1.00  0.00     0.042 C 
HETATM   27  C19 UNL     1      19.262  64.072  41.724  1.00  0.00     0.042 C 
ENDBRANCH  23  24
ENDBRANCH  22  23
ENDBRANCH  21  22
ENDBRANCH  20  21
ENDBRANCH  19  20
ENDBRANCH  18  19
ENDBRANCH  17  18
ENDBRANCH  16  17
ENDBRANCH  10  16
BRANCH  13  28
HETATM   28  O7  UNL     1      21.577  65.790  50.008  1.00  0.00    -0.380 OA
ATOM     29  H7  UNL     1      21.790  66.643  50.367  1.00  0.00     0.211 HD
ENDBRANCH  13  28
BRANCH   1  30
HETATM   30  C2  UNL     1      20.013  68.455  46.423  1.00  0.00     0.020 C 
HETATM   31  C1  UNL     1      19.234  67.929  45.284  1.00  0.00     0.007 C 
ENDBRANCH   1  30
BRANCH  14  32
HETATM   32  O8  UNL     1      23.282  63.675  49.820  1.00  0.00    -0.380 OA
ATOM     33  H8  UNL     1      23.615  64.051  50.627  1.00  0.00     0.211 HD
ENDBRANCH  14  32
BRANCH  15  34
HETATM   34  O9  UNL     1      23.667  66.529  49.142  1.00  0.00    -0.389 OA
ATOM     35  H9  UNL     1      24.297  66.238  49.791  1.00  0.00     0.210 HD
ENDBRANCH  15  34
BRANCH   3  36
HETATM   36  O1  UNL     1      24.133  66.557  46.337  1.00  0.00    -0.387 OA
ATOM     37  H1  UNL     1      24.809  66.281  46.944  1.00  0.00     0.210 HD
ENDBRANCH   3  36
TORSDOF 14
ENDMDL
MODEL 2
REMARK VINA RESULT: -8.700432665      0.747      1.068
REMARK  14 active torsions:
REMARK  status: ('A' for Active; 'I' for Inactive)
REMARK    1  A    between atoms: C2_2  and  C3_3 
REMARK    2  A    between atoms: C5_5  and  O1_6 
REMARK    3  A    between atoms: C10_14  and  O4_15 
REMARK    4  A    between atoms: O4_15  and  C11_16 
REMARK    5  A    between atoms: C11_16  and  C12_17 
REMARK    6  A    between atoms: C12_17  and  C13_18 
REMARK    7  A    between atoms: C13_18  and  O5_19 
REMARK    8  A    between atoms: O5_19  and  C14_20 
REMARK    9  A    between atoms: C14_20  and  O6_21 
REMARK   10  A    between atoms: O6_21  and  C15_22 
REMARK   11  A    between atoms: C15_22  and  C16_23 
REMARK   12  A    between atoms: C20_29  and  O7_30 
REMARK   13  A    between atoms: C21_32  and  O8_33 
REMARK   14  A    between atoms: C22_35  and  O9_36 
ROOT
HETATM    1  C3  UNL     1      20.742  67.361  47.324  1.00  0.00     0.081 C 
HETATM    2  C4  UNL     1      22.183  67.330  47.155  1.00  0.00     0.065 C 
HETATM    3  C5  UNL     1      22.987  66.110  46.988  1.00  0.00     0.088 C 
HETATM    4  C6  UNL     1      22.490  65.090  46.013  1.00  0.00     0.044 C 
HETATM    5  C7  UNL     1      22.040  63.802  46.653  1.00  0.00     0.051 C 
HETATM    6  C8  UNL     1      21.717  63.890  48.083  1.00  0.00     0.169 A 
HETATM    7  O2  UNL     1      20.940  62.772  48.503  1.00  0.00    -0.222 OA
HETATM    8  O3  UNL     1      19.747  63.355  48.329  1.00  0.00    -0.227 OA
HETATM    9  C9  UNL     1      19.978  64.558  48.964  1.00  0.00     0.249 C 
HETATM   10  C10 UNL     1      19.230  65.705  48.282  1.00  0.00     0.252 C 
HETATM   11  N1  UNL     1      19.975  66.179  47.162  1.00  0.00    -0.390 N 
ATOM     12  H1  UNL     1      19.958  65.683  46.272  1.00  0.00     0.156 HD
HETATM   13  C20 UNL     1      21.366  64.929  48.952  1.00  0.00     0.165 A 
HETATM   14  C21 UNL     1      22.676  64.381  48.842  1.00  0.00     0.160 A 
HETATM   15  C22 UNL     1      23.546  65.498  48.252  1.00  0.00     0.193 C 
ENDROOT
BRANCH  10  16
HETATM   16  O4  UNL     1      18.037  65.181  47.819  1.00  0.00    -0.364 OA
BRANCH  16  17
HETATM   17  C11 UNL     1      16.984  66.085  47.891  1.00  0.00     0.172 C 
BRANCH  17  18
HETATM   18  C12 UNL     1      16.377  66.144  46.482  1.00  0.00     0.052 C 
BRANCH  18  19
HETATM   19  C13 UNL     1      15.327  65.063  46.352  1.00  0.00     0.172 C 
BRANCH  19  20
HETATM   20  O5  UNL     1      15.600  64.332  45.206  1.00  0.00    -0.367 OA
BRANCH  20  21
HETATM   21  C14 UNL     1      16.148  65.123  44.198  1.00  0.00     0.337 C 
BRANCH  21  22
HETATM   22  O6  UNL     1      16.020  64.432  42.998  1.00  0.00    -0.363 OA
BRANCH  22  23
HETATM   23  C15 UNL     1      16.910  63.376  42.899  1.00  0.00     0.198 C 
BRANCH  23  24
HETATM   24  C16 UNL     1      18.201  63.926  42.410  1.00  0.00     0.001 C 
HETATM   25  C17 UNL     1      19.309  63.798  43.124  1.00  0.00    -0.089 C 
HETATM   26  C18 UNL     1      20.596  64.349  42.631  1.00  0.00     0.042 C 
HETATM   27  C19 UNL     1      19.257  63.096  44.430  1.00  0.00     0.042 C 
ENDBRANCH  23  24
ENDBRANCH  22  23
ENDBRANCH  21  22
ENDBRANCH  20  21
ENDBRANCH  19  20
ENDBRANCH  18  19
ENDBRANCH  17  18
ENDBRANCH  16  17
ENDBRANCH  10  16
BRANCH  13  28
HETATM   28  O7  UNL     1      21.623  65.715  50.014  1.00  0.00    -0.380 OA
ATOM     29  H7  UNL     1      21.334  66.215  50.769  1.00  0.00     0.211 HD
ENDBRANCH  13  28
BRANCH   1  30
HETATM   30  C2  UNL     1      20.063  68.434  46.468  1.00  0.00     0.020 C 
HETATM   31  C1  UNL     1      19.361  67.929  45.271  1.00  0.00     0.007 C 
ENDBRANCH   1  30
BRANCH  14  32
HETATM   32  O8  UNL     1      23.356  63.626  49.801  1.00  0.00    -0.380 OA
ATOM     33  H8  UNL     1      23.944  62.913  49.581  1.00  0.00     0.211 HD
ENDBRANCH  14  32
BRANCH  15  34
HETATM   34  O9  UNL     1      23.712  66.497  49.185  1.00  0.00    -0.389 OA
ATOM     35  H9  UNL     1      22.870  66.681  49.583  1.00  0.00     0.210 HD
ENDBRANCH  15  34
BRANCH   3  36
HETATM   36  O1  UNL     1      24.206  66.588  46.386  1.00  0.00    -0.387 OA
ATOM     37  H1  UNL     1      23.930  67.363  45.912  1.00  0.00     0.210 HD
ENDBRANCH   3  36
TORSDOF 14
ENDMDL
MODEL 3
REMARK VINA RESULT: -8.511786725      0.868      1.242
REMARK  14 active torsions:
REMARK  status: ('A' for Active; 'I' for Inactive)
REMARK    1  A    between atoms: C2_2  and  C3_3 
REMARK    2  A    between atoms: C5_5  and  O1_6 
REMARK    3  A    between atoms: C10_14  and  O4_15 
REMARK    4  A    between atoms: O4_15  and  C11_16 
REMARK    5  A    between atoms: C11_16  and  C12_17 
REMARK    6  A    between atoms: C12_17  and  C13_18 
REMARK    7  A    between atoms: C13_18  and  O5_19 
REMARK    8  A    between atoms: O5_19  and  C14_20 
REMARK    9  A    between atoms: C14_20  and  O6_21 
REMARK   10  A    between atoms: O6_21  and  C15_22 
REMARK   11  A    between atoms: C15_22  and  C16_23 
REMARK   12  A    between atoms: C20_29  and  O7_30 
REMARK   13  A    between atoms: C21_32  and  O8_33 
REMARK   14  A    between atoms: C22_35  and  O9_36 
ROOT
HETATM    1  C3  UNL     1      20.714  67.358  47.220  1.00  0.00     0.081 C 
HETATM    2  C4  UNL     1      22.147  67.297  46.996  1.00  0.00     0.065 C 
HETATM    3  C5  UNL     1      22.922  66.058  46.831  1.00  0.00     0.088 C 
HETATM    4  C6  UNL     1      22.370  65.022  45.904  1.00  0.00     0.044 C 
HETATM    5  C7  UNL     1      21.924  63.760  46.597  1.00  0.00     0.051 C 
HETATM    6  C8  UNL     1      21.659  63.892  48.035  1.00  0.00     0.169 A 
HETATM    7  O2  UNL     1      20.880  62.800  48.517  1.00  0.00    -0.222 OA
HETATM    8  O3  UNL     1      19.691  63.399  48.374  1.00  0.00    -0.227 OA
HETATM    9  C9  UNL     1      19.968  64.615  48.966  1.00  0.00     0.249 C 
HETATM   10  C10 UNL     1      19.214  65.756  48.282  1.00  0.00     0.252 C 
HETATM   11  N1  UNL     1      19.922  66.186  47.121  1.00  0.00    -0.390 N 
ATOM     12  H1  UNL     1      19.860  65.667  46.246  1.00  0.00     0.156 HD
HETATM   13  C20 UNL     1      21.361  64.960  48.889  1.00  0.00     0.165 A 
HETATM   14  C21 UNL     1      22.656  64.386  48.742  1.00  0.00     0.160 A 
HETATM   15  C22 UNL     1      23.520  65.470  48.088  1.00  0.00     0.193 C 
ENDROOT
BRANCH  10  16
HETATM   16  O4  UNL     1      17.994  65.242  47.881  1.00  0.00    -0.364 OA
BRANCH  16  17
HETATM   17  C11 UNL     1      16.970  66.180  47.922  1.00  0.00     0.172 C 
BRANCH  17  18
HETATM   18  C12 UNL     1      15.823  65.595  47.087  1.00  0.00     0.052 C 
BRANCH  18  19
HETATM   19  C13 UNL     1      16.157  65.743  45.618  1.00  0.00     0.172 C 
BRANCH  19  20
HETATM   20  O5  UNL     1      15.832  64.555  44.981  1.00  0.00    -0.367 OA
BRANCH  20  21
HETATM   21  C14 UNL     1      16.810  64.165  44.068  1.00  0.00     0.337 C 
BRANCH  21  22
HETATM   22  O6  UNL     1      18.050  64.474  44.614  1.00  0.00    -0.363 OA
BRANCH  22  23
HETATM   23  C15 UNL     1      19.088  63.826  43.967  1.00  0.00     0.198 C 
BRANCH  23  24
HETATM   24  C16 UNL     1      19.824  64.844  43.174  1.00  0.00     0.001 C 
HETATM   25  C17 UNL     1      19.830  64.801  41.850  1.00  0.00    -0.089 C 
HETATM   26  C18 UNL     1      20.567  65.821  41.063  1.00  0.00     0.042 C 
HETATM   27  C19 UNL     1      19.092  63.720  41.153  1.00  0.00     0.042 C 
ENDBRANCH  23  24
ENDBRANCH  22  23
ENDBRANCH  21  22
ENDBRANCH  20  21
ENDBRANCH  19  20
ENDBRANCH  18  19
ENDBRANCH  17  18
ENDBRANCH  16  17
ENDBRANCH  10  16
BRANCH  13  28
HETATM   28  O7  UNL     1      21.673  65.770  49.918  1.00  0.00    -0.380 OA
ATOM     29  H7  UNL     1      21.420  66.342  50.633  1.00  0.00     0.211 HD
ENDBRANCH  13  28
BRANCH   1  30
HETATM   30  C2  UNL     1      20.020  68.420  46.362  1.00  0.00     0.020 C 
HETATM   31  C1  UNL     1      19.210  67.892  45.246  1.00  0.00     0.007 C 
ENDBRANCH   1  30
BRANCH  14  32
HETATM   32  O8  UNL     1      23.360  63.644  49.694  1.00  0.00    -0.380 OA
ATOM     33  H8  UNL     1      23.075  63.550  50.596  1.00  0.00     0.211 HD
ENDBRANCH  14  32
BRANCH  15  34
HETATM   34  O9  UNL     1      23.741  66.491  48.986  1.00  0.00    -0.389 OA
ATOM     35  H9  UNL     1      23.847  67.300  48.501  1.00  0.00     0.210 HD
ENDBRANCH  15  34
BRANCH   3  36
HETATM   36  O1  UNL     1      24.124  66.497  46.169  1.00  0.00    -0.387 OA
ATOM     37  H1  UNL     1      24.744  66.604  46.880  1.00  0.00     0.210 HD
ENDBRANCH   3  36
TORSDOF 14
ENDMDL
MODEL 4
REMARK VINA RESULT: -8.067679805      1.097      1.297
REMARK  14 active torsions:
REMARK  status: ('A' for Active; 'I' for Inactive)
REMARK    1  A    between atoms: C2_2  and  C3_3 
REMARK    2  A    between atoms: C5_5  and  O1_6 
REMARK    3  A    between atoms: C10_14  and  O4_15 
REMARK    4  A    between atoms: O4_15  and  C11_16 
REMARK    5  A    between atoms: C11_16  and  C12_17 
REMARK    6  A    between atoms: C12_17  and  C13_18 
REMARK    7  A    between atoms: C13_18  and  O5_19 
REMARK    8  A    between atoms: O5_19  and  C14_20 
REMARK    9  A    between atoms: C14_20  and  O6_21 
REMARK   10  A    between atoms: O6_21  and  C15_22 
REMARK   11  A    between atoms: C15_22  and  C16_23 
REMARK   12  A    between atoms: C20_29  and  O7_30 
REMARK   13  A    between atoms: C21_32  and  O8_33 
REMARK   14  A    between atoms: C22_35  and  O9_36 
ROOT
HETATM    1  C3  UNL     1      21.135  67.424  47.170  1.00  0.00     0.081 C 
HETATM    2  C4  UNL     1      22.434  67.537  46.534  1.00  0.00     0.065 C 
HETATM    3  C5  UNL     1      23.088  66.472  45.758  1.00  0.00     0.088 C 
HETATM    4  C6  UNL     1      22.255  65.750  44.746  1.00  0.00     0.044 C 
HETATM    5  C7  UNL     1      21.996  64.306  45.089  1.00  0.00     0.051 C 
HETATM    6  C8  UNL     1      22.173  63.953  46.503  1.00  0.00     0.169 A 
HETATM    7  O2  UNL     1      21.538  62.713  46.806  1.00  0.00    -0.222 OA
HETATM    8  O3  UNL     1      20.379  63.243  47.216  1.00  0.00    -0.227 OA
HETATM    9  C9  UNL     1      20.855  64.222  48.065  1.00  0.00     0.249 C 
HETATM   10  C10 UNL     1      19.967  65.467  48.039  1.00  0.00     0.252 C 
HETATM   11  N1  UNL     1      20.313  66.293  46.929  1.00  0.00    -0.390 N 
ATOM     12  H1  UNL     1      19.980  66.078  45.990  1.00  0.00     0.156 HD
HETATM   13  C20 UNL     1      22.173  64.669  47.705  1.00  0.00     0.165 A 
HETATM   14  C21 UNL     1      23.349  64.262  47.011  1.00  0.00     0.160 A 
HETATM   15  C22 UNL     1      24.013  65.556  46.525  1.00  0.00     0.193 C 
ENDROOT
BRANCH  10  16
HETATM   16  O4  UNL     1      18.668  65.025  47.863  1.00  0.00    -0.364 OA
BRANCH  16  17
HETATM   17  C11 UNL     1      17.731  66.045  47.965  1.00  0.00     0.172 C 
BRANCH  17  18
HETATM   18  C12 UNL     1      16.996  66.083  46.617  1.00  0.00     0.052 C 
BRANCH  18  19
HETATM   19  C13 UNL     1      15.679  65.352  46.753  1.00  0.00     0.172 C 
BRANCH  19  20
HETATM   20  O5  UNL     1      15.311  64.891  45.498  1.00  0.00    -0.367 OA
BRANCH  20  21
HETATM   21  C14 UNL     1      16.140  65.386  44.493  1.00  0.00     0.337 C 
BRANCH  21  22
HETATM   22  O6  UNL     1      15.931  64.619  43.353  1.00  0.00    -0.363 OA
BRANCH  22  23
HETATM   23  C15 UNL     1      16.791  63.536  43.281  1.00  0.00     0.198 C 
BRANCH  23  24
HETATM   24  C16 UNL     1      16.925  63.169  41.847  1.00  0.00     0.001 C 
HETATM   25  C17 UNL     1      18.045  63.417  41.184  1.00  0.00    -0.089 C 
HETATM   26  C18 UNL     1      18.174  63.049  39.752  1.00  0.00     0.042 C 
HETATM   27  C19 UNL     1      19.177  64.072  41.884  1.00  0.00     0.042 C 
ENDBRANCH  23  24
ENDBRANCH  22  23
ENDBRANCH  21  22
ENDBRANCH  20  21
ENDBRANCH  19  20
ENDBRANCH  18  19
ENDBRANCH  17  18
ENDBRANCH  16  17
ENDBRANCH  10  16
BRANCH  13  28
HETATM   28  O7  UNL     1      22.800  65.127  48.805  1.00  0.00    -0.380 OA
ATOM     29  H7  UNL     1      23.444  65.031  49.496  1.00  0.00     0.211 HD
ENDBRANCH  13  28
BRANCH   1  30
HETATM   30  C2  UNL     1      20.249  68.653  46.944  1.00  0.00     0.020 C 
HETATM   31  C1  UNL     1      20.414  69.312  45.632  1.00  0.00     0.007 C 
ENDBRANCH   1  30
BRANCH  14  32
HETATM   32  O8  UNL     1      24.280  63.306  47.424  1.00  0.00    -0.380 OA
ATOM     33  H8  UNL     1      24.084  62.631  48.063  1.00  0.00     0.211 HD
ENDBRANCH  14  32
BRANCH  15  34
HETATM   34  O9  UNL     1      24.520  66.249  47.602  1.00  0.00    -0.389 OA
ATOM     35  H9  UNL     1      25.462  66.127  47.622  1.00  0.00     0.210 HD
ENDBRANCH  15  34
BRANCH   3  36
HETATM   36  O1  UNL     1      24.053  67.182  44.957  1.00  0.00    -0.387 OA
ATOM     37  H1  UNL     1      24.769  67.340  45.560  1.00  0.00     0.210 HD
ENDBRANCH   3  36
TORSDOF 14
ENDMDL
MODEL 5
REMARK VINA RESULT: -8.058812464      1.647      3.965
REMARK  14 active torsions:
REMARK  status: ('A' for Active; 'I' for Inactive)
REMARK    1  A    between atoms: C2_2  and  C3_3 
REMARK    2  A    between atoms: C5_5  and  O1_6 
REMARK    3  A    between atoms: C10_14  and  O4_15 
REMARK    4  A    between atoms: O4_15  and  C11_16 
REMARK    5  A    between atoms: C11_16  and  C12_17 
REMARK    6  A    between atoms: C12_17  and  C13_18 
REMARK    7  A    between atoms: C13_18  and  O5_19 
REMARK    8  A    between atoms: O5_19  and  C14_20 
REMARK    9  A    between atoms: C14_20  and  O6_21 
REMARK   10  A    between atoms: O6_21  and  C15_22 
REMARK   11  A    between atoms: C15_22  and  C16_23 
REMARK   12  A    between atoms: C20_29  and  O7_30 
REMARK   13  A    between atoms: C21_32  and  O8_33 
REMARK   14  A    between atoms: C22_35  and  O9_36 
ROOT
HETATM    1  C3  UNL     1      21.206  67.185  46.161  1.00  0.00     0.081 C 
HETATM    2  C4  UNL     1      21.674  67.193  47.535  1.00  0.00     0.065 C 
HETATM    3  C5  UNL     1      22.435  66.108  48.172  1.00  0.00     0.088 C 
HETATM    4  C6  UNL     1      23.585  65.535  47.405  1.00  0.00     0.044 C 
HETATM    5  C7  UNL     1      23.374  64.110  46.963  1.00  0.00     0.051 C 
HETATM    6  C8  UNL     1      21.975  63.664  46.926  1.00  0.00     0.169 A 
HETATM    7  O2  UNL     1      21.833  62.485  46.138  1.00  0.00    -0.222 OA
HETATM    8  O3  UNL     1      21.530  63.112  44.995  1.00  0.00    -0.227 OA
HETATM    9  C9  UNL     1      20.567  63.987  45.455  1.00  0.00     0.249 C 
HETATM   10  C10 UNL     1      20.616  65.320  44.706  1.00  0.00     0.252 C 
HETATM   11  N1  UNL     1      21.618  66.163  45.268  1.00  0.00    -0.390 N 
ATOM     12  H1  UNL     1      22.603  66.035  45.035  1.00  0.00     0.156 HD
HETATM   13  C20 UNL     1      20.736  64.310  46.845  1.00  0.00     0.165 A 
HETATM   14  C21 UNL     1      21.311  63.819  48.053  1.00  0.00     0.160 A 
HETATM   15  C22 UNL     1      21.626  65.058  48.898  1.00  0.00     0.193 C 
ENDROOT
BRANCH  10  16
HETATM   16  O4  UNL     1      20.974  65.028  43.402  1.00  0.00    -0.364 OA
BRANCH  16  17
HETATM   17  C11 UNL     1      19.931  65.205  42.501  1.00  0.00     0.172 C 
BRANCH  17  18
HETATM   18  C12 UNL     1      19.797  63.878  41.741  1.00  0.00     0.052 C 
BRANCH  18  19
HETATM   19  C13 UNL     1      18.336  63.633  41.431  1.00  0.00     0.172 C 
BRANCH  19  20
HETATM   20  O5  UNL     1      17.586  64.085  42.506  1.00  0.00    -0.367 OA
BRANCH  20  21
HETATM   21  C14 UNL     1      16.988  63.038  43.205  1.00  0.00     0.337 C 
BRANCH  21  22
HETATM   22  O6  UNL     1      16.276  63.587  44.265  1.00  0.00    -0.363 OA
BRANCH  22  23
HETATM   23  C15 UNL     1      16.289  64.972  44.249  1.00  0.00     0.198 C 
BRANCH  23  24
HETATM   24  C16 UNL     1      16.773  65.428  45.578  1.00  0.00     0.001 C 
HETATM   25  C17 UNL     1      15.923  65.665  46.566  1.00  0.00    -0.089 C 
HETATM   26  C18 UNL     1      16.412  66.122  47.891  1.00  0.00     0.042 C 
HETATM   27  C19 UNL     1      14.470  65.471  46.340  1.00  0.00     0.042 C 
ENDBRANCH  23  24
ENDBRANCH  22  23
ENDBRANCH  21  22
ENDBRANCH  20  21
ENDBRANCH  19  20
ENDBRANCH  18  19
ENDBRANCH  17  18
ENDBRANCH  16  17
ENDBRANCH  10  16
BRANCH  13  28
HETATM   28  O7  UNL     1      19.542  64.639  47.372  1.00  0.00    -0.380 OA
ATOM     29  H7  UNL     1      18.614  64.475  47.498  1.00  0.00     0.211 HD
ENDBRANCH  13  28
BRANCH   1  30
HETATM   30  C2  UNL     1      21.454  68.512  45.437  1.00  0.00     0.020 C 
HETATM   31  C1  UNL     1      20.236  69.243  45.034  1.00  0.00     0.007 C 
ENDBRANCH   1  30
BRANCH  14  32
HETATM   32  O8  UNL     1      20.855  62.748  48.826  1.00  0.00    -0.380 OA
ATOM     33  H8  UNL     1      21.423  62.053  49.138  1.00  0.00     0.211 HD
ENDBRANCH  14  32
BRANCH  15  34
HETATM   34  O9  UNL     1      20.453  65.634  49.332  1.00  0.00    -0.389 OA
ATOM     35  H9  UNL     1      19.771  65.441  48.700  1.00  0.00     0.210 HD
ENDBRANCH  15  34
BRANCH   3  36
HETATM   36  O1  UNL     1      23.067  66.753  49.295  1.00  0.00    -0.387 OA
ATOM     37  H1  UNL     1      23.649  66.085  49.637  1.00  0.00     0.210 HD
ENDBRANCH   3  36
TORSDOF 14
ENDMDL
