MODEL 1
REMARK VINA RESULT: -8.291831106      0.000      0.000
REMARK  13 active torsions:
REMARK  status: ('A' for Active; 'I' for Inactive)
REMARK    1  A    between atoms: C3_3  and  C5_5 
REMARK    2  A    between atoms: C5_5  and  C6_6 
REMARK    3  A    between atoms: C5_5  and  C8_10 
REMARK    4  A    between atoms: C6_6  and  S1_7 
REMARK    5  A    between atoms: S1_7  and  C7_8 
REMARK    6  A    between atoms: C8_10  and  O2_11 
REMARK    7  A    between atoms: C8_10  and  N1_13 
REMARK    8  A    between atoms: N1_13  and  C9_15 
REMARK    9  A    between atoms: C11_17  and  N2_18 
REMARK   10  A    between atoms: C13_24  and  O4_25 
REMARK   11  A    between atoms: O4_25  and  C14_26 
REMARK   12  A    between atoms: C20_33  and  O6_34 
REMARK   13  A    between atoms: C21_36  and  O7_37 
ROOT
HETATM    1  C9  UNL     1      22.514  65.488  48.305  1.00  0.00     0.018 C 
HETATM    2  C10 UNL     1      23.302  66.648  47.830  1.00  0.00     0.090 C 
HETATM    3  C11 UNL     1      24.212  66.352  46.643  1.00  0.00     0.220 C 
HETATM    4  C12 UNL     1      25.470  65.650  46.949  1.00  0.00     0.187 C 
HETATM    5  O3  UNL     1      25.732  64.704  45.965  1.00  0.00    -0.348 OA
HETATM    6  C13 UNL     1      26.922  64.026  46.118  1.00  0.00     0.293 C 
HETATM    7  C16 UNL     1      27.541  64.116  47.461  1.00  0.00     0.104 C 
HETATM    8  C17 UNL     1      28.214  62.761  47.742  1.00  0.00     0.051 C 
HETATM    9  C18 UNL     1      28.691  65.133  47.497  1.00  0.00     0.051 C 
HETATM   10  O5  UNL     1      26.721  64.371  48.508  1.00  0.00    -0.365 OA
HETATM   11  C19 UNL     1      25.525  64.972  48.283  1.00  0.00     0.185 C 
HETATM   12  C20 UNL     1      24.420  63.964  48.470  1.00  0.00     0.184 C 
HETATM   13  C21 UNL     1      23.308  64.593  49.275  1.00  0.00     0.194 C 
ENDROOT
BRANCH   1  14
HETATM   14  N1  UNL     1      21.188  65.662  48.727  1.00  0.00    -0.368 N 
ATOM     15  H1  UNL     1      21.029  66.068  49.649  1.00  0.00     0.161 HD
BRANCH  14  16
HETATM   16  C8  UNL     1      20.072  65.316  47.963  1.00  0.00     0.226 C 
BRANCH  16  17
HETATM   17  C5  UNL     1      19.011  66.324  47.692  1.00  0.00     0.072 C 
BRANCH  17  18
HETATM   18  C3  UNL     1      19.303  67.373  46.726  1.00  0.00    -0.079 C 
HETATM   19  C2  UNL     1      18.925  67.377  45.475  1.00  0.00    -0.028 C 
HETATM   20  C1  UNL     1      19.274  68.491  44.556  1.00  0.00     0.036 C 
HETATM   21  C4  UNL     1      20.114  68.539  47.221  1.00  0.00     0.043 C 
ENDBRANCH  17  18
BRANCH  17  22
HETATM   22  C6  UNL     1      17.808  65.542  47.135  1.00  0.00     0.095 C 
BRANCH  22  23
HETATM   23  S1  UNL     1      16.279  66.105  47.938  1.00  0.00    -0.101 SA
BRANCH  23  24
HETATM   24  C7  UNL     1      14.874  65.481  47.056  1.00  0.00     0.304 C 
HETATM   25  O1  UNL     1      14.778  64.310  46.784  1.00  0.00    -0.295 OA
ENDBRANCH  23  24
ENDBRANCH  22  23
ENDBRANCH  17  22
ENDBRANCH  16  17
BRANCH  16  26
HETATM   26  O2  UNL     1      19.351  64.247  48.599  1.00  0.00    -0.376 OA
ATOM     27  H2  UNL     1      18.754  63.956  47.918  1.00  0.00     0.212 HD
ENDBRANCH  16  26
ENDBRANCH  14  16
ENDBRANCH   1  14
BRANCH  13  28
HETATM   28  O7  UNL     1      22.436  63.623  49.778  1.00  0.00    -0.387 OA
ATOM     29  H7  UNL     1      22.750  63.365  50.637  1.00  0.00     0.210 HD
ENDBRANCH  13  28
BRANCH   3  30
HETATM   30  N2  UNL     1      23.411  65.717  45.584  1.00  0.00    -0.072 N 
ATOM     31  H23 UNL     1      23.448  64.698  45.623  1.00  0.00     0.274 HD
ATOM     32  H22 UNL     1      22.409  65.827  45.733  1.00  0.00     0.274 HD
ATOM     33  H21 UNL     1      23.715  66.083  44.682  1.00  0.00     0.274 HD
ENDBRANCH   3  30
BRANCH  12  34
HETATM   34  O6  UNL     1      24.005  63.338  47.324  1.00  0.00    -0.390 OA
ATOM     35  H6  UNL     1      24.353  62.463  47.195  1.00  0.00     0.210 HD
ENDBRANCH  12  34
BRANCH   6  36
HETATM   36  O4  UNL     1      27.875  64.412  45.176  1.00  0.00    -0.359 OA
BRANCH  36  37
HETATM   37  C14 UNL     1      28.047  63.448  44.188  1.00  0.00     0.166 C 
HETATM   38  C15 UNL     1      29.450  62.942  44.108  1.00  0.00     0.033 C 
ENDBRANCH  36  37
ENDBRANCH   6  36
TORSDOF 13
ENDMDL
MODEL 2
REMARK VINA RESULT: -8.287216149      1.273      1.525
REMARK  13 active torsions:
REMARK  status: ('A' for Active; 'I' for Inactive)
REMARK    1  A    between atoms: C3_3  and  C5_5 
REMARK    2  A    between atoms: C5_5  and  C6_6 
REMARK    3  A    between atoms: C5_5  and  C8_10 
REMARK    4  A    between atoms: C6_6  and  S1_7 
REMARK    5  A    between atoms: S1_7  and  C7_8 
REMARK    6  A    between atoms: C8_10  and  O2_11 
REMARK    7  A    between atoms: C8_10  and  N1_13 
REMARK    8  A    between atoms: N1_13  and  C9_15 
REMARK    9  A    between atoms: C11_17  and  N2_18 
REMARK   10  A    between atoms: C13_24  and  O4_25 
REMARK   11  A    between atoms: O4_25  and  C14_26 
REMARK   12  A    between atoms: C20_33  and  O6_34 
REMARK   13  A    between atoms: C21_36  and  O7_37 
ROOT
HETATM    1  C9  UNL     1      22.233  65.490  48.263  1.00  0.00     0.018 C 
HETATM    2  C10 UNL     1      22.876  65.790  46.963  1.00  0.00     0.090 C 
HETATM    3  C11 UNL     1      23.827  64.709  46.462  1.00  0.00     0.220 C 
HETATM    4  C12 UNL     1      25.159  64.676  47.089  1.00  0.00     0.187 C 
HETATM    5  O3  UNL     1      25.547  63.358  47.302  1.00  0.00    -0.348 OA
HETATM    6  C13 UNL     1      26.810  63.206  47.830  1.00  0.00     0.293 C 
HETATM    7  C16 UNL     1      27.400  64.422  48.438  1.00  0.00     0.104 C 
HETATM    8  C17 UNL     1      28.233  63.965  49.648  1.00  0.00     0.051 C 
HETATM    9  C18 UNL     1      28.414  65.097  47.504  1.00  0.00     0.051 C 
HETATM   10  O5  UNL     1      26.544  65.370  48.886  1.00  0.00    -0.365 OA
HETATM   11  C19 UNL     1      25.285  65.420  48.382  1.00  0.00     0.185 C 
HETATM   12  C20 UNL     1      24.311  64.938  49.428  1.00  0.00     0.184 C 
HETATM   13  C21 UNL     1      23.122  65.868  49.462  1.00  0.00     0.194 C 
ENDROOT
BRANCH   1  14
HETATM   14  N1  UNL     1      20.891  65.834  48.482  1.00  0.00    -0.368 N 
ATOM     15  H1  UNL     1      20.670  66.395  49.305  1.00  0.00     0.161 HD
BRANCH  14  16
HETATM   16  C8  UNL     1      19.840  65.458  47.644  1.00  0.00     0.226 C 
BRANCH  16  17
HETATM   17  C5  UNL     1      18.810  66.456  47.246  1.00  0.00     0.072 C 
BRANCH  17  18
HETATM   18  C3  UNL     1      19.163  67.421  46.215  1.00  0.00    -0.079 C 
HETATM   19  C2  UNL     1      20.063  68.361  46.333  1.00  0.00    -0.028 C 
HETATM   20  C1  UNL     1      20.355  69.308  45.228  1.00  0.00     0.036 C 
HETATM   21  C4  UNL     1      18.417  67.320  44.912  1.00  0.00     0.043 C 
ENDBRANCH  17  18
BRANCH  17  22
HETATM   22  C6  UNL     1      17.620  65.649  46.698  1.00  0.00     0.095 C 
BRANCH  22  23
HETATM   23  S1  UNL     1      16.128  66.007  47.670  1.00  0.00    -0.101 SA
BRANCH  23  24
HETATM   24  C7  UNL     1      14.684  65.585  46.733  1.00  0.00     0.304 C 
HETATM   25  O1  UNL     1      14.389  64.434  46.528  1.00  0.00    -0.295 OA
ENDBRANCH  23  24
ENDBRANCH  22  23
ENDBRANCH  17  22
ENDBRANCH  16  17
BRANCH  16  26
HETATM   26  O2  UNL     1      19.064  64.418  48.261  1.00  0.00    -0.376 OA
ATOM     27  H2  UNL     1      19.620  63.652  48.169  1.00  0.00     0.212 HD
ENDBRANCH  16  26
ENDBRANCH  14  16
ENDBRANCH   1  14
BRANCH  13  28
HETATM   28  O7  UNL     1      22.373  65.689  50.628  1.00  0.00    -0.387 OA
ATOM     29  H7  UNL     1      22.128  66.547  50.954  1.00  0.00     0.210 HD
ENDBRANCH  13  28
BRANCH   3  30
HETATM   30  N2  UNL     1      23.122  63.417  46.480  1.00  0.00    -0.072 N 
ATOM     31  H23 UNL     1      23.313  62.879  47.326  1.00  0.00     0.274 HD
ATOM     32  H22 UNL     1      22.116  63.523  46.605  1.00  0.00     0.274 HD
ATOM     33  H21 UNL     1      23.359  62.905  45.631  1.00  0.00     0.274 HD
ENDBRANCH   3  30
BRANCH  12  34
HETATM   34  O6  UNL     1      23.989  63.609  49.352  1.00  0.00    -0.390 OA
ATOM     35  H6  UNL     1      23.199  63.414  48.861  1.00  0.00     0.210 HD
ENDBRANCH  12  34
BRANCH   6  36
HETATM   36  O4  UNL     1      27.717  62.706  46.897  1.00  0.00    -0.359 OA
BRANCH  36  37
HETATM   37  C14 UNL     1      27.076  62.086  45.829  1.00  0.00     0.166 C 
HETATM   38  C15 UNL     1      27.426  62.693  44.510  1.00  0.00     0.033 C 
ENDBRANCH  36  37
ENDBRANCH   6  36
TORSDOF 13
ENDMDL
MODEL 3
REMARK VINA RESULT: -8.146056265      1.827      3.248
REMARK  13 active torsions:
REMARK  status: ('A' for Active; 'I' for Inactive)
REMARK    1  A    between atoms: C3_3  and  C5_5 
REMARK    2  A    between atoms: C5_5  and  C6_6 
REMARK    3  A    between atoms: C5_5  and  C8_10 
REMARK    4  A    between atoms: C6_6  and  S1_7 
REMARK    5  A    between atoms: S1_7  and  C7_8 
REMARK    6  A    between atoms: C8_10  and  O2_11 
REMARK    7  A    between atoms: C8_10  and  N1_13 
REMARK    8  A    between atoms: N1_13  and  C9_15 
REMARK    9  A    between atoms: C11_17  and  N2_18 
REMARK   10  A    between atoms: C13_24  and  O4_25 
REMARK   11  A    between atoms: O4_25  and  C14_26 
REMARK   12  A    between atoms: C20_33  and  O6_34 
REMARK   13  A    between atoms: C21_36  and  O7_37 
ROOT
HETATM    1  C9  UNL     1      21.637  64.717  47.813  1.00  0.00     0.018 C 
HETATM    2  C10 UNL     1      21.991  63.740  48.867  1.00  0.00     0.090 C 
HETATM    3  C11 UNL     1      23.084  64.206  49.822  1.00  0.00     0.220 C 
HETATM    4  C12 UNL     1      24.464  64.127  49.316  1.00  0.00     0.187 C 
HETATM    5  O3  UNL     1      25.177  65.251  49.718  1.00  0.00    -0.348 OA
HETATM    6  C13 UNL     1      26.505  65.254  49.351  1.00  0.00     0.293 C 
HETATM    7  C16 UNL     1      26.877  64.290  48.289  1.00  0.00     0.104 C 
HETATM    8  C17 UNL     1      27.965  64.959  47.431  1.00  0.00     0.051 C 
HETATM    9  C18 UNL     1      27.554  63.037  48.862  1.00  0.00     0.051 C 
HETATM   10  O5  UNL     1      25.899  63.891  47.442  1.00  0.00    -0.365 OA
HETATM   11  C19 UNL     1      24.603  63.985  47.833  1.00  0.00     0.185 C 
HETATM   12  C20 UNL     1      23.936  65.106  47.076  1.00  0.00     0.184 C 
HETATM   13  C21 UNL     1      22.581  64.642  46.598  1.00  0.00     0.194 C 
ENDROOT
BRANCH   1  14
HETATM   14  N1  UNL     1      20.300  64.880  47.422  1.00  0.00    -0.368 N 
ATOM     15  H1  UNL     1      20.012  64.484  46.527  1.00  0.00     0.161 HD
BRANCH  14  16
HETATM   16  C8  UNL     1      19.339  65.549  48.182  1.00  0.00     0.226 C 
BRANCH  16  17
HETATM   17  C5  UNL     1      18.533  66.641  47.571  1.00  0.00     0.072 C 
BRANCH  17  18
HETATM   18  C3  UNL     1      19.200  67.533  46.635  1.00  0.00    -0.079 C 
HETATM   19  C2  UNL     1      20.120  68.408  46.946  1.00  0.00    -0.028 C 
HETATM   20  C1  UNL     1      20.745  69.284  45.923  1.00  0.00     0.036 C 
HETATM   21  C4  UNL     1      18.783  67.433  45.193  1.00  0.00     0.043 C 
ENDBRANCH  17  18
BRANCH  17  22
HETATM   22  C6  UNL     1      17.402  65.953  46.786  1.00  0.00     0.095 C 
BRANCH  22  23
HETATM   23  S1  UNL     1      15.875  65.955  47.770  1.00  0.00    -0.101 SA
BRANCH  23  24
HETATM   24  C7  UNL     1      14.505  65.475  46.753  1.00  0.00     0.304 C 
HETATM   25  O1  UNL     1      14.464  64.385  46.237  1.00  0.00    -0.295 OA
ENDBRANCH  23  24
ENDBRANCH  22  23
ENDBRANCH  17  22
ENDBRANCH  16  17
BRANCH  16  26
HETATM   26  O2  UNL     1      19.958  66.192  49.308  1.00  0.00    -0.376 OA
ATOM     27  H2  UNL     1      19.228  66.620  49.740  1.00  0.00     0.212 HD
ENDBRANCH  16  26
ENDBRANCH  14  16
ENDBRANCH   1  14
BRANCH  13  28
HETATM   28  O7  UNL     1      22.077  65.488  45.607  1.00  0.00    -0.387 OA
ATOM     29  H7  UNL     1      22.619  66.268  45.584  1.00  0.00     0.210 HD
ENDBRANCH  13  28
BRANCH   3  30
HETATM   30  N2  UNL     1      22.712  65.528  50.353  1.00  0.00    -0.072 N 
ATOM     31  H23 UNL     1      22.200  66.092  49.674  1.00  0.00     0.274 HD
ATOM     32  H22 UNL     1      21.985  65.472  51.066  1.00  0.00     0.274 HD
ATOM     33  H21 UNL     1      23.555  65.993  50.689  1.00  0.00     0.274 HD
ENDBRANCH   3  30
BRANCH  12  34
HETATM   34  O6  UNL     1      23.927  66.315  47.719  1.00  0.00    -0.390 OA
ATOM     35  H6  UNL     1      24.585  66.933  47.422  1.00  0.00     0.210 HD
ENDBRANCH  12  34
BRANCH   6  36
HETATM   36  O4  UNL     1      27.355  65.049  50.437  1.00  0.00    -0.359 OA
BRANCH  36  37
HETATM   37  C14 UNL     1      28.025  66.214  50.798  1.00  0.00     0.166 C 
HETATM   38  C15 UNL     1      28.764  66.082  52.089  1.00  0.00     0.033 C 
ENDBRANCH  36  37
ENDBRANCH   6  36
TORSDOF 13
ENDMDL
MODEL 4
REMARK VINA RESULT: -8.075716849      3.340      8.365
REMARK  13 active torsions:
REMARK  status: ('A' for Active; 'I' for Inactive)
REMARK    1  A    between atoms: C3_3  and  C5_5 
REMARK    2  A    between atoms: C5_5  and  C6_6 
REMARK    3  A    between atoms: C5_5  and  C8_10 
REMARK    4  A    between atoms: C6_6  and  S1_7 
REMARK    5  A    between atoms: S1_7  and  C7_8 
REMARK    6  A    between atoms: C8_10  and  O2_11 
REMARK    7  A    between atoms: C8_10  and  N1_13 
REMARK    8  A    between atoms: N1_13  and  C9_15 
REMARK    9  A    between atoms: C11_17  and  N2_18 
REMARK   10  A    between atoms: C13_24  and  O4_25 
REMARK   11  A    between atoms: O4_25  and  C14_26 
REMARK   12  A    between atoms: C20_33  and  O6_34 
REMARK   13  A    between atoms: C21_36  and  O7_37 
ROOT
HETATM    1  C9  UNL     1      24.224  64.076  48.975  1.00  0.00     0.018 C 
HETATM    2  C10 UNL     1      23.766  65.379  49.509  1.00  0.00     0.090 C 
HETATM    3  C11 UNL     1      22.257  65.594  49.448  1.00  0.00     0.220 C 
HETATM    4  C12 UNL     1      21.709  65.966  48.134  1.00  0.00     0.187 C 
HETATM    5  O3  UNL     1      20.504  65.304  47.923  1.00  0.00    -0.348 OA
HETATM    6  C13 UNL     1      19.867  65.626  46.745  1.00  0.00     0.293 C 
HETATM    7  C16 UNL     1      20.706  66.303  45.728  1.00  0.00     0.104 C 
HETATM    8  C17 UNL     1      20.239  65.804  44.350  1.00  0.00     0.051 C 
HETATM    9  C18 UNL     1      20.458  67.818  45.695  1.00  0.00     0.051 C 
HETATM   10  O5  UNL     1      22.043  66.097  45.789  1.00  0.00    -0.365 OA
HETATM   11  C19 UNL     1      22.602  65.705  46.961  1.00  0.00     0.185 C 
HETATM   12  C20 UNL     1      23.016  64.258  46.855  1.00  0.00     0.184 C 
HETATM   13  C21 UNL     1      24.397  64.095  47.444  1.00  0.00     0.194 C 
ENDROOT
BRANCH   1  14
HETATM   14  N1  UNL     1      25.265  63.381  49.607  1.00  0.00    -0.368 N 
ATOM     15  H1  UNL     1      25.382  62.392  49.386  1.00  0.00     0.161 HD
BRANCH  14  16
HETATM   16  C8  UNL     1      26.150  63.958  50.519  1.00  0.00     0.226 C 
BRANCH  16  17
HETATM   17  C5  UNL     1      27.586  64.124  50.162  1.00  0.00     0.072 C 
BRANCH  17  18
HETATM   18  C3  UNL     1      28.010  63.687  48.840  1.00  0.00    -0.079 C 
HETATM   19  C2  UNL     1      28.043  64.435  47.768  1.00  0.00    -0.028 C 
HETATM   20  C1  UNL     1      28.486  63.902  46.456  1.00  0.00     0.036 C 
HETATM   21  C4  UNL     1      28.440  62.251  48.709  1.00  0.00     0.043 C 
ENDBRANCH  17  18
BRANCH  17  22
HETATM   22  C6  UNL     1      27.874  65.633  50.234  1.00  0.00     0.095 C 
BRANCH  22  23
HETATM   23  S1  UNL     1      28.662  66.037  51.821  1.00  0.00    -0.101 SA
BRANCH  23  24
HETATM   24  C7  UNL     1      28.640  67.792  52.072  1.00  0.00     0.304 C 
HETATM   25  O1  UNL     1      27.855  68.495  51.486  1.00  0.00    -0.295 OA
ENDBRANCH  23  24
ENDBRANCH  22  23
ENDBRANCH  17  22
ENDBRANCH  16  17
BRANCH  16  26
HETATM   26  O2  UNL     1      26.203  63.172  51.721  1.00  0.00    -0.376 OA
ATOM     27  H2  UNL     1      26.033  62.290  51.409  1.00  0.00     0.212 HD
ENDBRANCH  16  26
ENDBRANCH  14  16
ENDBRANCH   1  14
BRANCH  13  28
HETATM   28  O7  UNL     1      24.970  62.880  47.060  1.00  0.00    -0.387 OA
ATOM     29  H7  UNL     1      25.620  62.644  47.711  1.00  0.00     0.210 HD
ENDBRANCH  13  28
BRANCH   3  30
HETATM   30  N2  UNL     1      21.592  64.440  50.074  1.00  0.00    -0.072 N 
ATOM     31  H23 UNL     1      21.134  63.836  49.392  1.00  0.00     0.274 HD
ATOM     32  H22 UNL     1      22.256  63.758  50.442  1.00  0.00     0.274 HD
ATOM     33  H21 UNL     1      20.948  64.782  50.787  1.00  0.00     0.274 HD
ENDBRANCH   3  30
BRANCH  12  34
HETATM   34  O6  UNL     1      22.094  63.356  47.315  1.00  0.00    -0.390 OA
ATOM     35  H6  UNL     1      22.136  62.497  46.911  1.00  0.00     0.210 HD
ENDBRANCH  12  34
BRANCH   6  36
HETATM   36  O4  UNL     1      18.729  66.404  46.953  1.00  0.00    -0.359 OA
BRANCH  36  37
HETATM   37  C14 UNL     1      17.891  65.851  47.916  1.00  0.00     0.166 C 
HETATM   38  C15 UNL     1      16.456  65.845  47.502  1.00  0.00     0.033 C 
ENDBRANCH  36  37
ENDBRANCH   6  36
TORSDOF 13
ENDMDL
MODEL 5
REMARK VINA RESULT: -8.019782269      2.546      4.254
REMARK  13 active torsions:
REMARK  status: ('A' for Active; 'I' for Inactive)
REMARK    1  A    between atoms: C3_3  and  C5_5 
REMARK    2  A    between atoms: C5_5  and  C6_6 
REMARK    3  A    between atoms: C5_5  and  C8_10 
REMARK    4  A    between atoms: C6_6  and  S1_7 
REMARK    5  A    between atoms: S1_7  and  C7_8 
REMARK    6  A    between atoms: C8_10  and  O2_11 
REMARK    7  A    between atoms: C8_10  and  N1_13 
REMARK    8  A    between atoms: N1_13  and  C9_15 
REMARK    9  A    between atoms: C11_17  and  N2_18 
REMARK   10  A    between atoms: C13_24  and  O4_25 
REMARK   11  A    between atoms: O4_25  and  C14_26 
REMARK   12  A    between atoms: C20_33  and  O6_34 
REMARK   13  A    between atoms: C21_36  and  O7_37 
ROOT
HETATM    1  C9  UNL     1      22.602  64.778  47.485  1.00  0.00     0.018 C 
HETATM    2  C10 UNL     1      22.749  64.076  48.779  1.00  0.00     0.090 C 
HETATM    3  C11 UNL     1      23.771  64.697  49.726  1.00  0.00     0.220 C 
HETATM    4  C12 UNL     1      25.184  64.407  49.434  1.00  0.00     0.187 C 
HETATM    5  O3  UNL     1      25.950  65.549  49.640  1.00  0.00    -0.348 OA
HETATM    6  C13 UNL     1      27.304  65.377  49.456  1.00  0.00     0.293 C 
HETATM    7  C16 UNL     1      27.699  64.156  48.713  1.00  0.00     0.104 C 
HETATM    8  C17 UNL     1      28.930  64.520  47.865  1.00  0.00     0.051 C 
HETATM    9  C18 UNL     1      28.192  63.047  49.653  1.00  0.00     0.051 C 
HETATM   10  O5  UNL     1      26.786  63.620  47.870  1.00  0.00    -0.365 OA
HETATM   11  C19 UNL     1      25.469  63.890  48.058  1.00  0.00     0.185 C 
HETATM   12  C20 UNL     1      24.994  64.825  46.975  1.00  0.00     0.184 C 
HETATM   13  C21 UNL     1      23.661  64.343  46.454  1.00  0.00     0.194 C 
ENDROOT
BRANCH   1  14
HETATM   14  N1  UNL     1      21.336  64.921  46.899  1.00  0.00    -0.368 N 
ATOM     15  H1  UNL     1      21.140  64.392  46.050  1.00  0.00     0.161 HD
BRANCH  14  16
HETATM   16  C8  UNL     1      20.328  65.743  47.406  1.00  0.00     0.226 C 
BRANCH  16  17
HETATM   17  C5  UNL     1      19.446  66.501  46.477  1.00  0.00     0.072 C 
BRANCH  17  18
HETATM   18  C3  UNL     1      18.011  66.269  46.565  1.00  0.00    -0.079 C 
HETATM   19  C2  UNL     1      17.338  66.093  47.672  1.00  0.00    -0.028 C 
HETATM   20  C1  UNL     1      15.873  65.857  47.667  1.00  0.00     0.036 C 
HETATM   21  C4  UNL     1      17.254  66.226  45.266  1.00  0.00     0.043 C 
ENDBRANCH  17  18
BRANCH  17  22
HETATM   22  C6  UNL     1      19.666  67.990  46.795  1.00  0.00     0.095 C 
BRANCH  22  23
HETATM   23  S1  UNL     1      20.414  68.824  45.364  1.00  0.00    -0.101 SA
BRANCH  23  24
HETATM   24  C7  UNL     1      21.991  68.100  45.005  1.00  0.00     0.304 C 
HETATM   25  O1  UNL     1      22.732  67.751  45.890  1.00  0.00    -0.295 OA
ENDBRANCH  23  24
ENDBRANCH  22  23
ENDBRANCH  17  22
ENDBRANCH  16  17
BRANCH  16  26
HETATM   26  O2  UNL     1      20.899  66.776  48.228  1.00  0.00    -0.376 OA
ATOM     27  H2  UNL     1      20.303  66.816  48.967  1.00  0.00     0.212 HD
ENDBRANCH  16  26
ENDBRANCH  14  16
ENDBRANCH   1  14
BRANCH  13  28
HETATM   28  O7  UNL     1      23.347  64.944  45.233  1.00  0.00    -0.387 OA
ATOM     29  H7  UNL     1      23.874  65.730  45.149  1.00  0.00     0.210 HD
ENDBRANCH  13  28
BRANCH   3  30
HETATM   30  N2  UNL     1      23.467  66.130  49.870  1.00  0.00    -0.072 N 
ATOM     31  H23 UNL     1      23.744  66.498  50.780  1.00  0.00     0.274 HD
ATOM     32  H22 UNL     1      24.068  66.717  49.292  1.00  0.00     0.274 HD
ATOM     33  H21 UNL     1      22.476  66.274  49.676  1.00  0.00     0.274 HD
ENDBRANCH   3  30
BRANCH  12  34
HETATM   34  O6  UNL     1      25.027  66.155  47.301  1.00  0.00    -0.390 OA
ATOM     35  H6  UNL     1      25.136  66.747  46.565  1.00  0.00     0.210 HD
ENDBRANCH  12  34
BRANCH   6  36
HETATM   36  O4  UNL     1      28.010  65.398  50.658  1.00  0.00    -0.359 OA
BRANCH  36  37
HETATM   37  C14 UNL     1      28.271  66.696  51.084  1.00  0.00     0.166 C 
HETATM   38  C15 UNL     1      28.750  66.758  52.498  1.00  0.00     0.033 C 
ENDBRANCH  36  37
ENDBRANCH   6  36
TORSDOF 13
ENDMDL
