MODEL 1
REMARK VINA RESULT: -8.574437592      0.000      0.000
REMARK  14 active torsions:
REMARK  status: ('A' for Active; 'I' for Inactive)
REMARK    1  A    between atoms: O1_2  and  N1_3 
REMARK    2  A    between atoms: C2_5  and  O2_6 
REMARK    3  A    between atoms: C2_5  and  C3_8 
REMARK    4  A    between atoms: C4_9  and  C5_10 
REMARK    5  A    between atoms: C5_10  and  C6_11 
REMARK    6  A    between atoms: C6_11  and  C7_12 
REMARK    7  A    between atoms: C7_12  and  C8_13 
REMARK    8  A    between atoms: C15_21  and  O4_22 
REMARK    9  A    between atoms: O4_22  and  C16_23 
REMARK   10  A    between atoms: C17_25  and  C18_26 
REMARK   11  A    between atoms: C18_26  and  O6_27 
REMARK   12  A    between atoms: C19_29  and  O7_30 
REMARK   13  A    between atoms: C20_32  and  O8_33 
REMARK   14  A    between atoms: C21_35  and  O9_36 
ROOT
HETATM    1  C3  UNL     1      22.326  66.121  46.828  1.00  0.00     0.123 C 
HETATM    2  C4  UNL     1      21.078  65.954  45.910  1.00  0.00     0.026 C 
HETATM    3  C14 UNL     1      21.743  65.664  44.612  1.00  0.00     0.176 C 
HETATM    4  O3  UNL     1      23.072  65.313  44.807  1.00  0.00    -0.360 OA
HETATM    5  C15 UNL     1      23.236  65.124  46.178  1.00  0.00     0.275 C 
ENDROOT
BRANCH   5   6
HETATM    6  O4  UNL     1      24.563  65.315  46.462  1.00  0.00    -0.328 OA
BRANCH   6   7
HETATM    7  C16 UNL     1      25.184  64.071  46.584  1.00  0.00     0.294 C 
HETATM    8  O5  UNL     1      26.247  64.059  45.723  1.00  0.00    -0.348 OA
HETATM    9  C17 UNL     1      27.083  62.991  45.772  1.00  0.00     0.179 C 
HETATM   10  C19 UNL     1      27.349  62.455  47.159  1.00  0.00     0.180 C 
HETATM   11  C20 UNL     1      26.962  63.421  48.238  1.00  0.00     0.183 C 
HETATM   12  C21 UNL     1      25.542  63.889  48.030  1.00  0.00     0.204 C 
BRANCH   9  13
HETATM   13  C18 UNL     1      26.707  61.856  44.836  1.00  0.00     0.198 C 
BRANCH  13  14
HETATM   14  O6  UNL     1      26.880  60.613  45.383  1.00  0.00    -0.398 OA
ATOM     15  H6  UNL     1      27.782  60.417  45.610  1.00  0.00     0.209 HD
ENDBRANCH  13  14
ENDBRANCH   9  13
BRANCH  10  16
HETATM   16  O7  UNL     1      28.722  62.171  47.347  1.00  0.00    -0.390 OA
ATOM     17  H7  UNL     1      28.918  61.999  48.260  1.00  0.00     0.210 HD
ENDBRANCH  10  16
BRANCH  11  18
HETATM   18  O8  UNL     1      27.857  64.484  48.249  1.00  0.00    -0.390 OA
ATOM     19  H8  UNL     1      27.503  65.189  48.778  1.00  0.00     0.210 HD
ENDBRANCH  11  18
BRANCH  12  20
HETATM   20  O9  UNL     1      25.422  65.098  48.755  1.00  0.00    -0.388 OA
ATOM     21  H9  UNL     1      26.068  65.737  48.480  1.00  0.00     0.210 HD
ENDBRANCH  12  20
ENDBRANCH   6   7
ENDBRANCH   5   6
BRANCH   1  22
HETATM   22  C2  UNL     1      21.981  65.761  48.223  1.00  0.00     0.144 C 
HETATM   23  N1  UNL     1      21.048  64.931  48.452  1.00  0.00    -0.249 N 
ATOM     24  H1  UNL     1      20.577  64.550  47.631  1.00  0.00     0.196 HD
BRANCH  23  25
HETATM   25  O1  UNL     1      20.603  64.490  49.648  1.00  0.00    -0.284 OA
HETATM   26  C1  UNL     1      20.119  63.178  49.885  1.00  0.00     0.237 C 
ENDBRANCH  23  25
BRANCH  22  27
HETATM   27  O2  UNL     1      22.699  66.352  49.235  1.00  0.00    -0.348 OA
ATOM     28  H2  UNL     1      22.306  66.969  49.840  1.00  0.00     0.219 HD
ENDBRANCH  22  27
ENDBRANCH   1  22
BRANCH   2  29
HETATM   29  C5  UNL     1      20.251  67.178  45.995  1.00  0.00     0.007 C 
BRANCH  29  30
HETATM   30  C6  UNL     1      18.786  67.061  46.070  1.00  0.00     0.001 C 
BRANCH  30  31
HETATM   31  C7  UNL     1      18.268  66.624  47.381  1.00  0.00     0.005 C 
BRANCH  31  32
HETATM   32  C8  UNL     1      17.281  65.429  47.201  1.00  0.00    -0.014 C 
HETATM   33  C9  UNL     1      16.046  65.799  47.927  1.00  0.00     0.004 C 
HETATM   34  C10 UNL     1      14.791  65.159  47.448  1.00  0.00     0.000 C 
HETATM   35  C11 UNL     1      14.843  64.558  46.091  1.00  0.00     0.000 C 
HETATM   36  C12 UNL     1      15.745  65.441  45.224  1.00  0.00     0.000 C 
HETATM   37  C13 UNL     1      17.145  65.240  45.729  1.00  0.00     0.004 C 
ENDBRANCH  31  32
ENDBRANCH  30  31
ENDBRANCH  29  30
ENDBRANCH   2  29
TORSDOF 14
ENDMDL
MODEL 2
REMARK VINA RESULT: -8.404629868      1.708      2.871
REMARK  14 active torsions:
REMARK  status: ('A' for Active; 'I' for Inactive)
REMARK    1  A    between atoms: O1_2  and  N1_3 
REMARK    2  A    between atoms: C2_5  and  O2_6 
REMARK    3  A    between atoms: C2_5  and  C3_8 
REMARK    4  A    between atoms: C4_9  and  C5_10 
REMARK    5  A    between atoms: C5_10  and  C6_11 
REMARK    6  A    between atoms: C6_11  and  C7_12 
REMARK    7  A    between atoms: C7_12  and  C8_13 
REMARK    8  A    between atoms: C15_21  and  O4_22 
REMARK    9  A    between atoms: O4_22  and  C16_23 
REMARK   10  A    between atoms: C17_25  and  C18_26 
REMARK   11  A    between atoms: C18_26  and  O6_27 
REMARK   12  A    between atoms: C19_29  and  O7_30 
REMARK   13  A    between atoms: C20_32  and  O8_33 
REMARK   14  A    between atoms: C21_35  and  O9_36 
ROOT
HETATM    1  C3  UNL     1      21.567  64.793  47.937  1.00  0.00     0.123 C 
HETATM    2  C4  UNL     1      20.363  63.812  47.815  1.00  0.00     0.026 C 
HETATM    3  C14 UNL     1      20.275  63.687  46.336  1.00  0.00     0.176 C 
HETATM    4  O3  UNL     1      21.436  64.149  45.732  1.00  0.00    -0.360 OA
HETATM    5  C15 UNL     1      22.366  64.340  46.752  1.00  0.00     0.275 C 
ENDROOT
BRANCH   5   6
HETATM    6  O4  UNL     1      23.276  65.264  46.310  1.00  0.00    -0.328 OA
BRANCH   6   7
HETATM    7  C16 UNL     1      24.458  64.607  45.968  1.00  0.00     0.294 C 
HETATM    8  O5  UNL     1      24.388  63.342  46.485  1.00  0.00    -0.348 OA
HETATM    9  C17 UNL     1      25.376  62.472  46.156  1.00  0.00     0.179 C 
HETATM   10  C19 UNL     1      25.868  62.577  44.733  1.00  0.00     0.180 C 
HETATM   11  C20 UNL     1      24.926  63.338  43.848  1.00  0.00     0.183 C 
HETATM   12  C21 UNL     1      24.589  64.670  44.474  1.00  0.00     0.204 C 
BRANCH   9  13
HETATM   13  C18 UNL     1      26.552  62.467  47.117  1.00  0.00     0.198 C 
BRANCH  13  14
HETATM   14  O6  UNL     1      27.555  61.608  46.753  1.00  0.00    -0.398 OA
ATOM     15  H6  UNL     1      28.427  61.962  46.885  1.00  0.00     0.209 HD
ENDBRANCH  13  14
ENDBRANCH   9  13
BRANCH  10  16
HETATM   16  O7  UNL     1      26.027  61.300  44.146  1.00  0.00    -0.390 OA
ATOM     17  H7  UNL     1      25.807  61.313  43.223  1.00  0.00     0.210 HD
ENDBRANCH  10  16
BRANCH  11  18
HETATM   18  O8  UNL     1      23.788  62.575  43.621  1.00  0.00    -0.390 OA
ATOM     19  H8  UNL     1      23.166  62.718  44.325  1.00  0.00     0.210 HD
ENDBRANCH  11  18
BRANCH  12  20
HETATM   20  O9  UNL     1      23.386  65.093  43.862  1.00  0.00    -0.388 OA
ATOM     21  H9  UNL     1      23.389  66.027  43.690  1.00  0.00     0.210 HD
ENDBRANCH  12  20
ENDBRANCH   6   7
ENDBRANCH   5   6
BRANCH   1  22
HETATM   22  C2  UNL     1      22.270  64.575  49.222  1.00  0.00     0.144 C 
HETATM   23  N1  UNL     1      23.107  63.628  49.335  1.00  0.00    -0.249 N 
ATOM     24  H1  UNL     1      23.249  63.054  48.503  1.00  0.00     0.196 HD
BRANCH  23  25
HETATM   25  O1  UNL     1      23.833  63.285  50.420  1.00  0.00    -0.284 OA
HETATM   26  C1  UNL     1      25.248  63.178  50.432  1.00  0.00     0.237 C 
ENDBRANCH  23  25
BRANCH  22  27
HETATM   27  O2  UNL     1      21.981  65.424  50.264  1.00  0.00    -0.348 OA
ATOM     28  H2  UNL     1      21.892  66.362  50.142  1.00  0.00     0.219 HD
ENDBRANCH  22  27
ENDBRANCH   1  22
BRANCH   2  29
HETATM   29  C5  UNL     1      19.198  64.390  48.521  1.00  0.00     0.007 C 
BRANCH  29  30
HETATM   30  C6  UNL     1      18.987  65.847  48.502  1.00  0.00     0.001 C 
BRANCH  30  31
HETATM   31  C7  UNL     1      18.060  66.323  47.457  1.00  0.00     0.005 C 
BRANCH  31  32
HETATM   32  C8  UNL     1      16.985  65.235  47.152  1.00  0.00    -0.014 C 
HETATM   33  C9  UNL     1      15.734  65.695  47.794  1.00  0.00     0.004 C 
HETATM   34  C10 UNL     1      14.469  65.195  47.192  1.00  0.00     0.000 C 
HETATM   35  C11 UNL     1      14.576  64.638  45.820  1.00  0.00     0.000 C 
HETATM   36  C12 UNL     1      15.624  65.459  45.063  1.00  0.00     0.000 C 
HETATM   37  C13 UNL     1      16.953  65.109  45.668  1.00  0.00     0.004 C 
ENDBRANCH  31  32
ENDBRANCH  30  31
ENDBRANCH  29  30
ENDBRANCH   2  29
TORSDOF 14
ENDMDL
MODEL 3
REMARK VINA RESULT: -8.286926065      1.901      2.638
REMARK  14 active torsions:
REMARK  status: ('A' for Active; 'I' for Inactive)
REMARK    1  A    between atoms: O1_2  and  N1_3 
REMARK    2  A    between atoms: C2_5  and  O2_6 
REMARK    3  A    between atoms: C2_5  and  C3_8 
REMARK    4  A    between atoms: C4_9  and  C5_10 
REMARK    5  A    between atoms: C5_10  and  C6_11 
REMARK    6  A    between atoms: C6_11  and  C7_12 
REMARK    7  A    between atoms: C7_12  and  C8_13 
REMARK    8  A    between atoms: C15_21  and  O4_22 
REMARK    9  A    between atoms: O4_22  and  C16_23 
REMARK   10  A    between atoms: C17_25  and  C18_26 
REMARK   11  A    between atoms: C18_26  and  O6_27 
REMARK   12  A    between atoms: C19_29  and  O7_30 
REMARK   13  A    between atoms: C20_32  and  O8_33 
REMARK   14  A    between atoms: C21_35  and  O9_36 
ROOT
HETATM    1  C3  UNL     1      20.676  63.356  45.626  1.00  0.00     0.123 C 
HETATM    2  C4  UNL     1      20.093  62.450  44.499  1.00  0.00     0.026 C 
HETATM    3  C14 UNL     1      21.068  62.726  43.410  1.00  0.00     0.176 C 
HETATM    4  O3  UNL     1      22.213  63.327  43.914  1.00  0.00    -0.360 OA
HETATM    5  C15 UNL     1      22.134  63.232  45.302  1.00  0.00     0.275 C 
ENDROOT
BRANCH   5   6
HETATM    6  O4  UNL     1      22.906  64.236  45.826  1.00  0.00    -0.328 OA
BRANCH   6   7
HETATM    7  C16 UNL     1      24.084  63.684  46.331  1.00  0.00     0.294 C 
HETATM    8  O5  UNL     1      25.022  63.742  45.336  1.00  0.00    -0.348 OA
HETATM    9  C17 UNL     1      26.292  63.383  45.648  1.00  0.00     0.179 C 
HETATM   10  C19 UNL     1      26.757  63.814  47.018  1.00  0.00     0.180 C 
HETATM   11  C20 UNL     1      25.885  64.877  47.618  1.00  0.00     0.183 C 
HETATM   12  C21 UNL     1      24.438  64.446  47.575  1.00  0.00     0.204 C 
BRANCH   9  13
HETATM   13  C18 UNL     1      26.600  61.912  45.431  1.00  0.00     0.198 C 
BRANCH  13  14
HETATM   14  O6  UNL     1      27.505  61.402  46.323  1.00  0.00    -0.398 OA
ATOM     15  H6  UNL     1      28.410  61.524  46.060  1.00  0.00     0.209 HD
ENDBRANCH  13  14
ENDBRANCH   9  13
BRANCH  10  16
HETATM   16  O7  UNL     1      28.066  64.346  46.976  1.00  0.00    -0.390 OA
ATOM     17  H7  UNL     1      28.055  65.286  46.841  1.00  0.00     0.210 HD
ENDBRANCH  10  16
BRANCH  11  18
HETATM   18  O8  UNL     1      26.085  66.074  46.942  1.00  0.00    -0.390 OA
ATOM     19  H8  UNL     1      25.934  65.942  46.013  1.00  0.00     0.210 HD
ENDBRANCH  11  18
BRANCH  12  20
HETATM   20  O9  UNL     1      23.677  65.632  47.696  1.00  0.00    -0.388 OA
ATOM     21  H9  UNL     1      23.726  65.993  48.573  1.00  0.00     0.210 HD
ENDBRANCH  12  20
ENDBRANCH   6   7
ENDBRANCH   5   6
BRANCH   1  22
HETATM   22  C2  UNL     1      20.332  62.797  46.954  1.00  0.00     0.144 C 
HETATM   23  N1  UNL     1      19.969  63.570  47.893  1.00  0.00    -0.249 N 
ATOM     24  H1  UNL     1      19.936  64.564  47.666  1.00  0.00     0.196 HD
BRANCH  23  25
HETATM   25  O1  UNL     1      19.622  63.238  49.154  1.00  0.00    -0.284 OA
HETATM   26  C1  UNL     1      20.497  63.315  50.269  1.00  0.00     0.237 C 
ENDBRANCH  23  25
BRANCH  22  27
HETATM   27  O2  UNL     1      20.423  61.436  47.120  1.00  0.00    -0.348 OA
ATOM     28  H2  UNL     1      21.225  61.014  47.404  1.00  0.00     0.219 HD
ENDBRANCH  22  27
ENDBRANCH   1  22
BRANCH   2  29
HETATM   29  C5  UNL     1      18.681  62.824  44.263  1.00  0.00     0.007 C 
BRANCH  29  30
HETATM   30  C6  UNL     1      18.269  64.230  44.407  1.00  0.00     0.001 C 
BRANCH  30  31
HETATM   31  C7  UNL     1      16.861  64.499  44.054  1.00  0.00     0.005 C 
BRANCH  31  32
HETATM   32  C8  UNL     1      16.201  65.420  45.125  1.00  0.00    -0.014 C 
HETATM   33  C9  UNL     1      15.078  64.648  45.701  1.00  0.00     0.004 C 
HETATM   34  C10 UNL     1      14.676  65.017  47.086  1.00  0.00     0.000 C 
HETATM   35  C11 UNL     1      15.663  65.808  47.862  1.00  0.00     0.000 C 
HETATM   36  C12 UNL     1      17.061  65.320  47.474  1.00  0.00     0.000 C 
HETATM   37  C13 UNL     1      17.296  65.788  46.067  1.00  0.00     0.004 C 
ENDBRANCH  31  32
ENDBRANCH  30  31
ENDBRANCH  29  30
ENDBRANCH   2  29
TORSDOF 14
ENDMDL
MODEL 4
REMARK VINA RESULT: -8.278410817      2.025      2.666
REMARK  14 active torsions:
REMARK  status: ('A' for Active; 'I' for Inactive)
REMARK    1  A    between atoms: O1_2  and  N1_3 
REMARK    2  A    between atoms: C2_5  and  O2_6 
REMARK    3  A    between atoms: C2_5  and  C3_8 
REMARK    4  A    between atoms: C4_9  and  C5_10 
REMARK    5  A    between atoms: C5_10  and  C6_11 
REMARK    6  A    between atoms: C6_11  and  C7_12 
REMARK    7  A    between atoms: C7_12  and  C8_13 
REMARK    8  A    between atoms: C15_21  and  O4_22 
REMARK    9  A    between atoms: O4_22  and  C16_23 
REMARK   10  A    between atoms: C17_25  and  C18_26 
REMARK   11  A    between atoms: C18_26  and  O6_27 
REMARK   12  A    between atoms: C19_29  and  O7_30 
REMARK   13  A    between atoms: C20_32  and  O8_33 
REMARK   14  A    between atoms: C21_35  and  O9_36 
ROOT
HETATM    1  C3  UNL     1      21.775  64.530  47.909  1.00  0.00     0.123 C 
HETATM    2  C4  UNL     1      20.412  63.774  47.875  1.00  0.00     0.026 C 
HETATM    3  C14 UNL     1      20.348  63.414  46.433  1.00  0.00     0.176 C 
HETATM    4  O3  UNL     1      21.593  63.550  45.835  1.00  0.00    -0.360 OA
HETATM    5  C15 UNL     1      22.510  63.744  46.866  1.00  0.00     0.275 C 
ENDROOT
BRANCH   5   6
HETATM    6  O4  UNL     1      23.590  64.401  46.336  1.00  0.00    -0.328 OA
BRANCH   6   7
HETATM    7  C16 UNL     1      24.159  63.607  45.340  1.00  0.00     0.294 C 
HETATM    8  O5  UNL     1      24.645  64.446  44.374  1.00  0.00    -0.348 OA
HETATM    9  C17 UNL     1      25.367  63.894  43.367  1.00  0.00     0.179 C 
HETATM   10  C19 UNL     1      26.282  62.767  43.784  1.00  0.00     0.180 C 
HETATM   11  C20 UNL     1      26.513  62.726  45.265  1.00  0.00     0.183 C 
HETATM   12  C21 UNL     1      25.192  62.737  45.996  1.00  0.00     0.204 C 
BRANCH   9  13
HETATM   13  C18 UNL     1      24.545  63.480  42.160  1.00  0.00     0.198 C 
BRANCH  13  14
HETATM   14  O6  UNL     1      23.965  62.245  42.286  1.00  0.00    -0.398 OA
ATOM     15  H6  UNL     1      23.386  62.020  41.568  1.00  0.00     0.209 HD
ENDBRANCH  13  14
ENDBRANCH   9  13
BRANCH  10  16
HETATM   16  O7  UNL     1      27.556  62.888  43.182  1.00  0.00    -0.390 OA
ATOM     17  H7  UNL     1      27.487  62.964  42.238  1.00  0.00     0.210 HD
ENDBRANCH  10  16
BRANCH  11  18
HETATM   18  O8  UNL     1      27.315  63.797  45.637  1.00  0.00    -0.390 OA
ATOM     19  H8  UNL     1      28.147  63.471  45.963  1.00  0.00     0.210 HD
ENDBRANCH  11  18
BRANCH  12  20
HETATM   20  O9  UNL     1      25.481  63.170  47.312  1.00  0.00    -0.388 OA
ATOM     21  H9  UNL     1      25.233  62.520  47.958  1.00  0.00     0.210 HD
ENDBRANCH  12  20
ENDBRANCH   6   7
ENDBRANCH   5   6
BRANCH   1  22
HETATM   22  C2  UNL     1      22.385  64.413  49.254  1.00  0.00     0.144 C 
HETATM   23  N1  UNL     1      23.273  63.533  49.473  1.00  0.00    -0.249 N 
ATOM     24  H1  UNL     1      23.519  62.938  48.681  1.00  0.00     0.196 HD
BRANCH  23  25
HETATM   25  O1  UNL     1      23.931  63.286  50.626  1.00  0.00    -0.284 OA
HETATM   26  C1  UNL     1      25.338  63.136  50.725  1.00  0.00     0.237 C 
ENDBRANCH  23  25
BRANCH  22  27
HETATM   27  O2  UNL     1      21.956  65.279  50.231  1.00  0.00    -0.348 OA
ATOM     28  H2  UNL     1      21.076  65.636  50.239  1.00  0.00     0.219 HD
ENDBRANCH  22  27
ENDBRANCH   1  22
BRANCH   2  29
HETATM   29  C5  UNL     1      19.355  64.663  48.404  1.00  0.00     0.007 C 
BRANCH  29  30
HETATM   30  C6  UNL     1      19.350  66.087  48.030  1.00  0.00     0.001 C 
BRANCH  30  31
HETATM   31  C7  UNL     1      18.189  66.507  47.221  1.00  0.00     0.005 C 
BRANCH  31  32
HETATM   32  C8  UNL     1      17.177  65.329  47.073  1.00  0.00    -0.014 C 
HETATM   33  C9  UNL     1      15.951  65.742  47.790  1.00  0.00     0.004 C 
HETATM   34  C10 UNL     1      14.683  65.117  47.328  1.00  0.00     0.000 C 
HETATM   35  C11 UNL     1      14.721  64.480  45.987  1.00  0.00     0.000 C 
HETATM   36  C12 UNL     1      15.640  65.321  45.097  1.00  0.00     0.000 C 
HETATM   37  C13 UNL     1      17.036  65.105  45.607  1.00  0.00     0.004 C 
ENDBRANCH  31  32
ENDBRANCH  30  31
ENDBRANCH  29  30
ENDBRANCH   2  29
TORSDOF 14
ENDMDL
MODEL 5
REMARK VINA RESULT: -8.217877658      2.248      3.213
REMARK  14 active torsions:
REMARK  status: ('A' for Active; 'I' for Inactive)
REMARK    1  A    between atoms: O1_2  and  N1_3 
REMARK    2  A    between atoms: C2_5  and  O2_6 
REMARK    3  A    between atoms: C2_5  and  C3_8 
REMARK    4  A    between atoms: C4_9  and  C5_10 
REMARK    5  A    between atoms: C5_10  and  C6_11 
REMARK    6  A    between atoms: C6_11  and  C7_12 
REMARK    7  A    between atoms: C7_12  and  C8_13 
REMARK    8  A    between atoms: C15_21  and  O4_22 
REMARK    9  A    between atoms: O4_22  and  C16_23 
REMARK   10  A    between atoms: C17_25  and  C18_26 
REMARK   11  A    between atoms: C18_26  and  O6_27 
REMARK   12  A    between atoms: C19_29  and  O7_30 
REMARK   13  A    between atoms: C20_32  and  O8_33 
REMARK   14  A    between atoms: C21_35  and  O9_36 
ROOT
HETATM    1  C3  UNL     1      22.870  66.173  47.500  1.00  0.00     0.123 C 
HETATM    2  C4  UNL     1      21.920  66.711  46.387  1.00  0.00     0.026 C 
HETATM    3  C14 UNL     1      22.920  67.262  45.433  1.00  0.00     0.176 C 
HETATM    4  O3  UNL     1      24.189  66.776  45.714  1.00  0.00    -0.360 OA
HETATM    5  C15 UNL     1      24.026  65.752  46.644  1.00  0.00     0.275 C 
ENDROOT
BRANCH   5   6
HETATM    6  O4  UNL     1      25.207  65.628  47.329  1.00  0.00    -0.328 OA
BRANCH   6   7
HETATM    7  C16 UNL     1      25.647  64.307  47.236  1.00  0.00     0.294 C 
HETATM    8  O5  UNL     1      26.857  64.322  46.597  1.00  0.00    -0.348 OA
HETATM    9  C17 UNL     1      27.540  63.153  46.517  1.00  0.00     0.179 C 
HETATM   10  C19 UNL     1      27.454  62.281  47.747  1.00  0.00     0.180 C 
HETATM   11  C20 UNL     1      26.963  63.025  48.952  1.00  0.00     0.183 C 
HETATM   12  C21 UNL     1      25.677  63.746  48.628  1.00  0.00     0.204 C 
BRANCH   9  13
HETATM   13  C18 UNL     1      27.241  62.335  45.274  1.00  0.00     0.198 C 
BRANCH  13  14
HETATM   14  O6  UNL     1      27.178  60.986  45.505  1.00  0.00    -0.398 OA
ATOM     15  H6  UNL     1      27.869  60.493  45.079  1.00  0.00     0.209 HD
ENDBRANCH  13  14
ENDBRANCH   9  13
BRANCH  10  16
HETATM   16  O7  UNL     1      28.718  61.748  48.091  1.00  0.00    -0.390 OA
ATOM     17  H7  UNL     1      28.691  60.800  48.148  1.00  0.00     0.210 HD
ENDBRANCH  10  16
BRANCH  11  18
HETATM   18  O8  UNL     1      27.949  63.902  49.386  1.00  0.00    -0.390 OA
ATOM     19  H8  UNL     1      28.468  64.188  48.643  1.00  0.00     0.210 HD
ENDBRANCH  11  18
BRANCH  12  20
HETATM   20  O9  UNL     1      25.546  64.762  49.604  1.00  0.00    -0.388 OA
ATOM     21  H9  UNL     1      24.721  64.697  50.070  1.00  0.00     0.210 HD
ENDBRANCH  12  20
ENDBRANCH   6   7
ENDBRANCH   5   6
BRANCH   1  22
HETATM   22  C2  UNL     1      22.232  65.037  48.204  1.00  0.00     0.144 C 
HETATM   23  N1  UNL     1      21.792  65.189  49.385  1.00  0.00    -0.249 N 
ATOM     24  H1  UNL     1      21.909  66.119  49.790  1.00  0.00     0.196 HD
BRANCH  23  25
HETATM   25  O1  UNL     1      21.187  64.273  50.171  1.00  0.00    -0.284 OA
HETATM   26  C1  UNL     1      20.084  63.478  49.766  1.00  0.00     0.237 C 
ENDBRANCH  23  25
BRANCH  22  27
HETATM   27  O2  UNL     1      22.142  63.838  47.539  1.00  0.00    -0.348 OA
ATOM     28  H2  UNL     1      22.350  63.755  46.616  1.00  0.00     0.219 HD
ENDBRANCH  22  27
ENDBRANCH   1  22
BRANCH   2  29
HETATM   29  C5  UNL     1      20.959  67.660  46.993  1.00  0.00     0.007 C 
BRANCH  29  30
HETATM   30  C6  UNL     1      20.116  68.493  46.121  1.00  0.00     0.001 C 
BRANCH  30  31
HETATM   31  C7  UNL     1      19.078  67.754  45.376  1.00  0.00     0.005 C 
BRANCH  31  32
HETATM   32  C8  UNL     1      19.028  68.238  43.894  1.00  0.00    -0.014 C 
HETATM   33  C9  UNL     1      19.409  69.667  43.911  1.00  0.00     0.004 C 
HETATM   34  C10 UNL     1      20.004  70.199  42.655  1.00  0.00     0.000 C 
HETATM   35  C11 UNL     1      20.508  69.186  41.694  1.00  0.00     0.000 C 
HETATM   36  C12 UNL     1      21.098  68.028  42.502  1.00  0.00     0.000 C 
HETATM   37  C13 UNL     1      19.936  67.326  43.144  1.00  0.00     0.004 C 
ENDBRANCH  31  32
ENDBRANCH  30  31
ENDBRANCH  29  30
ENDBRANCH   2  29
TORSDOF 14
ENDMDL
