MODEL 1
REMARK VINA RESULT: -8.526816799      0.000      0.000
REMARK  14 active torsions:
REMARK  status: ('A' for Active; 'I' for Inactive)
REMARK    1  A    between atoms: O1_2  and  C2_3 
REMARK    2  A    between atoms: C2_3  and  C3_5 
REMARK    3  A    between atoms: C3_5  and  C4_6 
REMARK    4  A    between atoms: C4_6  and  C5_7 
REMARK    5  A    between atoms: C5_7  and  C6_8 
REMARK    6  A    between atoms: C6_8  and  C7_9 
REMARK    7  A    between atoms: C7_9  and  C8_10 
REMARK    8  A    between atoms: C8_10  and  C9_11 
REMARK    9  A    between atoms: C9_11  and  C10_12 
REMARK   10  A    between atoms: C10_12  and  N1_13 
REMARK   11  A    between atoms: C17_24  and  O5_25 
REMARK   12  A    between atoms: C18_27  and  O6_28 
REMARK   13  A    between atoms: C19_30  and  O7_31 
REMARK   14  A    between atoms: C20_33  and  O8_34 
ROOT
HETATM    1  N1  UNL     1      21.730  67.569  46.019  1.00  0.00    -0.387 N 
ATOM      2  H1  UNL     1      22.377  68.061  45.403  1.00  0.00     0.159 HD
HETATM    3  C11 UNL     1      22.143  66.471  46.459  1.00  0.00     0.052 C 
HETATM    4  S1  UNL     1      23.799  65.969  45.917  1.00  0.00    -0.107 SA
HETATM    5  C12 UNL     1      23.567  64.466  44.935  1.00  0.00     0.108 C 
HETATM    6  C13 UNL     1      24.931  63.949  44.489  1.00  0.00     0.185 C 
HETATM    7  O3  UNL     1      25.377  63.299  45.622  1.00  0.00    -0.387 OA
HETATM    8  C14 UNL     1      24.315  62.578  46.124  1.00  0.00     0.200 C 
HETATM    9  C15 UNL     1      23.039  63.308  45.725  1.00  0.00     0.162 C 
HETATM   10  O4  UNL     1      22.364  63.629  46.868  1.00  0.00    -0.374 OA
HETATM   11  C16 UNL     1      21.170  64.280  46.720  1.00  0.00     0.166 C 
HETATM   12  C17 UNL     1      20.128  63.575  47.562  1.00  0.00     0.179 C 
HETATM   13  C18 UNL     1      20.211  63.906  49.013  1.00  0.00     0.180 C 
HETATM   14  C19 UNL     1      21.568  64.347  49.497  1.00  0.00     0.179 C 
HETATM   15  C20 UNL     1      22.209  65.373  48.606  1.00  0.00     0.162 C 
HETATM   16  C21 UNL     1      21.320  65.661  47.381  1.00  0.00     0.105 C 
ENDROOT
BRANCH   1  17
HETATM   17  C10 UNL     1      20.502  68.225  46.250  1.00  0.00     0.120 C 
BRANCH  17  18
HETATM   18  C9  UNL     1      19.942  68.807  44.993  1.00  0.00     0.020 C 
BRANCH  18  19
HETATM   19  C8  UNL     1      18.815  67.935  44.443  1.00  0.00     0.002 C 
BRANCH  19  20
HETATM   20  C7  UNL     1      18.341  66.953  45.460  1.00  0.00     0.000 C 
BRANCH  20  21
HETATM   21  C6  UNL     1      17.868  65.641  44.861  1.00  0.00     0.000 C 
BRANCH  21  22
HETATM   22  C5  UNL     1      16.409  65.740  44.482  1.00  0.00     0.000 C 
BRANCH  22  23
HETATM   23  C4  UNL     1      15.634  64.540  44.911  1.00  0.00     0.010 C 
BRANCH  23  24
HETATM   24  C3  UNL     1      14.444  64.832  45.772  1.00  0.00     0.111 C 
BRANCH  24  25
HETATM   25  C2  UNL     1      14.711  64.875  47.212  1.00  0.00     0.258 C 
HETATM   26  O2  UNL     1      13.780  64.849  48.040  1.00  0.00    -0.265 OA
BRANCH  25  27
HETATM   27  O1  UNL     1      16.000  64.948  47.743  1.00  0.00    -0.326 OA
HETATM   28  C1  UNL     1      16.481  66.136  48.360  1.00  0.00     0.213 C 
ENDBRANCH  25  27
ENDBRANCH  24  25
ENDBRANCH  23  24
ENDBRANCH  22  23
ENDBRANCH  21  22
ENDBRANCH  20  21
ENDBRANCH  19  20
ENDBRANCH  18  19
ENDBRANCH  17  18
ENDBRANCH   1  17
BRANCH  15  29
HETATM   29  O8  UNL     1      22.427  66.601  49.222  1.00  0.00    -0.392 OA
ATOM     30  H8  UNL     1      22.886  66.542  50.052  1.00  0.00     0.210 HD
ENDBRANCH  15  29
BRANCH  12  31
HETATM   31  O5  UNL     1      20.100  62.206  47.306  1.00  0.00    -0.390 OA
ATOM     32  H5  UNL     1      19.269  61.935  46.934  1.00  0.00     0.210 HD
ENDBRANCH  12  31
BRANCH  14  33
HETATM   33  O7  UNL     1      22.407  63.243  49.735  1.00  0.00    -0.390 OA
ATOM     34  H7  UNL     1      21.910  62.434  49.763  1.00  0.00     0.210 HD
ENDBRANCH  14  33
BRANCH  13  35
HETATM   35  O6  UNL     1      19.870  62.754  49.741  1.00  0.00    -0.390 OA
ATOM     36  H6  UNL     1      18.981  62.858  50.058  1.00  0.00     0.210 HD
ENDBRANCH  13  35
TORSDOF 14
ENDMDL
MODEL 2
REMARK VINA RESULT: -8.464787727      1.861      2.493
REMARK  14 active torsions:
REMARK  status: ('A' for Active; 'I' for Inactive)
REMARK    1  A    between atoms: O1_2  and  C2_3 
REMARK    2  A    between atoms: C2_3  and  C3_5 
REMARK    3  A    between atoms: C3_5  and  C4_6 
REMARK    4  A    between atoms: C4_6  and  C5_7 
REMARK    5  A    between atoms: C5_7  and  C6_8 
REMARK    6  A    between atoms: C6_8  and  C7_9 
REMARK    7  A    between atoms: C7_9  and  C8_10 
REMARK    8  A    between atoms: C8_10  and  C9_11 
REMARK    9  A    between atoms: C9_11  and  C10_12 
REMARK   10  A    between atoms: C10_12  and  N1_13 
REMARK   11  A    between atoms: C17_24  and  O5_25 
REMARK   12  A    between atoms: C18_27  and  O6_28 
REMARK   13  A    between atoms: C19_30  and  O7_31 
REMARK   14  A    between atoms: C20_33  and  O8_34 
ROOT
HETATM    1  N1  UNL     1      21.686  67.492  46.051  1.00  0.00    -0.387 N 
ATOM      2  H1  UNL     1      22.309  67.994  45.419  1.00  0.00     0.159 HD
HETATM    3  C11 UNL     1      22.141  66.417  46.507  1.00  0.00     0.052 C 
HETATM    4  S1  UNL     1      23.807  65.962  45.955  1.00  0.00    -0.107 SA
HETATM    5  C12 UNL     1      23.616  64.433  45.004  1.00  0.00     0.108 C 
HETATM    6  C13 UNL     1      24.993  63.955  44.553  1.00  0.00     0.185 C 
HETATM    7  O3  UNL     1      25.473  63.342  45.692  1.00  0.00    -0.387 OA
HETATM    8  C14 UNL     1      24.442  62.595  46.220  1.00  0.00     0.200 C 
HETATM    9  C15 UNL     1      23.138  63.273  45.822  1.00  0.00     0.162 C 
HETATM   10  O4  UNL     1      22.464  63.593  46.966  1.00  0.00    -0.374 OA
HETATM   11  C16 UNL     1      21.247  64.200  46.819  1.00  0.00     0.166 C 
HETATM   12  C17 UNL     1      20.239  63.476  47.687  1.00  0.00     0.179 C 
HETATM   13  C18 UNL     1      20.326  63.838  49.130  1.00  0.00     0.180 C 
HETATM   14  C19 UNL     1      21.672  64.334  49.590  1.00  0.00     0.179 C 
HETATM   15  C20 UNL     1      22.268  65.364  48.673  1.00  0.00     0.162 C 
HETATM   16  C21 UNL     1      21.357  65.598  47.453  1.00  0.00     0.105 C 
ENDROOT
BRANCH   1  17
HETATM   17  C10 UNL     1      20.439  68.110  46.283  1.00  0.00     0.120 C 
BRANCH  17  18
HETATM   18  C9  UNL     1      19.731  68.425  45.006  1.00  0.00     0.020 C 
BRANCH  18  19
HETATM   19  C8  UNL     1      18.653  67.384  44.708  1.00  0.00     0.002 C 
BRANCH  19  20
HETATM   20  C7  UNL     1      18.206  66.693  45.952  1.00  0.00     0.000 C 
BRANCH  20  21
HETATM   21  C6  UNL     1      17.602  65.324  45.701  1.00  0.00     0.000 C 
BRANCH  21  22
HETATM   22  C5  UNL     1      16.178  65.466  45.217  1.00  0.00     0.000 C 
BRANCH  22  23
HETATM   23  C4  UNL     1      15.881  64.559  44.070  1.00  0.00     0.010 C 
BRANCH  23  24
HETATM   24  C3  UNL     1      17.015  63.675  43.655  1.00  0.00     0.111 C 
BRANCH  24  25
HETATM   25  C2  UNL     1      16.624  62.412  43.024  1.00  0.00     0.258 C 
HETATM   26  O2  UNL     1      15.764  61.674  43.541  1.00  0.00    -0.265 OA
BRANCH  25  27
HETATM   27  O1  UNL     1      17.178  61.958  41.825  1.00  0.00    -0.326 OA
HETATM   28  C1  UNL     1      17.435  62.847  40.745  1.00  0.00     0.213 C 
ENDBRANCH  25  27
ENDBRANCH  24  25
ENDBRANCH  23  24
ENDBRANCH  22  23
ENDBRANCH  21  22
ENDBRANCH  20  21
ENDBRANCH  19  20
ENDBRANCH  18  19
ENDBRANCH  17  18
ENDBRANCH   1  17
BRANCH  15  29
HETATM   29  O8  UNL     1      22.451  66.610  49.263  1.00  0.00    -0.392 OA
ATOM     30  H8  UNL     1      22.972  67.212  48.743  1.00  0.00     0.210 HD
ENDBRANCH  15  29
BRANCH  12  31
HETATM   31  O5  UNL     1      20.255  62.102  47.457  1.00  0.00    -0.390 OA
ATOM     32  H5  UNL     1      21.112  61.804  47.173  1.00  0.00     0.210 HD
ENDBRANCH  12  31
BRANCH  14  33
HETATM   33  O7  UNL     1      22.551  63.264  49.839  1.00  0.00    -0.390 OA
ATOM     34  H7  UNL     1      23.451  63.562  49.885  1.00  0.00     0.210 HD
ENDBRANCH  14  33
BRANCH  13  35
HETATM   35  O6  UNL     1      20.033  62.689  49.884  1.00  0.00    -0.390 OA
ATOM     36  H6  UNL     1      19.860  62.960  50.778  1.00  0.00     0.210 HD
ENDBRANCH  13  35
TORSDOF 14
ENDMDL
MODEL 3
REMARK VINA RESULT: -8.242661023      1.719      2.291
REMARK  14 active torsions:
REMARK  status: ('A' for Active; 'I' for Inactive)
REMARK    1  A    between atoms: O1_2  and  C2_3 
REMARK    2  A    between atoms: C2_3  and  C3_5 
REMARK    3  A    between atoms: C3_5  and  C4_6 
REMARK    4  A    between atoms: C4_6  and  C5_7 
REMARK    5  A    between atoms: C5_7  and  C6_8 
REMARK    6  A    between atoms: C6_8  and  C7_9 
REMARK    7  A    between atoms: C7_9  and  C8_10 
REMARK    8  A    between atoms: C8_10  and  C9_11 
REMARK    9  A    between atoms: C9_11  and  C10_12 
REMARK   10  A    between atoms: C10_12  and  N1_13 
REMARK   11  A    between atoms: C17_24  and  O5_25 
REMARK   12  A    between atoms: C18_27  and  O6_28 
REMARK   13  A    between atoms: C19_30  and  O7_31 
REMARK   14  A    between atoms: C20_33  and  O8_34 
ROOT
HETATM    1  N1  UNL     1      21.654  67.381  45.929  1.00  0.00    -0.387 N 
ATOM      2  H1  UNL     1      22.277  67.873  45.289  1.00  0.00     0.159 HD
HETATM    3  C11 UNL     1      22.119  66.327  46.421  1.00  0.00     0.052 C 
HETATM    4  S1  UNL     1      23.797  65.879  45.901  1.00  0.00    -0.107 SA
HETATM    5  C12 UNL     1      23.638  64.321  44.994  1.00  0.00     0.108 C 
HETATM    6  C13 UNL     1      25.027  63.849  44.572  1.00  0.00     0.185 C 
HETATM    7  O3  UNL     1      25.502  63.277  45.734  1.00  0.00    -0.387 OA
HETATM    8  C14 UNL     1      24.475  62.531  46.271  1.00  0.00     0.200 C 
HETATM    9  C15 UNL     1      23.166  63.178  45.840  1.00  0.00     0.162 C 
HETATM   10  O4  UNL     1      22.475  63.521  46.967  1.00  0.00    -0.374 OA
HETATM   11  C16 UNL     1      21.252  64.107  46.788  1.00  0.00     0.166 C 
HETATM   12  C17 UNL     1      20.244  63.394  47.665  1.00  0.00     0.179 C 
HETATM   13  C18 UNL     1      20.309  63.799  49.099  1.00  0.00     0.180 C 
HETATM   14  C19 UNL     1      21.643  64.327  49.559  1.00  0.00     0.179 C 
HETATM   15  C20 UNL     1      22.235  65.339  48.619  1.00  0.00     0.162 C 
HETATM   16  C21 UNL     1      21.335  65.524  47.382  1.00  0.00     0.105 C 
ENDROOT
BRANCH   1  17
HETATM   17  C10 UNL     1      20.396  67.988  46.129  1.00  0.00     0.120 C 
BRANCH  17  18
HETATM   18  C9  UNL     1      19.653  68.159  44.844  1.00  0.00     0.020 C 
BRANCH  18  19
HETATM   19  C8  UNL     1      18.375  67.322  44.837  1.00  0.00     0.002 C 
BRANCH  19  20
HETATM   20  C7  UNL     1      18.199  66.588  46.123  1.00  0.00     0.000 C 
BRANCH  20  21
HETATM   21  C6  UNL     1      17.086  65.556  46.083  1.00  0.00     0.000 C 
BRANCH  21  22
HETATM   22  C5  UNL     1      16.362  65.624  44.759  1.00  0.00     0.000 C 
BRANCH  22  23
HETATM   23  C4  UNL     1      15.761  64.312  44.379  1.00  0.00     0.010 C 
BRANCH  23  24
HETATM   24  C3  UNL     1      16.337  63.687  43.147  1.00  0.00     0.111 C 
BRANCH  24  25
HETATM   25  C2  UNL     1      17.761  63.352  43.225  1.00  0.00     0.258 C 
HETATM   26  O2  UNL     1      18.149  62.319  43.805  1.00  0.00    -0.265 OA
BRANCH  25  27
HETATM   27  O1  UNL     1      18.761  64.150  42.666  1.00  0.00    -0.326 OA
HETATM   28  C1  UNL     1      20.003  64.354  43.329  1.00  0.00     0.213 C 
ENDBRANCH  25  27
ENDBRANCH  24  25
ENDBRANCH  23  24
ENDBRANCH  22  23
ENDBRANCH  21  22
ENDBRANCH  20  21
ENDBRANCH  19  20
ENDBRANCH  18  19
ENDBRANCH  17  18
ENDBRANCH   1  17
BRANCH  15  29
HETATM   29  O8  UNL     1      22.394  66.604  49.173  1.00  0.00    -0.392 OA
ATOM     30  H8  UNL     1      22.995  67.164  48.695  1.00  0.00     0.210 HD
ENDBRANCH  15  29
BRANCH  12  31
HETATM   31  O5  UNL     1      20.282  62.015  47.476  1.00  0.00    -0.390 OA
ATOM     32  H5  UNL     1      19.758  61.558  48.124  1.00  0.00     0.210 HD
ENDBRANCH  12  31
BRANCH  14  33
HETATM   33  O7  UNL     1      22.533  63.278  49.849  1.00  0.00    -0.390 OA
ATOM     34  H7  UNL     1      23.256  63.260  49.233  1.00  0.00     0.210 HD
ENDBRANCH  14  33
BRANCH  13  35
HETATM   35  O6  UNL     1      20.024  62.669  49.883  1.00  0.00    -0.390 OA
ATOM     36  H6  UNL     1      19.161  62.354  49.641  1.00  0.00     0.210 HD
ENDBRANCH  13  35
TORSDOF 14
ENDMDL
MODEL 4
REMARK VINA RESULT: -8.193621374      1.870      3.113
REMARK  14 active torsions:
REMARK  status: ('A' for Active; 'I' for Inactive)
REMARK    1  A    between atoms: O1_2  and  C2_3 
REMARK    2  A    between atoms: C2_3  and  C3_5 
REMARK    3  A    between atoms: C3_5  and  C4_6 
REMARK    4  A    between atoms: C4_6  and  C5_7 
REMARK    5  A    between atoms: C5_7  and  C6_8 
REMARK    6  A    between atoms: C6_8  and  C7_9 
REMARK    7  A    between atoms: C7_9  and  C8_10 
REMARK    8  A    between atoms: C8_10  and  C9_11 
REMARK    9  A    between atoms: C9_11  and  C10_12 
REMARK   10  A    between atoms: C10_12  and  N1_13 
REMARK   11  A    between atoms: C17_24  and  O5_25 
REMARK   12  A    between atoms: C18_27  and  O6_28 
REMARK   13  A    between atoms: C19_30  and  O7_31 
REMARK   14  A    between atoms: C20_33  and  O8_34 
ROOT
HETATM    1  N1  UNL     1      21.760  67.613  46.100  1.00  0.00    -0.387 N 
ATOM      2  H1  UNL     1      22.408  68.114  45.492  1.00  0.00     0.159 HD
HETATM    3  C11 UNL     1      22.170  66.506  46.519  1.00  0.00     0.052 C 
HETATM    4  S1  UNL     1      23.822  66.008  45.965  1.00  0.00    -0.107 SA
HETATM    5  C12 UNL     1      23.583  64.524  44.957  1.00  0.00     0.108 C 
HETATM    6  C13 UNL     1      24.945  64.009  44.500  1.00  0.00     0.185 C 
HETATM    7  O3  UNL     1      25.390  63.338  45.619  1.00  0.00    -0.387 OA
HETATM    8  C14 UNL     1      24.326  62.612  46.111  1.00  0.00     0.200 C 
HETATM    9  C15 UNL     1      23.053  63.353  45.727  1.00  0.00     0.162 C 
HETATM   10  O4  UNL     1      22.380  63.656  46.877  1.00  0.00    -0.374 OA
HETATM   11  C16 UNL     1      21.189  64.315  46.743  1.00  0.00     0.166 C 
HETATM   12  C17 UNL     1      20.146  63.599  47.575  1.00  0.00     0.179 C 
HETATM   13  C18 UNL     1      20.233  63.904  49.031  1.00  0.00     0.180 C 
HETATM   14  C19 UNL     1      21.593  64.331  49.520  1.00  0.00     0.179 C 
HETATM   15  C20 UNL     1      22.236  65.370  48.647  1.00  0.00     0.162 C 
HETATM   16  C21 UNL     1      21.346  65.684  47.429  1.00  0.00     0.105 C 
ENDROOT
BRANCH   1  17
HETATM   17  C10 UNL     1      20.535  68.270  46.344  1.00  0.00     0.120 C 
BRANCH  17  18
HETATM   18  C9  UNL     1      19.950  68.835  45.091  1.00  0.00     0.020 C 
BRANCH  18  19
HETATM   19  C8  UNL     1      18.910  67.886  44.499  1.00  0.00     0.002 C 
BRANCH  19  20
HETATM   20  C7  UNL     1      18.328  66.996  45.544  1.00  0.00     0.000 C 
BRANCH  20  21
HETATM   21  C6  UNL     1      17.203  66.115  45.033  1.00  0.00     0.000 C 
BRANCH  21  22
HETATM   22  C5  UNL     1      17.635  64.667  45.037  1.00  0.00     0.000 C 
BRANCH  22  23
HETATM   23  C4  UNL     1      18.055  64.201  43.684  1.00  0.00     0.010 C 
BRANCH  23  24
HETATM   24  C3  UNL     1      19.530  64.235  43.434  1.00  0.00     0.111 C 
BRANCH  24  25
HETATM   25  C2  UNL     1      20.175  62.924  43.327  1.00  0.00     0.258 C 
HETATM   26  O2  UNL     1      20.178  62.128  44.286  1.00  0.00    -0.265 OA
BRANCH  25  27
HETATM   27  O1  UNL     1      20.819  62.487  42.168  1.00  0.00    -0.326 OA
HETATM   28  C1  UNL     1      22.235  62.539  42.042  1.00  0.00     0.213 C 
ENDBRANCH  25  27
ENDBRANCH  24  25
ENDBRANCH  23  24
ENDBRANCH  22  23
ENDBRANCH  21  22
ENDBRANCH  20  21
ENDBRANCH  19  20
ENDBRANCH  18  19
ENDBRANCH  17  18
ENDBRANCH   1  17
BRANCH  15  29
HETATM   29  O8  UNL     1      22.460  66.587  49.283  1.00  0.00    -0.392 OA
ATOM     30  H8  UNL     1      22.599  67.315  48.689  1.00  0.00     0.210 HD
ENDBRANCH  15  29
BRANCH  12  31
HETATM   31  O5  UNL     1      20.112  62.235  47.295  1.00  0.00    -0.390 OA
ATOM     32  H5  UNL     1      19.302  61.836  47.590  1.00  0.00     0.210 HD
ENDBRANCH  12  31
BRANCH  14  33
HETATM   33  O7  UNL     1      22.427  63.220  49.737  1.00  0.00    -0.390 OA
ATOM     34  H7  UNL     1      22.393  62.616  49.004  1.00  0.00     0.210 HD
ENDBRANCH  14  33
BRANCH  13  35
HETATM   35  O6  UNL     1      19.889  62.741  49.740  1.00  0.00    -0.390 OA
ATOM     36  H6  UNL     1      20.693  62.298  49.986  1.00  0.00     0.210 HD
ENDBRANCH  13  35
TORSDOF 14
ENDMDL
MODEL 5
REMARK VINA RESULT: -8.031358691      2.398      3.198
REMARK  14 active torsions:
REMARK  status: ('A' for Active; 'I' for Inactive)
REMARK    1  A    between atoms: O1_2  and  C2_3 
REMARK    2  A    between atoms: C2_3  and  C3_5 
REMARK    3  A    between atoms: C3_5  and  C4_6 
REMARK    4  A    between atoms: C4_6  and  C5_7 
REMARK    5  A    between atoms: C5_7  and  C6_8 
REMARK    6  A    between atoms: C6_8  and  C7_9 
REMARK    7  A    between atoms: C7_9  and  C8_10 
REMARK    8  A    between atoms: C8_10  and  C9_11 
REMARK    9  A    between atoms: C9_11  and  C10_12 
REMARK   10  A    between atoms: C10_12  and  N1_13 
REMARK   11  A    between atoms: C17_24  and  O5_25 
REMARK   12  A    between atoms: C18_27  and  O6_28 
REMARK   13  A    between atoms: C19_30  and  O7_31 
REMARK   14  A    between atoms: C20_33  and  O8_34 
ROOT
HETATM    1  N1  UNL     1      21.722  67.253  45.672  1.00  0.00    -0.387 N 
ATOM      2  H1  UNL     1      22.375  67.732  45.053  1.00  0.00     0.159 HD
HETATM    3  C11 UNL     1      22.174  66.228  46.233  1.00  0.00     0.052 C 
HETATM    4  S1  UNL     1      23.889  65.794  45.836  1.00  0.00    -0.107 SA
HETATM    5  C12 UNL     1      23.814  64.199  44.983  1.00  0.00     0.108 C 
HETATM    6  C13 UNL     1      25.234  63.739  44.666  1.00  0.00     0.185 C 
HETATM    7  O3  UNL     1      25.646  63.222  45.877  1.00  0.00    -0.387 OA
HETATM    8  C14 UNL     1      24.601  62.477  46.379  1.00  0.00     0.200 C 
HETATM    9  C15 UNL     1      23.311  63.081  45.843  1.00  0.00     0.162 C 
HETATM   10  O4  UNL     1      22.545  63.453  46.911  1.00  0.00    -0.374 OA
HETATM   11  C16 UNL     1      21.325  64.007  46.635  1.00  0.00     0.166 C 
HETATM   12  C17 UNL     1      20.277  63.308  47.476  1.00  0.00     0.179 C 
HETATM   13  C18 UNL     1      20.246  63.769  48.893  1.00  0.00     0.180 C 
HETATM   14  C19 UNL     1      21.540  64.341  49.413  1.00  0.00     0.179 C 
HETATM   15  C20 UNL     1      22.171  65.327  48.472  1.00  0.00     0.162 C 
HETATM   16  C21 UNL     1      21.346  65.447  47.176  1.00  0.00     0.105 C 
ENDROOT
BRANCH   1  17
HETATM   17  C10 UNL     1      20.443  67.841  45.771  1.00  0.00     0.120 C 
BRANCH  17  18
HETATM   18  C9  UNL     1      19.646  67.644  44.523  1.00  0.00     0.020 C 
BRANCH  18  19
HETATM   19  C8  UNL     1      18.189  67.323  44.851  1.00  0.00     0.002 C 
BRANCH  19  20
HETATM   20  C7  UNL     1      18.070  66.038  45.598  1.00  0.00     0.000 C 
BRANCH  20  21
HETATM   21  C6  UNL     1      18.080  64.813  44.702  1.00  0.00     0.000 C 
BRANCH  21  22
HETATM   22  C5  UNL     1      16.676  64.496  44.242  1.00  0.00     0.000 C 
BRANCH  22  23
HETATM   23  C4  UNL     1      16.584  63.152  43.601  1.00  0.00     0.010 C 
BRANCH  23  24
HETATM   24  C3  UNL     1      16.335  63.173  42.125  1.00  0.00     0.111 C 
BRANCH  24  25
HETATM   25  C2  UNL     1      17.501  62.871  41.291  1.00  0.00     0.258 C 
HETATM   26  O2  UNL     1      18.645  62.809  41.782  1.00  0.00    -0.265 OA
BRANCH  25  27
HETATM   27  O1  UNL     1      17.411  62.637  39.917  1.00  0.00    -0.326 OA
HETATM   28  C1  UNL     1      18.564  62.664  39.085  1.00  0.00     0.213 C 
ENDBRANCH  25  27
ENDBRANCH  24  25
ENDBRANCH  23  24
ENDBRANCH  22  23
ENDBRANCH  21  22
ENDBRANCH  20  21
ENDBRANCH  19  20
ENDBRANCH  18  19
ENDBRANCH  17  18
ENDBRANCH   1  17
BRANCH  15  29
HETATM   29  O8  UNL     1      22.272  66.616  48.985  1.00  0.00    -0.392 OA
ATOM     30  H8  UNL     1      23.129  67.012  48.871  1.00  0.00     0.210 HD
ENDBRANCH  15  29
BRANCH  12  31
HETATM   31  O5  UNL     1      20.351  61.924  47.344  1.00  0.00    -0.390 OA
ATOM     32  H5  UNL     1      19.642  61.489  47.803  1.00  0.00     0.210 HD
ENDBRANCH  12  31
BRANCH  14  33
HETATM   33  O7  UNL     1      22.428  63.321  49.798  1.00  0.00    -0.390 OA
ATOM     34  H7  UNL     1      22.144  62.476  49.472  1.00  0.00     0.210 HD
ENDBRANCH  14  33
BRANCH  13  35
HETATM   35  O6  UNL     1      19.932  62.664  49.702  1.00  0.00    -0.390 OA
ATOM     36  H6  UNL     1      19.472  62.029  49.167  1.00  0.00     0.210 HD
ENDBRANCH  13  35
TORSDOF 14
ENDMDL
