MODEL 1
REMARK VINA RESULT: -8.297009435      0.000      0.000
REMARK  11 active torsions:
REMARK  status: ('A' for Active; 'I' for Inactive)
REMARK    1  A    between atoms: C2_2  and  N1_3 
REMARK       I    between atoms: C3_5  and  N2_6 
REMARK       I    between atoms: C3_5  and  N3_11 
REMARK    2  A    between atoms: N2_6  and  C4_7 
REMARK    3  A    between atoms: C4_7  and  O1_9 
REMARK    4  A    between atoms: N3_11  and  N4_13 
REMARK    5  A    between atoms: N4_13  and  C6_14 
REMARK    6  A    between atoms: N4_13  and  C10_28 
REMARK    7  A    between atoms: C6_14  and  C7_15 
REMARK    8  A    between atoms: C7_15  and  C8_16 
REMARK    9  A    between atoms: C8_16  and  N5_17 
REMARK       I    between atoms: N5_17  and  C9_19 
REMARK       I    between atoms: C9_19  and  N7_23 
REMARK   10  A    between atoms: N7_23  and  N8_25 
REMARK       I    between atoms: N10_32  and  C12_33 
REMARK   11  A    between atoms: C13_38  and  N13_39 
ROOT
HETATM    1  N4  UNL     1     124.719  41.910  19.458  1.00  0.00    -0.274 N 
ENDROOT
BRANCH   1   2
HETATM    2  N3  UNL     1     123.330  41.903  19.453  1.00  0.00    -0.256 N 
HETATM    3  C3  UNL     1     122.596  43.017  19.004  1.00  0.00     0.272 C 
HETATM    4  N1  UNL     1     121.798  43.561  19.924  1.00  0.00    -0.350 N 
HETATM    5  N2  UNL     1     122.605  43.569  17.749  1.00  0.00    -0.350 NA
ATOM      6  H1  UNL     1     121.221  44.364  19.678  1.00  0.00     0.163 HD
ATOM      7  H3  UNL     1     122.833  41.076  19.782  1.00  0.00     0.191 HD
BRANCH   4   8
HETATM    8  C2  UNL     1     121.741  43.036  21.243  1.00  0.00     0.119 C 
HETATM    9  C1  UNL     1     120.495  43.620  21.912  1.00  0.00     0.026 C 
ENDBRANCH   4   8
BRANCH   5  10
HETATM   10  C4  UNL     1     122.615  44.105  16.532  1.00  0.00     0.189 C 
HETATM   11  C5  UNL     1     123.875  44.900  16.111  1.00  0.00     0.114 C 
BRANCH  10  12
HETATM   12  O1  UNL     1     121.730  44.091  15.579  1.00  0.00    -0.339 OA
ATOM     13  H1  UNL     1     121.717  44.511  14.727  1.00  0.00     0.220 HD
ENDBRANCH  10  12
ENDBRANCH   5  10
ENDBRANCH   1   2
BRANCH   1  14
HETATM   14  C6  UNL     1     125.488  41.142  18.544  1.00  0.00     0.152 C 
BRANCH  14  15
HETATM   15  C7  UNL     1     125.097  39.685  18.601  1.00  0.00     0.042 C 
BRANCH  15  16
HETATM   16  C8  UNL     1     126.197  38.946  17.828  1.00  0.00     0.140 C 
BRANCH  16  17
HETATM   17  N5  UNL     1     127.294  38.713  18.718  1.00  0.00    -0.225 N 
HETATM   18  C9  UNL     1     128.242  37.703  18.323  1.00  0.00     0.691 C 
HETATM   19  N6  UNL     1     128.417  36.714  19.092  1.00  0.00    -0.233 N 
HETATM   20  N7  UNL     1     128.897  37.934  17.094  1.00  0.00    -0.072 N 
ATOM     21  H62 UNL     1     127.944  36.547  19.980  1.00  0.00     0.174 HD
ATOM     22  H61 UNL     1     129.089  35.999  18.813  1.00  0.00     0.174 HD
ATOM     23  H7  UNL     1     129.261  38.866  16.893  1.00  0.00     0.212 HD
ATOM     24  H5  UNL     1     127.399  39.236  19.586  1.00  0.00     0.177 HD
BRANCH  20  25
HETATM   25  N8  UNL     1     129.060  36.934  16.155  1.00  0.00    -0.024 N 
HETATM   26  O2  UNL     1     128.182  36.052  15.978  1.00  0.00    -0.516 OA
HETATM   27  O3  UNL     1     130.184  36.838  15.361  1.00  0.00    -0.516 OA
ENDBRANCH  20  25
ENDBRANCH  16  17
ENDBRANCH  15  16
ENDBRANCH  14  15
ENDBRANCH   1  14
BRANCH   1  28
HETATM   28  C10 UNL     1     125.317  42.791  20.432  1.00  0.00     0.146 C 
HETATM   29  N9  UNL     1     125.011  43.980  20.720  1.00  0.00    -0.359 N 
HETATM   30  C11 UNL     1     125.877  44.514  21.771  1.00  0.00     0.253 C 
ATOM     31  H9  UNL     1     124.257  44.502  20.276  1.00  0.00     0.162 HD
HETATM   32  N10 UNL     1     126.672  43.400  22.216  1.00  0.00    -0.305 N 
HETATM   33  C12 UNL     1     127.525  43.300  23.346  1.00  0.00     0.187 C 
HETATM   34  C13 UNL     1     126.449  42.320  21.271  1.00  0.00     0.357 C 
HETATM   35  N11 UNL     1     128.675  43.871  23.369  1.00  0.00    -0.374 N 
HETATM   36  N12 UNL     1     127.132  42.562  24.502  1.00  0.00    -0.064 NA
ATOM     37 2H11 UNL     1     128.956  44.399  22.542  1.00  0.00     0.158 HD
ATOM     38 1H11 UNL     1     129.287  43.800  24.181  1.00  0.00     0.158 HD
BRANCH  34  39
HETATM   39  N13 UNL     1     125.977  41.177  22.011  1.00  0.00    -0.051 N 
ATOM     40 3H13 UNL     1     125.149  41.377  22.572  1.00  0.00     0.277 HD
ATOM     41 2H13 UNL     1     125.561  40.459  21.418  1.00  0.00     0.277 HD
ATOM     42 1H13 UNL     1     126.763  40.834  22.564  1.00  0.00     0.277 HD
ENDBRANCH  34  39
ENDBRANCH   1  28
TORSDOF 11
ENDMDL
MODEL 2
REMARK VINA RESULT: -8.031348890      2.983      4.499
REMARK  11 active torsions:
REMARK  status: ('A' for Active; 'I' for Inactive)
REMARK    1  A    between atoms: C2_2  and  N1_3 
REMARK       I    between atoms: C3_5  and  N2_6 
REMARK       I    between atoms: C3_5  and  N3_11 
REMARK    2  A    between atoms: N2_6  and  C4_7 
REMARK    3  A    between atoms: C4_7  and  O1_9 
REMARK    4  A    between atoms: N3_11  and  N4_13 
REMARK    5  A    between atoms: N4_13  and  C6_14 
REMARK    6  A    between atoms: N4_13  and  C10_28 
REMARK    7  A    between atoms: C6_14  and  C7_15 
REMARK    8  A    between atoms: C7_15  and  C8_16 
REMARK    9  A    between atoms: C8_16  and  N5_17 
REMARK       I    between atoms: N5_17  and  C9_19 
REMARK       I    between atoms: C9_19  and  N7_23 
REMARK   10  A    between atoms: N7_23  and  N8_25 
REMARK       I    between atoms: N10_32  and  C12_33 
REMARK   11  A    between atoms: C13_38  and  N13_39 
ROOT
HETATM    1  N4  UNL     1     126.882  41.829  19.124  1.00  0.00    -0.274 N 
ENDROOT
BRANCH   1   2
HETATM    2  N3  UNL     1     126.785  41.789  20.508  1.00  0.00    -0.256 N 
HETATM    3  C3  UNL     1     125.757  42.467  21.190  1.00  0.00     0.272 C 
HETATM    4  N1  UNL     1     126.181  43.401  22.041  1.00  0.00    -0.350 N 
HETATM    5  N2  UNL     1     124.407  42.256  21.082  1.00  0.00    -0.350 NA
ATOM      6  H1  UNL     1     125.502  43.932  22.585  1.00  0.00     0.163 HD
ATOM      7  H3  UNL     1     127.473  41.257  21.043  1.00  0.00     0.191 HD
BRANCH   4   8
HETATM    8  C2  UNL     1     127.567  43.668  22.200  1.00  0.00     0.119 C 
HETATM    9  C1  UNL     1     127.858  43.685  23.703  1.00  0.00     0.026 C 
ENDBRANCH   4   8
BRANCH   5  10
HETATM   10  C4  UNL     1     123.097  42.052  20.976  1.00  0.00     0.189 C 
HETATM   11  C5  UNL     1     122.439  42.324  19.600  1.00  0.00     0.114 C 
BRANCH  10  12
HETATM   12  O1  UNL     1     122.217  41.649  21.844  1.00  0.00    -0.339 OA
ATOM     13  H1  UNL     1     122.224  40.922  22.456  1.00  0.00     0.220 HD
ENDBRANCH  10  12
ENDBRANCH   5  10
ENDBRANCH   1   2
BRANCH   1  14
HETATM   14  C6  UNL     1     125.922  41.218  18.274  1.00  0.00     0.152 C 
BRANCH  14  15
HETATM   15  C7  UNL     1     125.546  39.847  18.784  1.00  0.00     0.042 C 
BRANCH  15  16
HETATM   16  C8  UNL     1     126.427  38.871  17.995  1.00  0.00     0.140 C 
BRANCH  16  17
HETATM   17  N5  UNL     1     127.411  38.332  18.884  1.00  0.00    -0.225 N 
HETATM   18  C9  UNL     1     128.240  37.275  18.365  1.00  0.00     0.691 C 
HETATM   19  N6  UNL     1     128.219  36.154  18.953  1.00  0.00    -0.233 N 
HETATM   20  N7  UNL     1     129.013  37.612  17.233  1.00  0.00    -0.072 N 
ATOM     21  H62 UNL     1     127.660  35.910  19.770  1.00  0.00     0.174 HD
ATOM     22  H61 UNL     1     128.806  35.406  18.585  1.00  0.00     0.174 HD
ATOM     23  H7  UNL     1     129.514  38.501  17.222  1.00  0.00     0.212 HD
ATOM     24  H5  UNL     1     127.519  38.678  19.837  1.00  0.00     0.177 HD
BRANCH  20  25
HETATM   25  N8  UNL     1     129.111  36.773  16.140  1.00  0.00    -0.024 N 
HETATM   26  O2  UNL     1     128.199  35.954  15.859  1.00  0.00    -0.516 OA
HETATM   27  O3  UNL     1     130.202  36.778  15.296  1.00  0.00    -0.516 OA
ENDBRANCH  20  25
ENDBRANCH  16  17
ENDBRANCH  15  16
ENDBRANCH  14  15
ENDBRANCH   1  14
BRANCH   1  28
HETATM   28  C10 UNL     1     128.006  42.578  18.617  1.00  0.00     0.146 C 
HETATM   29  N9  UNL     1     128.334  43.774  18.851  1.00  0.00    -0.359 N 
HETATM   30  C11 UNL     1     129.550  44.145  18.129  1.00  0.00     0.253 C 
ATOM     31  H9  UNL     1     127.816  44.401  19.466  1.00  0.00     0.162 HD
HETATM   32  N10 UNL     1     130.029  42.927  17.531  1.00  0.00    -0.305 N 
HETATM   33  C12 UNL     1     131.271  42.665  16.896  1.00  0.00     0.187 C 
HETATM   34  C13 UNL     1     128.978  41.937  17.695  1.00  0.00     0.357 C 
HETATM   35  N11 UNL     1     131.524  43.107  15.717  1.00  0.00    -0.374 N 
HETATM   36  N12 UNL     1     132.286  41.904  17.548  1.00  0.00    -0.064 NA
ATOM     37 2H11 UNL     1     130.798  43.651  15.250  1.00  0.00     0.158 HD
ATOM     38 1H11 UNL     1     132.417  42.919  15.260  1.00  0.00     0.158 HD
BRANCH  34  39
HETATM   39  N13 UNL     1     129.539  40.809  18.393  1.00  0.00    -0.051 N 
ATOM     40 3H13 UNL     1     130.040  40.167  17.780  1.00  0.00     0.277 HD
ATOM     41 2H13 UNL     1     130.327  41.058  18.991  1.00  0.00     0.277 HD
ATOM     42 1H13 UNL     1     128.775  40.363  18.902  1.00  0.00     0.277 HD
ENDBRANCH  34  39
ENDBRANCH   1  28
TORSDOF 11
ENDMDL
MODEL 3
REMARK VINA RESULT: -7.989218557      2.290      5.025
REMARK  11 active torsions:
REMARK  status: ('A' for Active; 'I' for Inactive)
REMARK    1  A    between atoms: C2_2  and  N1_3 
REMARK       I    between atoms: C3_5  and  N2_6 
REMARK       I    between atoms: C3_5  and  N3_11 
REMARK    2  A    between atoms: N2_6  and  C4_7 
REMARK    3  A    between atoms: C4_7  and  O1_9 
REMARK    4  A    between atoms: N3_11  and  N4_13 
REMARK    5  A    between atoms: N4_13  and  C6_14 
REMARK    6  A    between atoms: N4_13  and  C10_28 
REMARK    7  A    between atoms: C6_14  and  C7_15 
REMARK    8  A    between atoms: C7_15  and  C8_16 
REMARK    9  A    between atoms: C8_16  and  N5_17 
REMARK       I    between atoms: N5_17  and  C9_19 
REMARK       I    between atoms: C9_19  and  N7_23 
REMARK   10  A    between atoms: N7_23  and  N8_25 
REMARK       I    between atoms: N10_32  and  C12_33 
REMARK   11  A    between atoms: C13_38  and  N13_39 
ROOT
HETATM    1  N4  UNL     1     126.475  41.182  19.114  1.00  0.00    -0.274 N 
ENDROOT
BRANCH   1   2
HETATM    2  N3  UNL     1     127.550  41.586  19.895  1.00  0.00    -0.256 N 
HETATM    3  C3  UNL     1     127.682  42.920  20.323  1.00  0.00     0.272 C 
HETATM    4  N1  UNL     1     128.787  43.532  19.895  1.00  0.00    -0.350 N 
HETATM    5  N2  UNL     1     126.824  43.626  21.126  1.00  0.00    -0.350 NA
ATOM      6  H1  UNL     1     128.967  44.497  20.169  1.00  0.00     0.163 HD
ATOM      7  H3  UNL     1     128.259  40.902  20.163  1.00  0.00     0.191 HD
BRANCH   4   8
HETATM    8  C2  UNL     1     129.718  42.857  19.060  1.00  0.00     0.119 C 
HETATM    9  C1  UNL     1     130.972  42.592  19.897  1.00  0.00     0.026 C 
ENDBRANCH   4   8
BRANCH   5  10
HETATM   10  C4  UNL     1     125.990  44.309  21.905  1.00  0.00     0.189 C 
HETATM   11  C5  UNL     1     126.595  45.044  23.128  1.00  0.00     0.114 C 
BRANCH  10  12
HETATM   12  O1  UNL     1     124.705  44.490  21.839  1.00  0.00    -0.339 OA
ATOM     13  H1  UNL     1     124.186  45.168  21.421  1.00  0.00     0.220 HD
ENDBRANCH  10  12
ENDBRANCH   5  10
ENDBRANCH   1   2
BRANCH   1  14
HETATM   14  C6  UNL     1     126.641  40.592  17.834  1.00  0.00     0.152 C 
BRANCH  14  15
HETATM   15  C7  UNL     1     126.046  39.204  17.799  1.00  0.00     0.042 C 
BRANCH  15  16
HETATM   16  C8  UNL     1     127.208  38.281  17.411  1.00  0.00     0.140 C 
BRANCH  16  17
HETATM   17  N5  UNL     1     127.908  37.912  18.604  1.00  0.00    -0.225 N 
HETATM   18  C9  UNL     1     129.079  37.090  18.437  1.00  0.00     0.691 C 
HETATM   19  N6  UNL     1     129.101  35.958  19.002  1.00  0.00    -0.233 N 
HETATM   20  N7  UNL     1     130.107  37.653  17.650  1.00  0.00    -0.072 N 
ATOM     21  H62 UNL     1     128.358  35.551  19.570  1.00  0.00     0.174 HD
ATOM     22  H61 UNL     1     129.930  35.376  18.884  1.00  0.00     0.174 HD
ATOM     23  H7  UNL     1     130.369  38.627  17.800  1.00  0.00     0.212 HD
ATOM     24  H5  UNL     1     127.593  38.215  19.525  1.00  0.00     0.177 HD
BRANCH  20  25
HETATM   25  N8  UNL     1     130.767  36.922  16.682  1.00  0.00    -0.024 N 
HETATM   26  O2  UNL     1     131.795  36.251  16.953  1.00  0.00    -0.516 OA
HETATM   27  O3  UNL     1     130.348  36.881  15.368  1.00  0.00    -0.516 OA
ENDBRANCH  20  25
ENDBRANCH  16  17
ENDBRANCH  15  16
ENDBRANCH  14  15
ENDBRANCH   1  14
BRANCH   1  28
HETATM   28  C10 UNL     1     125.181  41.367  19.726  1.00  0.00     0.146 C 
HETATM   29  N9  UNL     1     124.765  40.959  20.844  1.00  0.00    -0.359 N 
HETATM   30  C11 UNL     1     123.380  41.366  21.080  1.00  0.00     0.253 C 
ATOM     31  H9  UNL     1     125.323  40.413  21.499  1.00  0.00     0.162 HD
HETATM   32  N10 UNL     1     123.048  42.247  19.992  1.00  0.00    -0.305 N 
HETATM   33  C12 UNL     1     121.915  43.086  19.829  1.00  0.00     0.187 C 
HETATM   34  C13 UNL     1     124.127  42.145  19.024  1.00  0.00     0.357 C 
HETATM   35  N11 UNL     1     120.765  42.603  19.524  1.00  0.00    -0.374 N 
HETATM   36  N12 UNL     1     122.013  44.498  20.001  1.00  0.00    -0.064 NA
ATOM     37 2H11 UNL     1     120.695  41.593  19.399  1.00  0.00     0.158 HD
ATOM     38 1H11 UNL     1     119.950  43.206  19.407  1.00  0.00     0.158 HD
BRANCH  34  39
HETATM   39  N13 UNL     1     124.653  43.468  18.808  1.00  0.00    -0.051 N 
ATOM     40 3H13 UNL     1     124.351  44.139  19.513  1.00  0.00     0.277 HD
ATOM     41 2H13 UNL     1     125.655  43.535  18.987  1.00  0.00     0.277 HD
ATOM     42 1H13 UNL     1     124.396  43.740  17.859  1.00  0.00     0.277 HD
ENDBRANCH  34  39
ENDBRANCH   1  28
TORSDOF 11
ENDMDL
MODEL 4
REMARK VINA RESULT: -7.836775502      3.016      4.324
REMARK  11 active torsions:
REMARK  status: ('A' for Active; 'I' for Inactive)
REMARK    1  A    between atoms: C2_2  and  N1_3 
REMARK       I    between atoms: C3_5  and  N2_6 
REMARK       I    between atoms: C3_5  and  N3_11 
REMARK    2  A    between atoms: N2_6  and  C4_7 
REMARK    3  A    between atoms: C4_7  and  O1_9 
REMARK    4  A    between atoms: N3_11  and  N4_13 
REMARK    5  A    between atoms: N4_13  and  C6_14 
REMARK    6  A    between atoms: N4_13  and  C10_28 
REMARK    7  A    between atoms: C6_14  and  C7_15 
REMARK    8  A    between atoms: C7_15  and  C8_16 
REMARK    9  A    between atoms: C8_16  and  N5_17 
REMARK       I    between atoms: N5_17  and  C9_19 
REMARK       I    between atoms: C9_19  and  N7_23 
REMARK   10  A    between atoms: N7_23  and  N8_25 
REMARK       I    between atoms: N10_32  and  C12_33 
REMARK   11  A    between atoms: C13_38  and  N13_39 
ROOT
HETATM    1  N4  UNL     1     126.881  41.608  19.375  1.00  0.00    -0.274 N 
ENDROOT
BRANCH   1   2
HETATM    2  N3  UNL     1     126.704  41.739  20.746  1.00  0.00    -0.256 N 
HETATM    3  C3  UNL     1     125.649  42.505  21.277  1.00  0.00     0.272 C 
HETATM    4  N1  UNL     1     126.038  43.534  22.031  1.00  0.00    -0.350 N 
HETATM    5  N2  UNL     1     124.304  42.295  21.116  1.00  0.00    -0.350 NA
ATOM      6  H1  UNL     1     125.336  44.133  22.465  1.00  0.00     0.163 HD
ATOM      7  H3  UNL     1     127.351  41.272  21.381  1.00  0.00     0.191 HD
BRANCH   4   8
HETATM    8  C2  UNL     1     127.416  43.806  22.239  1.00  0.00     0.119 C 
HETATM    9  C1  UNL     1     127.699  43.615  23.731  1.00  0.00     0.026 C 
ENDBRANCH   4   8
BRANCH   5  10
HETATM   10  C4  UNL     1     122.999  42.090  20.958  1.00  0.00     0.189 C 
HETATM   11  C5  UNL     1     122.400  42.346  19.553  1.00  0.00     0.114 C 
BRANCH  10  12
HETATM   12  O1  UNL     1     122.083  41.699  21.794  1.00  0.00    -0.339 OA
ATOM     13  H1  UNL     1     122.104  41.055  22.493  1.00  0.00     0.220 HD
ENDBRANCH  10  12
ENDBRANCH   5  10
ENDBRANCH   1   2
BRANCH   1  14
HETATM   14  C6  UNL     1     125.844  41.167  18.511  1.00  0.00     0.152 C 
BRANCH  14  15
HETATM   15  C7  UNL     1     125.445  39.745  18.830  1.00  0.00     0.042 C 
BRANCH  15  16
HETATM   16  C8  UNL     1     126.401  38.869  18.011  1.00  0.00     0.140 C 
BRANCH  16  17
HETATM   17  N5  UNL     1     127.398  38.344  18.893  1.00  0.00    -0.225 N 
HETATM   18  C9  UNL     1     128.242  37.302  18.366  1.00  0.00     0.691 C 
HETATM   19  N6  UNL     1     128.244  36.180  18.951  1.00  0.00    -0.233 N 
HETATM   20  N7  UNL     1     129.003  37.656  17.231  1.00  0.00    -0.072 N 
ATOM     21  H62 UNL     1     127.694  35.925  19.771  1.00  0.00     0.174 HD
ATOM     22  H61 UNL     1     128.842  35.443  18.578  1.00  0.00     0.174 HD
ATOM     23  H7  UNL     1     129.489  38.553  17.219  1.00  0.00     0.212 HD
ATOM     24  H5  UNL     1     127.506  38.690  19.846  1.00  0.00     0.177 HD
BRANCH  20  25
HETATM   25  N8  UNL     1     129.108  36.821  16.135  1.00  0.00    -0.024 N 
HETATM   26  O2  UNL     1     128.219  35.973  15.869  1.00  0.00    -0.516 OA
HETATM   27  O3  UNL     1     130.183  36.862  15.272  1.00  0.00    -0.516 OA
ENDBRANCH  20  25
ENDBRANCH  16  17
ENDBRANCH  15  16
ENDBRANCH  14  15
ENDBRANCH   1  14
BRANCH   1  28
HETATM   28  C10 UNL     1     128.184  41.998  18.893  1.00  0.00     0.146 C 
HETATM   29  N9  UNL     1     129.078  41.288  18.357  1.00  0.00    -0.359 N 
HETATM   30  C11 UNL     1     130.258  42.082  18.016  1.00  0.00     0.253 C 
ATOM     31  H9  UNL     1     128.988  40.287  18.183  1.00  0.00     0.162 HD
HETATM   32  N10 UNL     1     129.889  43.448  18.276  1.00  0.00    -0.305 N 
HETATM   33  C12 UNL     1     130.572  44.644  17.932  1.00  0.00     0.187 C 
HETATM   34  C13 UNL     1     128.622  43.414  18.986  1.00  0.00     0.357 C 
HETATM   35  N11 UNL     1     131.625  45.018  18.565  1.00  0.00    -0.374 N 
HETATM   36  N12 UNL     1     130.114  45.472  16.865  1.00  0.00    -0.064 NA
ATOM     37 2H11 UNL     1     131.952  44.426  19.329  1.00  0.00     0.158 HD
ATOM     38 1H11 UNL     1     132.116  45.878  18.317  1.00  0.00     0.158 HD
BRANCH  34  39
HETATM   39  N13 UNL     1     127.675  44.198  18.237  1.00  0.00    -0.051 N 
ATOM     40 3H13 UNL     1     126.886  43.652  17.893  1.00  0.00     0.277 HD
ATOM     41 2H13 UNL     1     127.141  44.846  18.816  1.00  0.00     0.277 HD
ATOM     42 1H13 UNL     1     128.195  44.663  17.492  1.00  0.00     0.277 HD
ENDBRANCH  34  39
ENDBRANCH   1  28
TORSDOF 11
ENDMDL
MODEL 5
REMARK VINA RESULT: -7.834052852      4.682      8.874
REMARK  11 active torsions:
REMARK  status: ('A' for Active; 'I' for Inactive)
REMARK    1  A    between atoms: C2_2  and  N1_3 
REMARK       I    between atoms: C3_5  and  N2_6 
REMARK       I    between atoms: C3_5  and  N3_11 
REMARK    2  A    between atoms: N2_6  and  C4_7 
REMARK    3  A    between atoms: C4_7  and  O1_9 
REMARK    4  A    between atoms: N3_11  and  N4_13 
REMARK    5  A    between atoms: N4_13  and  C6_14 
REMARK    6  A    between atoms: N4_13  and  C10_28 
REMARK    7  A    between atoms: C6_14  and  C7_15 
REMARK    8  A    between atoms: C7_15  and  C8_16 
REMARK    9  A    between atoms: C8_16  and  N5_17 
REMARK       I    between atoms: N5_17  and  C9_19 
REMARK       I    between atoms: C9_19  and  N7_23 
REMARK   10  A    between atoms: N7_23  and  N8_25 
REMARK       I    between atoms: N10_32  and  C12_33 
REMARK   11  A    between atoms: C13_38  and  N13_39 
ROOT
HETATM    1  N4  UNL     1     129.501  40.512  16.232  1.00  0.00    -0.274 N 
ENDROOT
BRANCH   1   2
HETATM    2  N3  UNL     1     130.509  39.589  16.479  1.00  0.00    -0.256 N 
HETATM    3  C3  UNL     1     130.587  38.382  15.758  1.00  0.00     0.272 C 
HETATM    4  N1  UNL     1     130.490  37.284  16.509  1.00  0.00    -0.350 N 
HETATM    5  N2  UNL     1     130.766  38.228  14.409  1.00  0.00    -0.350 NA
ATOM      6  H1  UNL     1     130.549  36.366  16.068  1.00  0.00     0.163 HD
ATOM      7  H3  UNL     1     131.206  39.790  17.196  1.00  0.00     0.191 HD
BRANCH   4   8
HETATM    8  C2  UNL     1     130.304  37.374  17.914  1.00  0.00     0.119 C 
HETATM    9  C1  UNL     1     128.881  36.900  18.217  1.00  0.00     0.026 C 
ENDBRANCH   4   8
BRANCH   5  10
HETATM   10  C4  UNL     1     130.939  38.080  13.098  1.00  0.00     0.189 C 
HETATM   11  C5  UNL     1     131.075  39.365  12.245  1.00  0.00     0.114 C 
BRANCH  10  12
HETATM   12  O1  UNL     1     131.019  37.015  12.357  1.00  0.00    -0.339 OA
ATOM     13  H1  UNL     1     130.388  36.329  12.172  1.00  0.00     0.220 HD
ENDBRANCH  10  12
ENDBRANCH   5  10
ENDBRANCH   1   2
BRANCH   1  14
HETATM   14  C6  UNL     1     128.299  40.548  16.986  1.00  0.00     0.152 C 
BRANCH  14  15
HETATM   15  C7  UNL     1     128.543  41.119  18.363  1.00  0.00     0.042 C 
BRANCH  15  16
HETATM   16  C8  UNL     1     127.162  41.564  18.861  1.00  0.00     0.140 C 
BRANCH  16  17
HETATM   17  N5  UNL     1     126.175  40.708  18.276  1.00  0.00    -0.225 N 
HETATM   18  C9  UNL     1     125.154  40.203  19.158  1.00  0.00     0.691 C 
HETATM   19  N6  UNL     1     125.043  38.949  19.288  1.00  0.00    -0.233 N 
HETATM   20  N7  UNL     1     124.361  41.184  19.792  1.00  0.00    -0.072 N 
ATOM     21  H62 UNL     1     125.616  38.240  18.831  1.00  0.00     0.174 HD
ATOM     22  H61 UNL     1     124.320  38.592  19.912  1.00  0.00     0.174 HD
ATOM     23  H7  UNL     1     124.006  41.966  19.241  1.00  0.00     0.212 HD
ATOM     24  H5  UNL     1     126.193  40.468  17.285  1.00  0.00     0.177 HD
BRANCH  20  25
HETATM   25  N8  UNL     1     124.053  41.116  21.136  1.00  0.00    -0.024 N 
HETATM   26  O2  UNL     1     124.885  40.694  21.979  1.00  0.00    -0.516 OA
HETATM   27  O3  UNL     1     122.827  41.500  21.637  1.00  0.00    -0.516 OA
ENDBRANCH  20  25
ENDBRANCH  16  17
ENDBRANCH  15  16
ENDBRANCH  14  15
ENDBRANCH   1  14
BRANCH   1  28
HETATM   28  C10 UNL     1     129.791  41.458  15.181  1.00  0.00     0.146 C 
HETATM   29  N9  UNL     1     130.870  42.061  14.932  1.00  0.00    -0.359 N 
HETATM   30  C11 UNL     1     130.734  42.939  13.770  1.00  0.00     0.253 C 
ATOM     31  H9  UNL     1     131.727  41.951  15.472  1.00  0.00     0.162 HD
HETATM   32  N10 UNL     1     129.432  42.658  13.226  1.00  0.00    -0.305 N 
HETATM   33  C12 UNL     1     128.866  43.069  11.991  1.00  0.00     0.187 C 
HETATM   34  C13 UNL     1     128.741  41.828  14.198  1.00  0.00     0.357 C 
HETATM   35  N11 UNL     1     128.461  44.274  11.809  1.00  0.00    -0.374 N 
HETATM   36  N12 UNL     1     128.731  42.157  10.903  1.00  0.00    -0.064 NA
ATOM     37 2H11 UNL     1     128.557  44.927  12.588  1.00  0.00     0.158 HD
ATOM     38 1H11 UNL     1     128.055  44.570  10.921  1.00  0.00     0.158 HD
BRANCH  34  39
HETATM   39  N13 UNL     1     128.338  40.615  13.535  1.00  0.00    -0.051 N 
ATOM     40 3H13 UNL     1     128.087  40.757  12.557  1.00  0.00     0.277 HD
ATOM     41 2H13 UNL     1     129.111  39.968  13.378  1.00  0.00     0.277 HD
ATOM     42 1H13 UNL     1     127.582  40.210  14.088  1.00  0.00     0.277 HD
ENDBRANCH  34  39
ENDBRANCH   1  28
TORSDOF 11
ENDMDL
