MODEL 1
REMARK VINA RESULT: -8.252099636      0.000      0.000
REMARK  11 active torsions:
REMARK  status: ('A' for Active; 'I' for Inactive)
REMARK    1  A    between atoms: C2_2  and  S1_3 
REMARK    2  A    between atoms: S1_3  and  C3_6 
REMARK    3  A    between atoms: C6_9  and  N1_10 
REMARK    4  A    between atoms: N1_10  and  C7_12 
REMARK    5  A    between atoms: C9_17  and  C10_18 
REMARK       I    between atoms: C10_18  and  N4_20 
REMARK    6  A    between atoms: N4_20  and  N5_22 
REMARK    7  A    between atoms: N5_22  and  C11_24 
REMARK    8  A    between atoms: C11_24  and  C12_28 
REMARK    9  A    between atoms: C12_28  and  N7_29 
REMARK   10  A    between atoms: C12_28  and  N8_33 
REMARK   11  A    between atoms: C13_37  and  N9_38 
ROOT
HETATM    1  C7  UNL     1     126.583  42.358  18.706  1.00  0.00     0.685 A 
HETATM    2  N2  UNL     1     125.411  42.815  18.239  1.00  0.00    -0.177 N 
ATOM      3  H2  UNL     1     125.385  43.218  17.303  1.00  0.00     0.185 HD
HETATM    4  C8  UNL     1     124.285  42.765  18.941  1.00  0.00     0.151 A 
HETATM    5  N3  UNL     1     123.054  43.266  18.405  1.00  0.00    -0.081 NA
HETATM    6  C9  UNL     1     124.269  42.217  20.239  1.00  0.00     0.119 A 
HETATM    7  C13 UNL     1     125.460  41.749  20.719  1.00  0.00     0.134 A 
HETATM    8  N10 UNL     1     126.562  41.840  19.935  1.00  0.00    -0.176 N 
ATOM      9  H10 UNL     1     127.440  41.487  20.313  1.00  0.00     0.186 HD
ENDROOT
BRANCH   6  10
HETATM   10  C10 UNL     1     123.047  42.174  20.966  1.00  0.00     0.277 C 
HETATM   11  O3  UNL     1     122.768  41.063  21.568  1.00  0.00    -0.266 OA
HETATM   12  N4  UNL     1     122.105  43.179  21.119  1.00  0.00    -0.264 N 
ATOM     13  H4  UNL     1     122.254  44.086  20.675  1.00  0.00     0.190 HD
BRANCH  12  14
HETATM   14  N5  UNL     1     120.915  42.953  21.901  1.00  0.00    -0.283 N 
ATOM     15  H5  UNL     1     120.965  42.416  22.768  1.00  0.00     0.188 HD
BRANCH  14  16
HETATM   16  C11 UNL     1     119.687  43.475  21.463  1.00  0.00     0.148 C 
HETATM   17  N6  UNL     1     119.220  44.558  21.976  1.00  0.00    -0.385 N 
ATOM     18  H62 UNL     1     119.749  45.038  22.704  1.00  0.00     0.157 HD
ATOM     19  H61 UNL     1     118.328  44.936  21.657  1.00  0.00     0.157 HD
BRANCH  16  20
HETATM   20  C12 UNL     1     118.920  42.777  20.404  1.00  0.00     0.445 C 
BRANCH  20  21
HETATM   21  N7  UNL     1     119.860  42.309  19.399  1.00  0.00    -0.043 N 
ATOM     22  H73 UNL     1     119.414  42.112  18.504  1.00  0.00     0.277 HD
ATOM     23  H72 UNL     1     120.492  43.043  19.078  1.00  0.00     0.277 HD
ATOM     24  H71 UNL     1     120.355  41.502  19.778  1.00  0.00     0.277 HD
ENDBRANCH  20  21
BRANCH  20  25
HETATM   25  N8  UNL     1     118.189  41.645  20.938  1.00  0.00    -0.043 N 
ATOM     26  H83 UNL     1     118.821  40.932  21.303  1.00  0.00     0.277 HD
ATOM     27  H82 UNL     1     117.707  41.887  21.803  1.00  0.00     0.277 HD
ATOM     28  H81 UNL     1     117.546  41.257  20.247  1.00  0.00     0.277 HD
ENDBRANCH  20  25
ENDBRANCH  16  20
ENDBRANCH  14  16
ENDBRANCH  12  14
ENDBRANCH   6  10
BRANCH   7  29
HETATM   29  N9  UNL     1     125.575  41.224  21.899  1.00  0.00    -0.384 N 
ATOM     30  H92 UNL     1     125.117  41.682  22.687  1.00  0.00     0.157 HD
ATOM     31  H91 UNL     1     126.106  40.369  22.068  1.00  0.00     0.157 HD
ENDBRANCH   7  29
BRANCH   1  32
HETATM   32  N1  UNL     1     127.676  42.397  18.043  1.00  0.00    -0.192 N 
ATOM     33  H1  UNL     1     128.016  43.322  17.778  1.00  0.00     0.184 HD
BRANCH  32  34
HETATM   34  C6  UNL     1     128.458  41.301  17.639  1.00  0.00     0.049 A 
HETATM   35  C5  UNL     1     129.686  41.003  18.192  1.00  0.00     0.031 A 
HETATM   36  C4  UNL     1     130.412  39.912  17.764  1.00  0.00     0.026 A 
HETATM   37  C3  UNL     1     129.966  39.065  16.772  1.00  0.00     0.059 A 
HETATM   38  C15 UNL     1     128.736  39.369  16.221  1.00  0.00     0.026 A 
HETATM   39  C14 UNL     1     127.996  40.456  16.638  1.00  0.00     0.031 A 
BRANCH  37  40
HETATM   40  S1  UNL     1     130.913  37.691  16.257  1.00  0.00     0.175 S 
HETATM   41  O1  UNL     1     132.149  38.147  15.495  1.00  0.00    -0.223 OA
HETATM   42  O2  UNL     1     130.170  36.772  15.365  1.00  0.00    -0.223 OA
BRANCH  40  43
HETATM   43  C2  UNL     1     131.532  36.823  17.703  1.00  0.00     0.141 C 
HETATM   44  C1  UNL     1     133.015  37.089  17.840  1.00  0.00     0.021 C 
ENDBRANCH  40  43
ENDBRANCH  37  40
ENDBRANCH  32  34
ENDBRANCH   1  32
TORSDOF 11
ENDMDL
MODEL 2
REMARK VINA RESULT: -8.176056686      4.383     10.036
REMARK  11 active torsions:
REMARK  status: ('A' for Active; 'I' for Inactive)
REMARK    1  A    between atoms: C2_2  and  S1_3 
REMARK    2  A    between atoms: S1_3  and  C3_6 
REMARK    3  A    between atoms: C6_9  and  N1_10 
REMARK    4  A    between atoms: N1_10  and  C7_12 
REMARK    5  A    between atoms: C9_17  and  C10_18 
REMARK       I    between atoms: C10_18  and  N4_20 
REMARK    6  A    between atoms: N4_20  and  N5_22 
REMARK    7  A    between atoms: N5_22  and  C11_24 
REMARK    8  A    between atoms: C11_24  and  C12_28 
REMARK    9  A    between atoms: C12_28  and  N7_29 
REMARK   10  A    between atoms: C12_28  and  N8_33 
REMARK   11  A    between atoms: C13_37  and  N9_38 
ROOT
HETATM    1  C7  UNL     1     126.526  39.167  18.676  1.00  0.00     0.685 A 
HETATM    2  N2  UNL     1     126.771  39.953  17.617  1.00  0.00    -0.177 N 
ATOM      3  H2  UNL     1     126.199  40.788  17.489  1.00  0.00     0.185 HD
HETATM    4  C8  UNL     1     127.724  39.695  16.729  1.00  0.00     0.151 A 
HETATM    5  N3  UNL     1     127.951  40.561  15.611  1.00  0.00    -0.081 NA
HETATM    6  C9  UNL     1     128.541  38.555  16.862  1.00  0.00     0.119 A 
HETATM    7  C13 UNL     1     128.296  37.749  17.939  1.00  0.00     0.134 A 
HETATM    8  N10 UNL     1     127.302  38.089  18.796  1.00  0.00    -0.176 N 
ATOM      9  H10 UNL     1     127.136  37.474  19.592  1.00  0.00     0.186 HD
ENDROOT
BRANCH   6  10
HETATM   10  C10 UNL     1     129.556  38.304  15.897  1.00  0.00     0.277 C 
HETATM   11  O3  UNL     1     129.626  37.099  15.429  1.00  0.00    -0.266 OA
HETATM   12  N4  UNL     1     130.489  39.190  15.384  1.00  0.00    -0.264 N 
ATOM     13  H4  UNL     1     130.498  40.159  15.704  1.00  0.00     0.190 HD
BRANCH  12  14
HETATM   14  N5  UNL     1     131.450  38.752  14.403  1.00  0.00    -0.283 N 
ATOM     15  H5  UNL     1     132.417  38.575  14.675  1.00  0.00     0.188 HD
BRANCH  14  16
HETATM   16  C11 UNL     1     131.046  38.569  13.069  1.00  0.00     0.148 C 
HETATM   17  N6  UNL     1     131.098  37.405  12.528  1.00  0.00    -0.385 N 
ATOM     18  H62 UNL     1     131.434  36.611  13.072  1.00  0.00     0.157 HD
ATOM     19  H61 UNL     1     130.804  37.273  11.559  1.00  0.00     0.157 HD
BRANCH  16  20
HETATM   20  C12 UNL     1     130.557  39.723  12.278  1.00  0.00     0.445 C 
BRANCH  20  21
HETATM   21  N7  UNL     1     130.482  39.317  10.884  1.00  0.00    -0.043 N 
ATOM     22  H73 UNL     1     131.330  39.538  10.364  1.00  0.00     0.277 HD
ATOM     23  H72 UNL     1     130.509  38.304  10.767  1.00  0.00     0.277 HD
ATOM     24  H71 UNL     1     129.647  39.738  10.476  1.00  0.00     0.277 HD
ENDBRANCH  20  21
BRANCH  20  25
HETATM   25  N8  UNL     1     129.245  40.152  12.722  1.00  0.00    -0.043 N 
ATOM     26  H83 UNL     1     128.741  39.394  13.183  1.00  0.00     0.277 HD
ATOM     27  H82 UNL     1     129.310  40.799  13.507  1.00  0.00     0.277 HD
ATOM     28  H81 UNL     1     128.703  40.550  11.954  1.00  0.00     0.277 HD
ENDBRANCH  20  25
ENDBRANCH  16  20
ENDBRANCH  14  16
ENDBRANCH  12  14
ENDBRANCH   6  10
BRANCH   7  29
HETATM   29  N9  UNL     1     128.978  36.672  18.170  1.00  0.00    -0.384 N 
ATOM     30  H92 UNL     1     129.629  36.341  17.458  1.00  0.00     0.157 HD
ATOM     31  H91 UNL     1     128.889  36.143  19.038  1.00  0.00     0.157 HD
ENDBRANCH   7  29
BRANCH   1  32
HETATM   32  N1  UNL     1     125.614  39.403  19.540  1.00  0.00    -0.192 N 
ATOM     33  H1  UNL     1     125.245  38.597  20.046  1.00  0.00     0.184 HD
BRANCH  32  34
HETATM   34  C6  UNL     1     125.064  40.654  19.868  1.00  0.00     0.049 A 
HETATM   35  C5  UNL     1     123.909  41.148  19.298  1.00  0.00     0.031 A 
HETATM   36  C4  UNL     1     123.409  42.380  19.658  1.00  0.00     0.026 A 
HETATM   37  C3  UNL     1     124.020  43.186  20.596  1.00  0.00     0.059 A 
HETATM   38  C15 UNL     1     125.177  42.687  21.162  1.00  0.00     0.026 A 
HETATM   39  C14 UNL     1     125.691  41.456  20.814  1.00  0.00     0.031 A 
BRANCH  37  40
HETATM   40  S1  UNL     1     123.355  44.742  21.028  1.00  0.00     0.175 S 
HETATM   41  O1  UNL     1     123.594  45.755  19.918  1.00  0.00    -0.223 OA
HETATM   42  O2  UNL     1     123.947  45.307  22.262  1.00  0.00    -0.223 OA
BRANCH  40  43
HETATM   43  C2  UNL     1     121.570  44.602  21.178  1.00  0.00     0.141 C 
HETATM   44  C1  UNL     1     121.098  45.501  22.298  1.00  0.00     0.021 C 
ENDBRANCH  40  43
ENDBRANCH  37  40
ENDBRANCH  32  34
ENDBRANCH   1  32
TORSDOF 11
ENDMDL
MODEL 3
REMARK VINA RESULT: -8.147077631      1.174      2.007
REMARK  11 active torsions:
REMARK  status: ('A' for Active; 'I' for Inactive)
REMARK    1  A    between atoms: C2_2  and  S1_3 
REMARK    2  A    between atoms: S1_3  and  C3_6 
REMARK    3  A    between atoms: C6_9  and  N1_10 
REMARK    4  A    between atoms: N1_10  and  C7_12 
REMARK    5  A    between atoms: C9_17  and  C10_18 
REMARK       I    between atoms: C10_18  and  N4_20 
REMARK    6  A    between atoms: N4_20  and  N5_22 
REMARK    7  A    between atoms: N5_22  and  C11_24 
REMARK    8  A    between atoms: C11_24  and  C12_28 
REMARK    9  A    between atoms: C12_28  and  N7_29 
REMARK   10  A    between atoms: C12_28  and  N8_33 
REMARK   11  A    between atoms: C13_37  and  N9_38 
ROOT
HETATM    1  C7  UNL     1     126.094  42.098  18.005  1.00  0.00     0.685 A 
HETATM    2  N2  UNL     1     125.683  41.200  18.912  1.00  0.00    -0.177 N 
ATOM      3  H2  UNL     1     126.151  40.294  18.946  1.00  0.00     0.185 HD
HETATM    4  C8  UNL     1     124.694  41.436  19.767  1.00  0.00     0.151 A 
HETATM    5  N3  UNL     1     124.284  40.447  20.719  1.00  0.00    -0.081 NA
HETATM    6  C9  UNL     1     124.017  42.672  19.759  1.00  0.00     0.119 A 
HETATM    7  C13 UNL     1     124.432  43.591  18.837  1.00  0.00     0.134 A 
HETATM    8  N10 UNL     1     125.449  43.266  18.002  1.00  0.00    -0.176 N 
ATOM      9  H10 UNL     1     125.743  43.966  17.322  1.00  0.00     0.186 HD
ENDROOT
BRANCH   6  10
HETATM   10  C10 UNL     1     122.963  42.898  20.688  1.00  0.00     0.277 C 
HETATM   11  O3  UNL     1     123.098  43.909  21.485  1.00  0.00    -0.266 OA
HETATM   12  N4  UNL     1     121.795  42.171  20.853  1.00  0.00    -0.264 N 
ATOM     13  H4  UNL     1     121.615  41.359  20.262  1.00  0.00     0.190 HD
BRANCH  12  14
HETATM   14  N5  UNL     1     120.832  42.553  21.856  1.00  0.00    -0.283 N 
ATOM     15  H5  UNL     1     120.997  42.329  22.837  1.00  0.00     0.188 HD
BRANCH  14  16
HETATM   16  C11 UNL     1     119.666  43.237  21.473  1.00  0.00     0.148 C 
HETATM   17  N6  UNL     1     119.384  44.380  21.987  1.00  0.00    -0.385 N 
ATOM     18  H62 UNL     1     120.013  44.791  22.677  1.00  0.00     0.157 HD
ATOM     19  H61 UNL     1     118.536  44.876  21.709  1.00  0.00     0.157 HD
BRANCH  16  20
HETATM   20  C12 UNL     1     118.751  42.639  20.471  1.00  0.00     0.445 C 
BRANCH  20  21
HETATM   21  N7  UNL     1     119.546  42.216  19.329  1.00  0.00    -0.043 N 
ATOM     22  H73 UNL     1     118.978  42.021  18.505  1.00  0.00     0.277 HD
ATOM     23  H72 UNL     1     120.104  42.973  18.935  1.00  0.00     0.277 HD
ATOM     24  H71 UNL     1     120.112  41.417  19.616  1.00  0.00     0.277 HD
ENDBRANCH  20  21
BRANCH  20  25
HETATM   25  N8  UNL     1     118.047  41.494  21.013  1.00  0.00    -0.043 N 
ATOM     26  H83 UNL     1     117.582  41.724  21.891  1.00  0.00     0.277 HD
ATOM     27  H82 UNL     1     117.225  41.264  20.455  1.00  0.00     0.277 HD
ATOM     28  H81 UNL     1     118.665  40.690  21.115  1.00  0.00     0.277 HD
ENDBRANCH  20  25
ENDBRANCH  16  20
ENDBRANCH  14  16
ENDBRANCH  12  14
ENDBRANCH   6  10
BRANCH   7  29
HETATM   29  N9  UNL     1     123.888  44.763  18.730  1.00  0.00    -0.384 N 
ATOM     30  H92 UNL     1     123.980  45.419  19.506  1.00  0.00     0.157 HD
ATOM     31  H91 UNL     1     123.372  45.053  17.899  1.00  0.00     0.157 HD
ENDBRANCH   7  29
BRANCH   1  32
HETATM   32  N1  UNL     1     127.045  41.887  17.176  1.00  0.00    -0.192 N 
ATOM     33  H1  UNL     1     127.181  42.590  16.449  1.00  0.00     0.184 HD
BRANCH  32  34
HETATM   34  C6  UNL     1     127.924  40.790  17.161  1.00  0.00     0.049 A 
HETATM   35  C5  UNL     1     127.719  39.666  16.387  1.00  0.00     0.031 A 
HETATM   36  C4  UNL     1     128.614  38.618  16.405  1.00  0.00     0.026 A 
HETATM   37  C3  UNL     1     129.753  38.625  17.183  1.00  0.00     0.059 A 
HETATM   38  C15 UNL     1     129.952  39.753  17.956  1.00  0.00     0.026 A 
HETATM   39  C14 UNL     1     129.067  40.810  17.951  1.00  0.00     0.031 A 
BRANCH  37  40
HETATM   40  S1  UNL     1     130.865  37.280  17.177  1.00  0.00     0.175 S 
HETATM   41  O1  UNL     1     130.776  36.516  15.863  1.00  0.00    -0.223 OA
HETATM   42  O2  UNL     1     130.608  36.305  18.261  1.00  0.00    -0.223 OA
BRANCH  40  43
HETATM   43  C2  UNL     1     132.549  37.902  17.259  1.00  0.00     0.141 C 
HETATM   44  C1  UNL     1     133.044  37.794  18.684  1.00  0.00     0.021 C 
ENDBRANCH  40  43
ENDBRANCH  37  40
ENDBRANCH  32  34
ENDBRANCH   1  32
TORSDOF 11
ENDMDL
MODEL 4
REMARK VINA RESULT: -8.012333671      1.353      2.304
REMARK  11 active torsions:
REMARK  status: ('A' for Active; 'I' for Inactive)
REMARK    1  A    between atoms: C2_2  and  S1_3 
REMARK    2  A    between atoms: S1_3  and  C3_6 
REMARK    3  A    between atoms: C6_9  and  N1_10 
REMARK    4  A    between atoms: N1_10  and  C7_12 
REMARK    5  A    between atoms: C9_17  and  C10_18 
REMARK       I    between atoms: C10_18  and  N4_20 
REMARK    6  A    between atoms: N4_20  and  N5_22 
REMARK    7  A    between atoms: N5_22  and  C11_24 
REMARK    8  A    between atoms: C11_24  and  C12_28 
REMARK    9  A    between atoms: C12_28  and  N7_29 
REMARK   10  A    between atoms: C12_28  and  N8_33 
REMARK   11  A    between atoms: C13_37  and  N9_38 
ROOT
HETATM    1  C7  UNL     1     127.033  42.567  19.441  1.00  0.00     0.685 A 
HETATM    2  N2  UNL     1     126.572  41.735  20.387  1.00  0.00    -0.177 N 
ATOM      3  H2  UNL     1     127.169  40.965  20.690  1.00  0.00     0.185 HD
HETATM    4  C8  UNL     1     125.375  41.869  20.947  1.00  0.00     0.151 A 
HETATM    5  N3  UNL     1     124.921  40.956  21.953  1.00  0.00    -0.081 NA
HETATM    6  C9  UNL     1     124.515  42.916  20.563  1.00  0.00     0.119 A 
HETATM    7  C13 UNL     1     124.979  43.767  19.600  1.00  0.00     0.134 A 
HETATM    8  N10 UNL     1     126.214  43.556  19.082  1.00  0.00    -0.176 N 
ATOM      9  H10 UNL     1     126.540  44.202  18.364  1.00  0.00     0.186 HD
ENDROOT
BRANCH   6  10
HETATM   10  C10 UNL     1     123.239  43.036  21.181  1.00  0.00     0.277 C 
HETATM   11  O3  UNL     1     122.981  44.162  21.766  1.00  0.00    -0.266 OA
HETATM   12  N4  UNL     1     122.222  42.096  21.238  1.00  0.00    -0.264 N 
ATOM     13  H4  UNL     1     122.350  41.184  20.800  1.00  0.00     0.190 HD
BRANCH  12  14
HETATM   14  N5  UNL     1     120.986  42.398  21.915  1.00  0.00    -0.283 N 
ATOM     15  H5  UNL     1     120.794  42.001  22.835  1.00  0.00     0.188 HD
BRANCH  14  16
HETATM   16  C11 UNL     1     120.046  43.243  21.300  1.00  0.00     0.148 C 
HETATM   17  N6  UNL     1     120.030  44.501  21.566  1.00  0.00    -0.385 N 
ATOM     18  H62 UNL     1     120.705  44.884  22.228  1.00  0.00     0.157 HD
ATOM     19  H61 UNL     1     119.348  45.114  21.119  1.00  0.00     0.157 HD
BRANCH  16  20
HETATM   20  C12 UNL     1     119.066  42.686  20.338  1.00  0.00     0.445 C 
BRANCH  20  21
HETATM   21  N7  UNL     1     119.803  42.031  19.270  1.00  0.00    -0.043 N 
ATOM     22  H73 UNL     1     120.390  42.677  18.743  1.00  0.00     0.277 HD
ATOM     23  H72 UNL     1     120.544  41.423  19.617  1.00  0.00     0.277 HD
ATOM     24  H71 UNL     1     119.133  41.537  18.679  1.00  0.00     0.277 HD
ENDBRANCH  20  21
BRANCH  20  25
HETATM   25  N8  UNL     1     118.189  41.723  20.973  1.00  0.00    -0.043 N 
ATOM     26  H83 UNL     1     117.509  42.180  21.580  1.00  0.00     0.277 HD
ATOM     27  H82 UNL     1     117.546  41.305  20.301  1.00  0.00     0.277 HD
ATOM     28  H81 UNL     1     118.719  41.010  21.476  1.00  0.00     0.277 HD
ENDBRANCH  20  25
ENDBRANCH  16  20
ENDBRANCH  14  16
ENDBRANCH  12  14
ENDBRANCH   6  10
BRANCH   7  29
HETATM   29  N9  UNL     1     124.281  44.768  19.161  1.00  0.00    -0.384 N 
ATOM     30  H92 UNL     1     124.262  45.629  19.707  1.00  0.00     0.157 HD
ATOM     31  H91 UNL     1     123.752  44.726  18.289  1.00  0.00     0.157 HD
ENDBRANCH   7  29
BRANCH   1  32
HETATM   32  N1  UNL     1     128.183  42.453  18.894  1.00  0.00    -0.192 N 
ATOM     33  H1  UNL     1     128.821  43.242  19.003  1.00  0.00     0.184 HD
BRANCH  32  34
HETATM   34  C6  UNL     1     128.664  41.356  18.158  1.00  0.00     0.049 A 
HETATM   35  C5  UNL     1     127.910  40.688  17.215  1.00  0.00     0.031 A 
HETATM   36  C4  UNL     1     128.430  39.620  16.516  1.00  0.00     0.026 A 
HETATM   37  C3  UNL     1     129.715  39.158  16.711  1.00  0.00     0.059 A 
HETATM   38  C15 UNL     1     130.464  39.830  17.657  1.00  0.00     0.026 A 
HETATM   39  C14 UNL     1     129.960  40.900  18.365  1.00  0.00     0.031 A 
BRANCH  37  40
HETATM   40  S1  UNL     1     130.339  37.803  15.804  1.00  0.00     0.175 S 
HETATM   41  O1  UNL     1     129.289  36.707  15.685  1.00  0.00    -0.223 OA
HETATM   42  O2  UNL     1     131.536  37.188  16.424  1.00  0.00    -0.223 OA
BRANCH  40  43
HETATM   43  C2  UNL     1     130.684  38.324  14.120  1.00  0.00     0.141 C 
HETATM   44  C1  UNL     1     131.776  39.371  14.143  1.00  0.00     0.021 C 
ENDBRANCH  40  43
ENDBRANCH  37  40
ENDBRANCH  32  34
ENDBRANCH   1  32
TORSDOF 11
ENDMDL
MODEL 5
REMARK VINA RESULT: -7.989942334      1.807      2.990
REMARK  11 active torsions:
REMARK  status: ('A' for Active; 'I' for Inactive)
REMARK    1  A    between atoms: C2_2  and  S1_3 
REMARK    2  A    between atoms: S1_3  and  C3_6 
REMARK    3  A    between atoms: C6_9  and  N1_10 
REMARK    4  A    between atoms: N1_10  and  C7_12 
REMARK    5  A    between atoms: C9_17  and  C10_18 
REMARK       I    between atoms: C10_18  and  N4_20 
REMARK    6  A    between atoms: N4_20  and  N5_22 
REMARK    7  A    between atoms: N5_22  and  C11_24 
REMARK    8  A    between atoms: C11_24  and  C12_28 
REMARK    9  A    between atoms: C12_28  and  N7_29 
REMARK   10  A    between atoms: C12_28  and  N8_33 
REMARK   11  A    between atoms: C13_37  and  N9_38 
ROOT
HETATM    1  C7  UNL     1     126.757  41.296  19.008  1.00  0.00     0.685 A 
HETATM    2  N2  UNL     1     125.832  40.850  19.871  1.00  0.00    -0.177 N 
ATOM      3  H2  UNL     1     126.094  40.114  20.527  1.00  0.00     0.185 HD
HETATM    4  C8  UNL     1     124.592  41.323  19.910  1.00  0.00     0.151 A 
HETATM    5  N3  UNL     1     123.634  40.816  20.847  1.00  0.00    -0.081 NA
HETATM    6  C9  UNL     1     124.182  42.340  19.026  1.00  0.00     0.119 A 
HETATM    7  C13 UNL     1     125.120  42.799  18.145  1.00  0.00     0.134 A 
HETATM    8  N10 UNL     1     126.363  42.259  18.173  1.00  0.00    -0.176 N 
ATOM      9  H10 UNL     1     127.047  42.615  17.507  1.00  0.00     0.186 HD
ENDROOT
BRANCH   6  10
HETATM   10  C10 UNL     1     122.847  42.829  19.092  1.00  0.00     0.277 C 
HETATM   11  O3  UNL     1     122.704  44.104  19.267  1.00  0.00    -0.266 OA
HETATM   12  N4  UNL     1     121.666  42.112  18.990  1.00  0.00    -0.264 N 
ATOM     13  H4  UNL     1     121.696  41.102  18.851  1.00  0.00     0.190 HD
BRANCH  12  14
HETATM   14  N5  UNL     1     120.393  42.784  19.082  1.00  0.00    -0.283 N 
ATOM     15  H5  UNL     1     120.062  43.363  18.310  1.00  0.00     0.188 HD
BRANCH  14  16
HETATM   16  C11 UNL     1     119.612  42.636  20.240  1.00  0.00     0.148 C 
HETATM   17  N6  UNL     1     118.492  42.008  20.194  1.00  0.00    -0.385 N 
ATOM     18  H62 UNL     1     118.171  41.615  19.308  1.00  0.00     0.157 HD
ATOM     19  H61 UNL     1     117.924  41.902  21.035  1.00  0.00     0.157 HD
BRANCH  16  20
HETATM   20  C12 UNL     1     120.078  43.207  21.526  1.00  0.00     0.445 C 
BRANCH  20  21
HETATM   21  N7  UNL     1     121.164  42.378  22.022  1.00  0.00    -0.043 N 
ATOM     22  H73 UNL     1     121.688  42.824  22.774  1.00  0.00     0.277 HD
ATOM     23  H72 UNL     1     120.834  41.568  22.546  1.00  0.00     0.277 HD
ATOM     24  H71 UNL     1     121.754  42.122  21.230  1.00  0.00     0.277 HD
ENDBRANCH  20  21
BRANCH  20  25
HETATM   25  N8  UNL     1     120.552  44.567  21.362  1.00  0.00    -0.043 N 
ATOM     26  H83 UNL     1     120.490  44.869  20.389  1.00  0.00     0.277 HD
ATOM     27  H82 UNL     1     119.907  45.239  21.777  1.00  0.00     0.277 HD
ATOM     28  H81 UNL     1     121.497  44.680  21.729  1.00  0.00     0.277 HD
ENDBRANCH  20  25
ENDBRANCH  16  20
ENDBRANCH  14  16
ENDBRANCH  12  14
ENDBRANCH   6  10
BRANCH   7  29
HETATM   29  N9  UNL     1     124.864  43.731  17.280  1.00  0.00    -0.384 N 
ATOM     30  H92 UNL     1     124.089  44.369  17.461  1.00  0.00     0.157 HD
ATOM     31  H91 UNL     1     125.411  43.851  16.427  1.00  0.00     0.157 HD
ENDBRANCH   7  29
BRANCH   1  32
HETATM   32  N1  UNL     1     127.956  40.853  18.959  1.00  0.00    -0.192 N 
ATOM     33  H1  UNL     1     128.450  40.776  19.848  1.00  0.00     0.184 HD
BRANCH  32  34
HETATM   34  C6  UNL     1     128.664  40.459  17.810  1.00  0.00     0.049 A 
HETATM   35  C5  UNL     1     129.979  40.804  17.576  1.00  0.00     0.031 A 
HETATM   36  C4  UNL     1     130.631  40.389  16.435  1.00  0.00     0.026 A 
HETATM   37  C3  UNL     1     130.021  39.614  15.470  1.00  0.00     0.059 A 
HETATM   38  C15 UNL     1     128.704  39.273  15.710  1.00  0.00     0.026 A 
HETATM   39  C14 UNL     1     128.037  39.680  16.846  1.00  0.00     0.031 A 
BRANCH  37  40
HETATM   40  S1  UNL     1     130.880  39.104  14.038  1.00  0.00     0.175 S 
HETATM   41  O1  UNL     1     130.732  37.604  13.830  1.00  0.00    -0.223 OA
HETATM   42  O2  UNL     1     132.332  39.391  14.096  1.00  0.00    -0.223 OA
BRANCH  40  43
HETATM   43  C2  UNL     1     130.131  39.867  12.594  1.00  0.00     0.141 C 
HETATM   44  C1  UNL     1     129.985  41.352  12.842  1.00  0.00     0.021 C 
ENDBRANCH  40  43
ENDBRANCH  37  40
ENDBRANCH  32  34
ENDBRANCH   1  32
TORSDOF 11
ENDMDL
