MODEL 1
REMARK VINA RESULT: -8.264441324      0.000      0.000
REMARK  8 active torsions:
REMARK  status: ('A' for Active; 'I' for Inactive)
REMARK    1  A    between atoms: N1_1  and  C1_5 
REMARK    2  A    between atoms: C1_5  and  C2_6 
REMARK    3  A    between atoms: C3_11  and  C4_12 
REMARK    4  A    between atoms: C4_12  and  C5_13 
REMARK    5  A    between atoms: C5_13  and  C6_14 
REMARK    6  A    between atoms: N6_21  and  C9_22 
REMARK    7  A    between atoms: C9_22  and  C10_23 
REMARK    8  A    between atoms: C10_23  and  C11_24 
ROOT
HETATM    1  C2  UNL     1     107.591  24.492  19.539  1.00  0.00     0.125 A 
HETATM    2  N2  UNL     1     108.875  24.596  19.883  1.00  0.00    -0.286 N 
ATOM      3  H2  UNL     1     109.583  25.122  19.372  1.00  0.00     0.188 HD
HETATM    4  N3  UNL     1     109.081  23.912  20.984  1.00  0.00    -0.287 N 
ATOM      5  H3  UNL     1     109.976  23.823  21.466  1.00  0.00     0.188 HD
HETATM    6  C3  UNL     1     107.902  23.338  21.384  1.00  0.00     0.099 A 
HETATM    7  N6  UNL     1     106.998  23.709  20.479  1.00  0.00    -0.323 N 
ENDROOT
BRANCH   6   8
HETATM    8  C4  UNL     1     107.785  22.464  22.580  1.00  0.00     0.084 C 
BRANCH   8   9
HETATM    9  C5  UNL     1     109.073  22.478  23.382  1.00  0.00     0.066 C 
BRANCH   9  10
HETATM   10  C6  UNL     1     109.251  21.076  23.887  1.00  0.00     0.025 A 
HETATM   11  C7  UNL     1     108.654  20.457  24.965  1.00  0.00     0.114 A 
HETATM   12  N4  UNL     1     109.093  19.188  25.070  1.00  0.00    -0.360 N 
HETATM   13  C8  UNL     1     109.958  19.003  24.075  1.00  0.00     0.180 A 
ATOM     14  H4  UNL     1     108.818  18.504  25.774  1.00  0.00     0.166 HD
HETATM   15  N5  UNL     1     110.057  20.140  23.357  1.00  0.00    -0.355 N 
ATOM     16  H5  UNL     1     110.652  20.269  22.538  1.00  0.00     0.166 HD
ENDBRANCH   9  10
ENDBRANCH   8   9
ENDBRANCH   6   8
BRANCH   7  17
HETATM   17  C9  UNL     1     105.617  23.362  20.376  1.00  0.00     0.132 C 
BRANCH  17  18
HETATM   18  C10 UNL     1     105.298  22.016  19.847  1.00  0.00     0.025 C 
BRANCH  18  19
HETATM   19  C11 UNL     1     103.893  21.576  19.782  1.00  0.00    -0.009 C 
HETATM   20  C12 UNL     1     103.492  21.252  21.247  1.00  0.00     0.031 C 
HETATM   21  C13 UNL     1     102.035  20.868  21.296  1.00  0.00     0.168 C 
HETATM   22  O1  UNL     1     101.281  21.937  20.868  1.00  0.00    -0.391 OA
HETATM   23  C14 UNL     1     101.550  22.132  19.495  1.00  0.00     0.168 C 
HETATM   24  C15 UNL     1     102.941  22.717  19.410  1.00  0.00     0.031 C 
ENDBRANCH  18  19
ENDBRANCH  17  18
ENDBRANCH   7  17
BRANCH   1  25
HETATM   25  C1  UNL     1     107.037  25.143  18.336  1.00  0.00     0.307 C 
BRANCH  25  26
HETATM   26  N1  UNL     1     107.751  26.361  18.047  1.00  0.00    -0.073 N 
ATOM     27  H13 UNL     1     107.252  26.942  17.373  1.00  0.00     0.274 HD
ATOM     28  H12 UNL     1     107.740  27.003  18.839  1.00  0.00     0.274 HD
ATOM     29  H11 UNL     1     108.701  26.154  17.740  1.00  0.00     0.274 HD
ENDBRANCH  25  26
ENDBRANCH   1  25
TORSDOF 8
ENDMDL
MODEL 2
REMARK VINA RESULT: -7.473035712      1.826      6.266
REMARK  8 active torsions:
REMARK  status: ('A' for Active; 'I' for Inactive)
REMARK    1  A    between atoms: N1_1  and  C1_5 
REMARK    2  A    between atoms: C1_5  and  C2_6 
REMARK    3  A    between atoms: C3_11  and  C4_12 
REMARK    4  A    between atoms: C4_12  and  C5_13 
REMARK    5  A    between atoms: C5_13  and  C6_14 
REMARK    6  A    between atoms: N6_21  and  C9_22 
REMARK    7  A    between atoms: C9_22  and  C10_23 
REMARK    8  A    between atoms: C10_23  and  C11_24 
ROOT
HETATM    1  C2  UNL     1     108.037  23.443  21.183  1.00  0.00     0.125 A 
HETATM    2  N2  UNL     1     109.091  24.107  20.709  1.00  0.00    -0.286 N 
ATOM      3  H2  UNL     1     110.020  24.119  21.129  1.00  0.00     0.188 HD
HETATM    4  N3  UNL     1     108.741  24.743  19.616  1.00  0.00    -0.287 N 
ATOM      5  H3  UNL     1     109.355  25.328  19.050  1.00  0.00     0.188 HD
HETATM    6  C3  UNL     1     107.417  24.495  19.356  1.00  0.00     0.099 A 
HETATM    7  N6  UNL     1     107.005  23.692  20.335  1.00  0.00    -0.323 N 
ENDROOT
BRANCH   6   8
HETATM    8  C4  UNL     1     106.686  25.091  18.207  1.00  0.00     0.084 C 
BRANCH   8   9
HETATM    9  C5  UNL     1     107.311  26.413  17.802  1.00  0.00     0.066 C 
BRANCH   9  10
HETATM   10  C6  UNL     1     106.630  26.808  16.525  1.00  0.00     0.025 A 
HETATM   11  C7  UNL     1     106.622  28.030  15.885  1.00  0.00     0.114 A 
HETATM   12  N4  UNL     1     105.885  27.956  14.760  1.00  0.00    -0.360 N 
HETATM   13  C8  UNL     1     105.430  26.708  14.685  1.00  0.00     0.180 A 
ATOM     14  H4  UNL     1     105.710  28.710  14.095  1.00  0.00     0.166 HD
HETATM   15  N5  UNL     1     105.877  26.010  15.749  1.00  0.00    -0.355 N 
ATOM     16  H5  UNL     1     105.675  25.027  15.936  1.00  0.00     0.166 HD
ENDBRANCH   9  10
ENDBRANCH   8   9
ENDBRANCH   6   8
BRANCH   7  17
HETATM   17  C9  UNL     1     105.704  23.158  20.588  1.00  0.00     0.132 C 
BRANCH  17  18
HETATM   18  C10 UNL     1     105.291  21.983  19.787  1.00  0.00     0.025 C 
BRANCH  18  19
HETATM   19  C11 UNL     1     103.878  21.565  19.788  1.00  0.00    -0.009 C 
HETATM   20  C12 UNL     1     103.528  21.288  21.275  1.00  0.00     0.031 C 
HETATM   21  C13 UNL     1     102.068  20.931  21.390  1.00  0.00     0.168 C 
HETATM   22  O1  UNL     1     101.316  22.000  20.961  1.00  0.00    -0.391 OA
HETATM   23  C14 UNL     1     101.535  22.153  19.574  1.00  0.00     0.168 C 
HETATM   24  C15 UNL     1     102.931  22.711  19.419  1.00  0.00     0.031 C 
ENDBRANCH  18  19
ENDBRANCH  17  18
ENDBRANCH   7  17
BRANCH   1  25
HETATM   25  C1  UNL     1     108.099  22.630  22.414  1.00  0.00     0.307 C 
BRANCH  25  26
HETATM   26  N1  UNL     1     109.277  22.960  23.177  1.00  0.00    -0.073 N 
ATOM     27  H13 UNL     1     110.056  22.340  22.959  1.00  0.00     0.274 HD
ATOM     28  H12 UNL     1     109.692  23.840  22.872  1.00  0.00     0.274 HD
ATOM     29  H11 UNL     1     109.065  22.967  24.175  1.00  0.00     0.274 HD
ENDBRANCH  25  26
ENDBRANCH   1  25
TORSDOF 8
ENDMDL
MODEL 3
REMARK VINA RESULT: -7.451413475      1.954      6.118
REMARK  8 active torsions:
REMARK  status: ('A' for Active; 'I' for Inactive)
REMARK    1  A    between atoms: N1_1  and  C1_5 
REMARK    2  A    between atoms: C1_5  and  C2_6 
REMARK    3  A    between atoms: C3_11  and  C4_12 
REMARK    4  A    between atoms: C4_12  and  C5_13 
REMARK    5  A    between atoms: C5_13  and  C6_14 
REMARK    6  A    between atoms: N6_21  and  C9_22 
REMARK    7  A    between atoms: C9_22  and  C10_23 
REMARK    8  A    between atoms: C10_23  and  C11_24 
ROOT
HETATM    1  C2  UNL     1     107.954  23.622  20.858  1.00  0.00     0.125 A 
HETATM    2  N2  UNL     1     109.008  24.289  20.386  1.00  0.00    -0.286 N 
ATOM      3  H2  UNL     1     109.952  24.248  20.767  1.00  0.00     0.188 HD
HETATM    4  N3  UNL     1     108.633  25.006  19.353  1.00  0.00    -0.287 N 
ATOM      5  H3  UNL     1     109.241  25.612  18.802  1.00  0.00     0.188 HD
HETATM    6  C3  UNL     1     107.294  24.811  19.131  1.00  0.00     0.099 A 
HETATM    7  N6  UNL     1     106.897  23.954  20.070  1.00  0.00    -0.323 N 
ENDROOT
BRANCH   6   8
HETATM    8  C4  UNL     1     106.536  25.502  18.056  1.00  0.00     0.084 C 
BRANCH   8   9
HETATM    9  C5  UNL     1     107.476  26.279  17.152  1.00  0.00     0.066 C 
BRANCH   9  10
HETATM   10  C6  UNL     1     107.183  27.727  17.414  1.00  0.00     0.025 A 
HETATM   11  C7  UNL     1     106.330  28.578  16.743  1.00  0.00     0.114 A 
HETATM   12  N4  UNL     1     106.364  29.802  17.304  1.00  0.00    -0.360 N 
HETATM   13  C8  UNL     1     107.226  29.732  18.314  1.00  0.00     0.180 A 
ATOM     14  H4  UNL     1     105.832  30.622  17.011  1.00  0.00     0.166 HD
HETATM   15  N5  UNL     1     107.725  28.481  18.386  1.00  0.00    -0.355 N 
ATOM     16  H5  UNL     1     108.407  28.158  19.072  1.00  0.00     0.166 HD
ENDBRANCH   9  10
ENDBRANCH   8   9
ENDBRANCH   6   8
BRANCH   7  17
HETATM   17  C9  UNL     1     105.593  23.438  20.340  1.00  0.00     0.132 C 
BRANCH  17  18
HETATM   18  C10 UNL     1     105.291  22.077  19.843  1.00  0.00     0.025 C 
BRANCH  18  19
HETATM   19  C11 UNL     1     103.889  21.629  19.761  1.00  0.00    -0.009 C 
HETATM   20  C12 UNL     1     103.477  21.287  21.218  1.00  0.00     0.031 C 
HETATM   21  C13 UNL     1     102.022  20.893  21.250  1.00  0.00     0.168 C 
HETATM   22  O1  UNL     1     101.265  21.962  20.826  1.00  0.00    -0.391 OA
HETATM   23  C14 UNL     1     101.546  22.173  19.458  1.00  0.00     0.168 C 
HETATM   24  C15 UNL     1     102.934  22.768  19.391  1.00  0.00     0.031 C 
ENDBRANCH  18  19
ENDBRANCH  17  18
ENDBRANCH   7  17
BRANCH   1  25
HETATM   25  C1  UNL     1     108.041  22.726  22.028  1.00  0.00     0.307 C 
BRANCH  25  26
HETATM   26  N1  UNL     1     109.110  23.141  22.902  1.00  0.00    -0.073 N 
ATOM     27  H13 UNL     1     109.545  22.348  23.372  1.00  0.00     0.274 HD
ATOM     28  H12 UNL     1     109.920  23.472  22.380  1.00  0.00     0.274 HD
ATOM     29  H11 UNL     1     108.776  23.840  23.567  1.00  0.00     0.274 HD
ENDBRANCH  25  26
ENDBRANCH   1  25
TORSDOF 8
ENDMDL
MODEL 4
REMARK VINA RESULT: -7.434048425      1.709      5.756
REMARK  8 active torsions:
REMARK  status: ('A' for Active; 'I' for Inactive)
REMARK    1  A    between atoms: N1_1  and  C1_5 
REMARK    2  A    between atoms: C1_5  and  C2_6 
REMARK    3  A    between atoms: C3_11  and  C4_12 
REMARK    4  A    between atoms: C4_12  and  C5_13 
REMARK    5  A    between atoms: C5_13  and  C6_14 
REMARK    6  A    between atoms: N6_21  and  C9_22 
REMARK    7  A    between atoms: C9_22  and  C10_23 
REMARK    8  A    between atoms: C10_23  and  C11_24 
ROOT
HETATM    1  C2  UNL     1     108.218  23.110  21.922  1.00  0.00     0.125 A 
HETATM    2  N2  UNL     1     109.264  23.904  21.692  1.00  0.00    -0.286 N 
ATOM      3  H2  UNL     1     110.021  24.089  22.349  1.00  0.00     0.188 HD
HETATM    4  N3  UNL     1     109.163  24.408  20.485  1.00  0.00    -0.287 N 
ATOM      5  H3  UNL     1     109.830  25.048  20.053  1.00  0.00     0.188 HD
HETATM    6  C3  UNL     1     108.018  23.937  19.895  1.00  0.00     0.099 A 
HETATM    7  N6  UNL     1     107.453  23.139  20.799  1.00  0.00    -0.323 N 
ENDROOT
BRANCH   6   8
HETATM    8  C4  UNL     1     107.578  24.337  18.533  1.00  0.00     0.084 C 
BRANCH   8   9
HETATM    9  C5  UNL     1     106.710  25.581  18.594  1.00  0.00     0.066 C 
BRANCH   9  10
HETATM   10  C6  UNL     1     107.529  26.676  17.977  1.00  0.00     0.025 A 
HETATM   11  C7  UNL     1     107.194  27.545  16.959  1.00  0.00     0.114 A 
HETATM   12  N4  UNL     1     108.222  28.378  16.708  1.00  0.00    -0.360 N 
HETATM   13  C8  UNL     1     109.196  28.045  17.551  1.00  0.00     0.180 A 
ATOM     14  H4  UNL     1     108.249  29.120  16.008  1.00  0.00     0.166 HD
HETATM   15  N5  UNL     1     108.783  27.017  18.321  1.00  0.00    -0.355 N 
ATOM     16  H5  UNL     1     109.337  26.568  19.050  1.00  0.00     0.166 HD
ENDBRANCH   9  10
ENDBRANCH   8   9
ENDBRANCH   6   8
BRANCH   7  17
HETATM   17  C9  UNL     1     106.219  22.421  20.735  1.00  0.00     0.132 C 
BRANCH  17  18
HETATM   18  C10 UNL     1     104.996  23.206  20.452  1.00  0.00     0.025 C 
BRANCH  18  19
HETATM   19  C11 UNL     1     103.677  22.559  20.565  1.00  0.00    -0.009 C 
HETATM   20  C12 UNL     1     102.939  22.892  19.240  1.00  0.00     0.031 C 
HETATM   21  C13 UNL     1     101.599  22.200  19.224  1.00  0.00     0.168 C 
HETATM   22  O1  UNL     1     101.802  20.840  19.276  1.00  0.00    -0.391 OA
HETATM   23  C14 UNL     1     102.345  20.534  20.543  1.00  0.00     0.168 C 
HETATM   24  C15 UNL     1     103.772  21.031  20.531  1.00  0.00     0.031 C 
ENDBRANCH  18  19
ENDBRANCH  17  18
ENDBRANCH   7  17
BRANCH   1  25
HETATM   25  C1  UNL     1     108.031  22.394  23.199  1.00  0.00     0.307 C 
BRANCH  25  26
HETATM   26  N1  UNL     1     109.038  22.789  24.151  1.00  0.00    -0.073 N 
ATOM     27  H13 UNL     1     109.977  22.553  23.830  1.00  0.00     0.274 HD
ATOM     28  H12 UNL     1     109.143  23.802  24.194  1.00  0.00     0.274 HD
ATOM     29  H11 UNL     1     108.840  22.389  25.068  1.00  0.00     0.274 HD
ENDBRANCH  25  26
ENDBRANCH   1  25
TORSDOF 8
ENDMDL
MODEL 5
REMARK VINA RESULT: -6.937913480      1.640      2.388
REMARK  8 active torsions:
REMARK  status: ('A' for Active; 'I' for Inactive)
REMARK    1  A    between atoms: N1_1  and  C1_5 
REMARK    2  A    between atoms: C1_5  and  C2_6 
REMARK    3  A    between atoms: C3_11  and  C4_12 
REMARK    4  A    between atoms: C4_12  and  C5_13 
REMARK    5  A    between atoms: C5_13  and  C6_14 
REMARK    6  A    between atoms: N6_21  and  C9_22 
REMARK    7  A    between atoms: C9_22  and  C10_23 
REMARK    8  A    between atoms: C10_23  and  C11_24 
ROOT
HETATM    1  C2  UNL     1     107.030  25.493  17.967  1.00  0.00     0.125 A 
HETATM    2  N2  UNL     1     108.076  26.287  18.196  1.00  0.00    -0.286 N 
ATOM      3  H2  UNL     1     108.307  27.128  17.667  1.00  0.00     0.188 HD
HETATM    4  N3  UNL     1     108.760  25.814  19.211  1.00  0.00    -0.287 N 
ATOM      5  H3  UNL     1     109.608  26.228  19.597  1.00  0.00     0.188 HD
HETATM    6  C3  UNL     1     108.152  24.673  19.670  1.00  0.00     0.099 A 
HETATM    7  N6  UNL     1     107.089  24.496  18.889  1.00  0.00    -0.323 N 
ENDROOT
BRANCH   6   8
HETATM    8  C4  UNL     1     108.687  23.860  20.793  1.00  0.00     0.084 C 
BRANCH   8   9
HETATM    9  C5  UNL     1     107.568  23.115  21.496  1.00  0.00     0.066 C 
BRANCH   9  10
HETATM   10  C6  UNL     1     108.131  22.693  22.821  1.00  0.00     0.025 A 
HETATM   11  C7  UNL     1     109.309  23.077  23.428  1.00  0.00     0.114 A 
HETATM   12  N4  UNL     1     109.436  22.460  24.618  1.00  0.00    -0.360 N 
HETATM   13  C8  UNL     1     108.358  21.693  24.766  1.00  0.00     0.180 A 
ATOM     14  H4  UNL     1     110.208  22.560  25.278  1.00  0.00     0.166 HD
HETATM   15  N5  UNL     1     107.566  21.830  23.683  1.00  0.00    -0.355 N 
ATOM     16  H5  UNL     1     106.676  21.352  23.541  1.00  0.00     0.166 HD
ENDBRANCH   9  10
ENDBRANCH   8   9
ENDBRANCH   6   8
BRANCH   7  17
HETATM   17  C9  UNL     1     106.126  23.440  18.888  1.00  0.00     0.132 C 
BRANCH  17  18
HETATM   18  C10 UNL     1     104.762  23.773  19.356  1.00  0.00     0.025 C 
BRANCH  18  19
HETATM   19  C11 UNL     1     103.943  22.732  20.003  1.00  0.00    -0.009 C 
HETATM   20  C12 UNL     1     102.561  22.794  19.296  1.00  0.00     0.031 C 
HETATM   21  C13 UNL     1     101.671  21.702  19.836  1.00  0.00     0.168 C 
HETATM   22  O1  UNL     1     102.246  20.484  19.556  1.00  0.00    -0.391 OA
HETATM   23  C14 UNL     1     103.433  20.382  20.316  1.00  0.00     0.168 C 
HETATM   24  C15 UNL     1     104.433  21.318  19.677  1.00  0.00     0.031 C 
ENDBRANCH  18  19
ENDBRANCH  17  18
ENDBRANCH   7  17
BRANCH   1  25
HETATM   25  C1  UNL     1     106.063  25.747  16.881  1.00  0.00     0.307 C 
BRANCH  25  26
HETATM   26  N1  UNL     1     106.636  26.621  15.890  1.00  0.00    -0.073 N 
ATOM     27  H13 UNL     1     107.199  26.108  15.211  1.00  0.00     0.274 HD
ATOM     28  H12 UNL     1     105.929  26.990  15.254  1.00  0.00     0.274 HD
ATOM     29  H11 UNL     1     107.170  27.367  16.336  1.00  0.00     0.274 HD
ENDBRANCH  25  26
ENDBRANCH   1  25
TORSDOF 8
ENDMDL
