MODEL 1
REMARK VINA RESULT: -6.652012858      0.000      0.000
REMARK  7 active torsions:
REMARK  status: ('A' for Active; 'I' for Inactive)
REMARK    1  A    between atoms: C1_2  and  C2_4 
REMARK    2  A    between atoms: N2_6  and  C4_7 
REMARK    3  A    between atoms: N3_11  and  C8_12 
REMARK    4  A    between atoms: C8_12  and  C9_13 
REMARK    5  A    between atoms: C9_13  and  S1_14 
REMARK    6  A    between atoms: S1_14  and  C10_15 
REMARK    7  A    between atoms: C10_15  and  C11_16 
ROOT
HETATM    1  C4  UNL     1     105.575  22.499  19.691  1.00  0.00     0.118 C 
HETATM    2  C5  UNL     1     105.642  23.818  18.976  1.00  0.00     0.029 C 
HETATM    3  C6  UNL     1     106.804  24.661  19.507  1.00  0.00     0.032 C 
HETATM    4  C7  UNL     1     107.777  23.671  20.100  1.00  0.00     0.272 C 
HETATM    5  N3  UNL     1     107.264  23.193  21.324  1.00  0.00     0.091 N 
HETATM    6  C12 UNL     1     105.972  22.607  21.138  1.00  0.00     0.298 C 
ENDROOT
BRANCH   1   7
HETATM    7  N2  UNL     1     104.216  21.998  19.648  1.00  0.00    -0.344 N 
HETATM    8  C3  UNL     1     103.111  22.759  19.393  1.00  0.00     0.127 A 
HETATM    9  C2  UNL     1     101.972  21.990  19.425  1.00  0.00     0.114 A 
HETATM   10  N4  UNL     1     102.388  20.744  19.702  1.00  0.00    -0.347 N 
HETATM   11  C13 UNL     1     103.740  20.761  19.835  1.00  0.00     0.183 A 
ATOM     12  H4  UNL     1     101.790  19.922  19.798  1.00  0.00     0.167 HD
BRANCH   9  13
HETATM   13  C1  UNL     1     100.640  22.498  19.197  1.00  0.00     0.282 C 
HETATM   14  N1  UNL     1      99.889  22.191  18.039  1.00  0.00    -0.056 NA
HETATM   15  O1  UNL     1     100.123  23.252  20.076  1.00  0.00    -0.269 OA
ENDBRANCH   9  13
ENDBRANCH   1   7
BRANCH   5  16
HETATM   16  C8  UNL     1     108.135  22.462  22.153  1.00  0.00     0.282 C 
BRANCH  16  17
HETATM   17  C9  UNL     1     108.787  23.129  23.299  1.00  0.00     0.104 C 
BRANCH  17  18
HETATM   18  S1  UNL     1     109.372  22.027  24.603  1.00  0.00    -0.167 SA
BRANCH  18  19
HETATM   19  C10 UNL     1     110.532  20.795  24.032  1.00  0.00     0.084 C 
BRANCH  19  20
HETATM   20  C11 UNL     1     109.864  19.469  23.717  1.00  0.00     0.096 C 
HETATM   21  S2  UNL     1     109.507  18.643  25.289  1.00  0.00    -0.097 SA
ENDBRANCH  19  20
ENDBRANCH  18  19
ENDBRANCH  17  18
ENDBRANCH  16  17
ENDBRANCH   5  16
TORSDOF 7
ENDMDL
MODEL 2
REMARK VINA RESULT: -6.420748060      3.596      5.163
REMARK  7 active torsions:
REMARK  status: ('A' for Active; 'I' for Inactive)
REMARK    1  A    between atoms: C1_2  and  C2_4 
REMARK    2  A    between atoms: N2_6  and  C4_7 
REMARK    3  A    between atoms: N3_11  and  C8_12 
REMARK    4  A    between atoms: C8_12  and  C9_13 
REMARK    5  A    between atoms: C9_13  and  S1_14 
REMARK    6  A    between atoms: S1_14  and  C10_15 
REMARK    7  A    between atoms: C10_15  and  C11_16 
ROOT
HETATM    1  C4  UNL     1     106.866  24.790  19.506  1.00  0.00     0.118 C 
HETATM    2  C5  UNL     1     105.887  23.807  18.931  1.00  0.00     0.029 C 
HETATM    3  C6  UNL     1     105.930  22.487  19.703  1.00  0.00     0.032 C 
HETATM    4  C7  UNL     1     106.475  22.840  21.066  1.00  0.00     0.272 C 
HETATM    5  N3  UNL     1     107.859  23.089  20.962  1.00  0.00     0.091 N 
HETATM    6  C12 UNL     1     108.118  24.127  20.012  1.00  0.00     0.298 C 
ENDROOT
BRANCH   1   7
HETATM    7  N2  UNL     1     107.258  25.735  18.480  1.00  0.00    -0.344 N 
HETATM    8  C3  UNL     1     106.466  26.131  17.440  1.00  0.00     0.127 A 
HETATM    9  C2  UNL     1     107.126  27.033  16.640  1.00  0.00     0.114 A 
HETATM   10  N4  UNL     1     108.337  27.190  17.200  1.00  0.00    -0.347 N 
HETATM   11  C13 UNL     1     108.404  26.404  18.306  1.00  0.00     0.183 A 
ATOM     12  H4  UNL     1     109.080  27.796  16.854  1.00  0.00     0.167 HD
BRANCH   9  13
HETATM   13  C1  UNL     1     106.562  27.638  15.457  1.00  0.00     0.282 C 
HETATM   14  N1  UNL     1     106.994  28.887  14.954  1.00  0.00    -0.056 NA
HETATM   15  O1  UNL     1     105.639  27.022  14.844  1.00  0.00    -0.269 OA
ENDBRANCH   9  13
ENDBRANCH   1   7
BRANCH   5  16
HETATM   16  C8  UNL     1     108.595  23.180  22.158  1.00  0.00     0.282 C 
BRANCH  16  17
HETATM   17  C9  UNL     1     108.249  22.310  23.300  1.00  0.00     0.104 C 
BRANCH  17  18
HETATM   18  S1  UNL     1     109.636  21.435  24.053  1.00  0.00    -0.167 SA
BRANCH  18  19
HETATM   19  C10 UNL     1     109.755  19.723  23.561  1.00  0.00     0.084 C 
BRANCH  19  20
HETATM   20  C11 UNL     1     110.529  18.884  24.560  1.00  0.00     0.096 C 
HETATM   21  S2  UNL     1     109.398  18.440  25.905  1.00  0.00    -0.097 SA
ENDBRANCH  19  20
ENDBRANCH  18  19
ENDBRANCH  17  18
ENDBRANCH  16  17
ENDBRANCH   5  16
TORSDOF 7
ENDMDL
MODEL 3
REMARK VINA RESULT: -6.273089895      3.677      5.537
REMARK  7 active torsions:
REMARK  status: ('A' for Active; 'I' for Inactive)
REMARK    1  A    between atoms: C1_2  and  C2_4 
REMARK    2  A    between atoms: N2_6  and  C4_7 
REMARK    3  A    between atoms: N3_11  and  C8_12 
REMARK    4  A    between atoms: C8_12  and  C9_13 
REMARK    5  A    between atoms: C9_13  and  S1_14 
REMARK    6  A    between atoms: S1_14  and  C10_15 
REMARK    7  A    between atoms: C10_15  and  C11_16 
ROOT
HETATM    1  C4  UNL     1     106.413  24.709  19.432  1.00  0.00     0.118 C 
HETATM    2  C5  UNL     1     105.323  23.771  18.999  1.00  0.00     0.029 C 
HETATM    3  C6  UNL     1     105.367  22.478  19.817  1.00  0.00     0.032 C 
HETATM    4  C7  UNL     1     106.069  22.843  21.103  1.00  0.00     0.272 C 
HETATM    5  N3  UNL     1     107.448  23.000  20.849  1.00  0.00     0.091 N 
HETATM    6  C12 UNL     1     107.669  23.986  19.836  1.00  0.00     0.298 C 
ENDROOT
BRANCH   1   7
HETATM    7  N2  UNL     1     106.753  25.591  18.334  1.00  0.00    -0.344 N 
HETATM    8  C3  UNL     1     107.615  26.647  18.419  1.00  0.00     0.127 A 
HETATM    9  C2  UNL     1     107.722  27.287  17.208  1.00  0.00     0.114 A 
HETATM   10  N4  UNL     1     106.914  26.613  16.373  1.00  0.00    -0.347 N 
HETATM   11  C13 UNL     1     106.337  25.595  17.062  1.00  0.00     0.183 A 
ATOM     12  H4  UNL     1     106.761  26.829  15.387  1.00  0.00     0.167 HD
BRANCH   9  13
HETATM   13  C1  UNL     1     108.554  28.443  16.968  1.00  0.00     0.282 C 
HETATM   14  N1  UNL     1     109.760  28.679  17.667  1.00  0.00    -0.056 NA
HETATM   15  O1  UNL     1     108.184  29.282  16.091  1.00  0.00    -0.269 OA
ENDBRANCH   9  13
ENDBRANCH   1   7
BRANCH   5  16
HETATM   16  C8  UNL     1     108.308  23.085  21.960  1.00  0.00     0.282 C 
BRANCH  16  17
HETATM   17  C9  UNL     1     108.148  22.141  23.084  1.00  0.00     0.104 C 
BRANCH  17  18
HETATM   18  S1  UNL     1     109.513  22.106  24.264  1.00  0.00    -0.167 SA
BRANCH  18  19
HETATM   19  C10 UNL     1     110.610  20.713  24.049  1.00  0.00     0.084 C 
BRANCH  19  20
HETATM   20  C11 UNL     1     109.860  19.416  23.806  1.00  0.00     0.096 C 
HETATM   21  S2  UNL     1     109.350  18.762  25.417  1.00  0.00    -0.097 SA
ENDBRANCH  19  20
ENDBRANCH  18  19
ENDBRANCH  17  18
ENDBRANCH  16  17
ENDBRANCH   5  16
TORSDOF 7
ENDMDL
MODEL 4
REMARK VINA RESULT: -6.215261953      4.405      7.549
REMARK  7 active torsions:
REMARK  status: ('A' for Active; 'I' for Inactive)
REMARK    1  A    between atoms: C1_2  and  C2_4 
REMARK    2  A    between atoms: N2_6  and  C4_7 
REMARK    3  A    between atoms: N3_11  and  C8_12 
REMARK    4  A    between atoms: C8_12  and  C9_13 
REMARK    5  A    between atoms: C9_13  and  S1_14 
REMARK    6  A    between atoms: S1_14  and  C10_15 
REMARK    7  A    between atoms: C10_15  and  C11_16 
ROOT
HETATM    1  C4  UNL     1     107.154  23.589  21.128  1.00  0.00     0.118 C 
HETATM    2  C5  UNL     1     107.951  24.102  19.963  1.00  0.00     0.029 C 
HETATM    3  C6  UNL     1     107.098  24.125  18.694  1.00  0.00     0.032 C 
HETATM    4  C7  UNL     1     105.669  24.196  19.175  1.00  0.00     0.272 C 
HETATM    5  N3  UNL     1     105.288  22.936  19.682  1.00  0.00     0.091 N 
HETATM    6  C12 UNL     1     106.171  22.523  20.730  1.00  0.00     0.298 C 
ENDROOT
BRANCH   1   7
HETATM    7  N2  UNL     1     108.051  23.011  22.108  1.00  0.00    -0.344 N 
HETATM    8  C3  UNL     1     107.952  21.742  22.604  1.00  0.00     0.127 A 
HETATM    9  C2  UNL     1     108.949  21.497  23.517  1.00  0.00     0.114 A 
HETATM   10  N4  UNL     1     109.666  22.631  23.579  1.00  0.00    -0.347 N 
HETATM   11  C13 UNL     1     109.116  23.534  22.726  1.00  0.00     0.183 A 
ATOM     12  H4  UNL     1     110.486  22.788  24.166  1.00  0.00     0.167 HD
BRANCH   9  13
HETATM   13  C1  UNL     1     109.119  20.249  24.223  1.00  0.00     0.282 C 
HETATM   14  N1  UNL     1     110.081  19.282  23.851  1.00  0.00    -0.056 NA
HETATM   15  O1  UNL     1     108.371  20.012  25.219  1.00  0.00    -0.269 OA
ENDBRANCH   9  13
ENDBRANCH   1   7
BRANCH   5  16
HETATM   16  C8  UNL     1     103.920  22.725  19.939  1.00  0.00     0.282 C 
BRANCH  16  17
HETATM   17  C9  UNL     1     103.510  21.921  21.109  1.00  0.00     0.104 C 
BRANCH  17  18
HETATM   18  S1  UNL     1     102.037  20.906  20.869  1.00  0.00    -0.167 SA
BRANCH  18  19
HETATM   19  C10 UNL     1     101.354  21.013  19.223  1.00  0.00     0.084 C 
BRANCH  19  20
HETATM   20  C11 UNL     1      99.837  20.976  19.219  1.00  0.00     0.096 C 
HETATM   21  S2  UNL     1      99.303  20.325  17.614  1.00  0.00    -0.097 SA
ENDBRANCH  19  20
ENDBRANCH  18  19
ENDBRANCH  17  18
ENDBRANCH  16  17
ENDBRANCH   5  16
TORSDOF 7
ENDMDL
MODEL 5
REMARK VINA RESULT: -6.211251148      5.167      7.660
REMARK  7 active torsions:
REMARK  status: ('A' for Active; 'I' for Inactive)
REMARK    1  A    between atoms: C1_2  and  C2_4 
REMARK    2  A    between atoms: N2_6  and  C4_7 
REMARK    3  A    between atoms: N3_11  and  C8_12 
REMARK    4  A    between atoms: C8_12  and  C9_13 
REMARK    5  A    between atoms: C9_13  and  S1_14 
REMARK    6  A    between atoms: S1_14  and  C10_15 
REMARK    7  A    between atoms: C10_15  and  C11_16 
ROOT
HETATM    1  C4  UNL     1     106.995  24.883  18.222  1.00  0.00     0.118 C 
HETATM    2  C5  UNL     1     105.615  24.993  17.642  1.00  0.00     0.029 C 
HETATM    3  C6  UNL     1     105.502  26.230  16.748  1.00  0.00     0.032 C 
HETATM    4  C7  UNL     1     106.915  26.538  16.313  1.00  0.00     0.272 C 
HETATM    5  N3  UNL     1     107.621  27.102  17.396  1.00  0.00     0.091 N 
HETATM    6  C12 UNL     1     107.602  26.225  18.526  1.00  0.00     0.298 C 
ENDROOT
BRANCH   1   7
HETATM    7  N2  UNL     1     106.937  24.139  19.464  1.00  0.00    -0.344 N 
HETATM    8  C3  UNL     1     107.964  24.030  20.358  1.00  0.00     0.127 A 
HETATM    9  C2  UNL     1     107.595  23.257  21.432  1.00  0.00     0.114 A 
HETATM   10  N4  UNL     1     106.326  22.889  21.191  1.00  0.00    -0.347 N 
HETATM   11  C13 UNL     1     105.941  23.426  20.004  1.00  0.00     0.183 A 
ATOM     12  H4  UNL     1     105.748  22.306  21.797  1.00  0.00     0.167 HD
BRANCH   9  13
HETATM   13  C1  UNL     1     108.457  22.949  22.549  1.00  0.00     0.282 C 
HETATM   14  N1  UNL     1     108.499  21.673  23.158  1.00  0.00    -0.056 NA
HETATM   15  O1  UNL     1     109.209  23.864  23.002  1.00  0.00    -0.269 OA
ENDBRANCH   9  13
ENDBRANCH   1   7
BRANCH   5  16
HETATM   16  C8  UNL     1     108.868  27.693  17.122  1.00  0.00     0.282 C 
BRANCH  16  17
HETATM   17  C9  UNL     1     109.931  27.671  18.148  1.00  0.00     0.104 C 
BRANCH  17  18
HETATM   18  S1  UNL     1     111.027  29.104  18.155  1.00  0.00    -0.167 SA
BRANCH  18  19
HETATM   19  C10 UNL     1     110.228  30.619  17.649  1.00  0.00     0.084 C 
BRANCH  19  20
HETATM   20  C11 UNL     1     109.584  31.352  18.812  1.00  0.00     0.096 C 
HETATM   21  S2  UNL     1     107.803  31.020  18.756  1.00  0.00    -0.097 SA
ENDBRANCH  19  20
ENDBRANCH  18  19
ENDBRANCH  17  18
ENDBRANCH  16  17
ENDBRANCH   5  16
TORSDOF 7
ENDMDL
