MODEL 1
REMARK VINA RESULT: -7.760807971      0.000      0.000
REMARK  8 active torsions:
REMARK  status: ('A' for Active; 'I' for Inactive)
REMARK    1  A    between atoms: N1_1  and  C1_5 
REMARK    2  A    between atoms: C1_5  and  C2_6 
REMARK    3  A    between atoms: C2_6  and  C3_7 
REMARK    4  A    between atoms: C3_7  and  C4_8 
REMARK    5  A    between atoms: C5_11  and  C6_12 
REMARK    6  A    between atoms: C6_12  and  N3_13 
REMARK    7  A    between atoms: N3_13  and  C7_16 
REMARK    8  A    between atoms: C10_19  and  N4_20 
ROOT
HETATM    1  C6  UNL     1     108.367  23.008  22.675  1.00  0.00     0.291 C 
ENDROOT
BRANCH   1   2
HETATM    2  C5  UNL     1     108.560  21.995  23.713  1.00  0.00     0.059 A 
HETATM    3  N2  UNL     1     109.050  20.766  23.515  1.00  0.00    -0.341 N 
HETATM    4  C4  UNL     1     109.077  20.115  24.678  1.00  0.00     0.123 A 
ATOM      5  H2  UNL     1     109.354  20.388  22.618  1.00  0.00     0.167 HD
HETATM    6  O2  UNL     1     108.612  20.927  25.587  1.00  0.00    -0.308 OA
HETATM    7  C16 UNL     1     108.280  22.093  25.050  1.00  0.00     0.170 A 
BRANCH   4   8
HETATM    8  C3  UNL     1     109.542  18.716  24.949  1.00  0.00     0.086 C 
BRANCH   8   9
HETATM    9  C2  UNL     1     110.907  18.503  24.355  1.00  0.00     0.035 C 
BRANCH   9  10
HETATM   10  C1  UNL     1     111.929  19.414  25.016  1.00  0.00     0.230 C 
BRANCH  10  11
HETATM   11  N1  UNL     1     112.547  20.166  23.946  1.00  0.00    -0.079 N 
ATOM     12  H13 UNL     1     112.881  19.582  23.180  1.00  0.00     0.274 HD
ATOM     13  H12 UNL     1     111.884  20.718  23.401  1.00  0.00     0.274 HD
ATOM     14  H11 UNL     1     113.281  20.725  24.381  1.00  0.00     0.274 HD
ENDBRANCH  10  11
ENDBRANCH   9  10
ENDBRANCH   8   9
ENDBRANCH   4   8
ENDBRANCH   1   2
BRANCH   1  15
HETATM   15  N3  UNL     1     107.922  22.431  21.414  1.00  0.00    -0.066 N 
ATOM     16  H32 UNL     1     108.695  22.137  20.816  1.00  0.00     0.278 HD
ATOM     17  H31 UNL     1     107.486  21.517  21.527  1.00  0.00     0.278 HD
BRANCH  15  18
HETATM   18  C7  UNL     1     107.070  23.379  20.789  1.00  0.00     0.188 C 
HETATM   19  C8  UNL     1     105.897  22.821  20.058  1.00  0.00     0.035 C 
HETATM   20  C9  UNL     1     105.457  23.964  19.159  1.00  0.00     0.027 C 
HETATM   21  C10 UNL     1     106.557  25.008  19.244  1.00  0.00     0.085 C 
HETATM   22  C15 UNL     1     107.745  24.173  19.658  1.00  0.00     0.058 C 
BRANCH  21  23
HETATM   23  N4  UNL     1     106.683  25.685  18.035  1.00  0.00    -0.385 N 
HETATM   24  C11 UNL     1     107.818  26.497  17.824  1.00  0.00     0.148 C 
HETATM   25  C12 UNL     1     107.366  27.804  17.205  1.00  0.00     0.187 C 
HETATM   26  O1  UNL     1     106.115  27.713  16.624  1.00  0.00    -0.385 OA
HETATM   27  C13 UNL     1     105.916  26.511  15.951  1.00  0.00     0.212 C 
HETATM   28  C14 UNL     1     105.888  25.334  16.926  1.00  0.00     0.084 C 
ENDBRANCH  21  23
ENDBRANCH  15  18
ENDBRANCH   1  15
TORSDOF 8
ENDMDL
MODEL 2
REMARK VINA RESULT: -7.601605709      0.987      1.250
REMARK  8 active torsions:
REMARK  status: ('A' for Active; 'I' for Inactive)
REMARK    1  A    between atoms: N1_1  and  C1_5 
REMARK    2  A    between atoms: C1_5  and  C2_6 
REMARK    3  A    between atoms: C2_6  and  C3_7 
REMARK    4  A    between atoms: C3_7  and  C4_8 
REMARK    5  A    between atoms: C5_11  and  C6_12 
REMARK    6  A    between atoms: C6_12  and  N3_13 
REMARK    7  A    between atoms: N3_13  and  C7_16 
REMARK    8  A    between atoms: C10_19  and  N4_20 
ROOT
HETATM    1  C6  UNL     1     108.537  23.165  22.612  1.00  0.00     0.291 C 
ENDROOT
BRANCH   1   2
HETATM    2  C5  UNL     1     108.943  22.321  23.736  1.00  0.00     0.059 A 
HETATM    3  N2  UNL     1     110.072  21.606  23.800  1.00  0.00    -0.341 N 
HETATM    4  C4  UNL     1     110.110  20.953  24.961  1.00  0.00     0.123 A 
ATOM      5  H2  UNL     1     110.790  21.568  23.076  1.00  0.00     0.167 HD
HETATM    6  O2  UNL     1     109.020  21.256  25.612  1.00  0.00    -0.308 OA
HETATM    7  C16 UNL     1     108.270  22.092  24.906  1.00  0.00     0.170 A 
BRANCH   4   8
HETATM    8  C3  UNL     1     111.174  20.031  25.475  1.00  0.00     0.086 C 
BRANCH   8   9
HETATM    9  C2  UNL     1     111.177  18.754  24.681  1.00  0.00     0.035 C 
BRANCH   9  10
HETATM   10  C1  UNL     1     109.876  17.993  24.882  1.00  0.00     0.230 C 
BRANCH  10  11
HETATM   11  N1  UNL     1     109.540  18.137  26.281  1.00  0.00    -0.079 N 
ATOM     12  H13 UNL     1     110.153  18.780  26.782  1.00  0.00     0.274 HD
ATOM     13  H12 UNL     1     108.670  18.647  26.440  1.00  0.00     0.274 HD
ATOM     14  H11 UNL     1     109.535  17.194  26.669  1.00  0.00     0.274 HD
ENDBRANCH  10  11
ENDBRANCH   9  10
ENDBRANCH   8   9
ENDBRANCH   4   8
ENDBRANCH   1   2
BRANCH   1  15
HETATM   15  N3  UNL     1     107.888  22.404  21.553  1.00  0.00    -0.066 N 
ATOM     16  H32 UNL     1     108.551  21.936  20.936  1.00  0.00     0.278 HD
ATOM     17  H31 UNL     1     107.415  21.569  21.897  1.00  0.00     0.278 HD
BRANCH  15  18
HETATM   18  C7  UNL     1     107.019  23.289  20.863  1.00  0.00     0.188 C 
HETATM   19  C8  UNL     1     105.970  22.649  20.020  1.00  0.00     0.035 C 
HETATM   20  C9  UNL     1     105.519  23.769  19.097  1.00  0.00     0.027 C 
HETATM   21  C10 UNL     1     106.513  24.900  19.298  1.00  0.00     0.085 C 
HETATM   22  C15 UNL     1     107.725  24.160  19.811  1.00  0.00     0.058 C 
BRANCH  21  23
HETATM   23  N4  UNL     1     106.691  25.609  18.114  1.00  0.00    -0.385 N 
HETATM   24  C11 UNL     1     107.870  26.366  17.945  1.00  0.00     0.148 C 
HETATM   25  C12 UNL     1     107.496  27.716  17.365  1.00  0.00     0.187 C 
HETATM   26  O1  UNL     1     106.251  27.710  16.766  1.00  0.00    -0.385 OA
HETATM   27  C13 UNL     1     105.998  26.544  16.049  1.00  0.00     0.212 C 
HETATM   28  C14 UNL     1     105.894  25.338  16.984  1.00  0.00     0.084 C 
ENDBRANCH  21  23
ENDBRANCH  15  18
ENDBRANCH   1  15
TORSDOF 8
ENDMDL
MODEL 3
REMARK VINA RESULT: -7.526272327      2.929      4.185
REMARK  8 active torsions:
REMARK  status: ('A' for Active; 'I' for Inactive)
REMARK    1  A    between atoms: N1_1  and  C1_5 
REMARK    2  A    between atoms: C1_5  and  C2_6 
REMARK    3  A    between atoms: C2_6  and  C3_7 
REMARK    4  A    between atoms: C3_7  and  C4_8 
REMARK    5  A    between atoms: C5_11  and  C6_12 
REMARK    6  A    between atoms: C6_12  and  N3_13 
REMARK    7  A    between atoms: N3_13  and  C7_16 
REMARK    8  A    between atoms: C10_19  and  N4_20 
ROOT
HETATM    1  C6  UNL     1     107.768  22.839  22.524  1.00  0.00     0.291 C 
ENDROOT
BRANCH   1   2
HETATM    2  C5  UNL     1     108.772  22.132  23.320  1.00  0.00     0.059 A 
HETATM    3  N2  UNL     1     109.289  20.933  23.029  1.00  0.00    -0.341 N 
HETATM    4  C4  UNL     1     110.164  20.594  23.975  1.00  0.00     0.123 A 
ATOM      5  H2  UNL     1     109.050  20.369  22.213  1.00  0.00     0.167 HD
HETATM    6  O2  UNL     1     110.193  21.567  24.843  1.00  0.00    -0.308 OA
HETATM    7  C16 UNL     1     109.359  22.535  24.490  1.00  0.00     0.170 A 
BRANCH   4   8
HETATM    8  C3  UNL     1     110.986  19.345  24.074  1.00  0.00     0.086 C 
BRANCH   8   9
HETATM    9  C2  UNL     1     110.128  18.198  24.532  1.00  0.00     0.035 C 
BRANCH   9  10
HETATM   10  C1  UNL     1     109.281  18.605  25.728  1.00  0.00     0.230 C 
BRANCH  10  11
HETATM   11  N1  UNL     1     109.105  17.407  26.520  1.00  0.00    -0.079 N 
ATOM     12  H13 UNL     1     108.219  16.932  26.348  1.00  0.00     0.274 HD
ATOM     13  H12 UNL     1     109.715  16.640  26.237  1.00  0.00     0.274 HD
ATOM     14  H11 UNL     1     109.232  17.691  27.492  1.00  0.00     0.274 HD
ENDBRANCH  10  11
ENDBRANCH   9  10
ENDBRANCH   8   9
ENDBRANCH   4   8
ENDBRANCH   1   2
BRANCH   1  15
HETATM   15  N3  UNL     1     108.262  23.195  21.200  1.00  0.00    -0.066 N 
ATOM     16  H32 UNL     1     108.690  24.120  21.170  1.00  0.00     0.278 HD
ATOM     17  H31 UNL     1     109.085  22.659  20.925  1.00  0.00     0.278 HD
BRANCH  15  18
HETATM   18  C7  UNL     1     107.181  23.055  20.291  1.00  0.00     0.188 C 
HETATM   19  C8  UNL     1     106.631  24.323  19.730  1.00  0.00     0.035 C 
HETATM   20  C9  UNL     1     105.272  23.916  19.188  1.00  0.00     0.027 C 
HETATM   21  C10 UNL     1     105.024  22.507  19.700  1.00  0.00     0.085 C 
HETATM   22  C15 UNL     1     105.910  22.461  20.921  1.00  0.00     0.058 C 
BRANCH  21  23
HETATM   23  N4  UNL     1     103.666  22.302  19.928  1.00  0.00    -0.385 N 
HETATM   24  C11 UNL     1     103.254  21.810  21.185  1.00  0.00     0.148 C 
HETATM   25  C12 UNL     1     102.218  20.726  20.960  1.00  0.00     0.187 C 
HETATM   26  O1  UNL     1     101.641  20.793  19.706  1.00  0.00    -0.385 OA
HETATM   27  C13 UNL     1     101.392  22.099  19.292  1.00  0.00     0.212 C 
HETATM   28  C14 UNL     1     102.698  22.862  19.070  1.00  0.00     0.084 C 
ENDBRANCH  21  23
ENDBRANCH  15  18
ENDBRANCH   1  15
TORSDOF 8
ENDMDL
MODEL 4
REMARK VINA RESULT: -7.512051791      4.491      5.911
REMARK  8 active torsions:
REMARK  status: ('A' for Active; 'I' for Inactive)
REMARK    1  A    between atoms: N1_1  and  C1_5 
REMARK    2  A    between atoms: C1_5  and  C2_6 
REMARK    3  A    between atoms: C2_6  and  C3_7 
REMARK    4  A    between atoms: C3_7  and  C4_8 
REMARK    5  A    between atoms: C5_11  and  C6_12 
REMARK    6  A    between atoms: C6_12  and  N3_13 
REMARK    7  A    between atoms: N3_13  and  C7_16 
REMARK    8  A    between atoms: C10_19  and  N4_20 
ROOT
HETATM    1  C6  UNL     1     105.927  22.488  19.785  1.00  0.00     0.291 C 
ENDROOT
BRANCH   1   2
HETATM    2  C5  UNL     1     107.031  22.942  20.632  1.00  0.00     0.059 A 
HETATM    3  N2  UNL     1     107.315  22.474  21.853  1.00  0.00    -0.341 N 
HETATM    4  C4  UNL     1     108.378  23.120  22.331  1.00  0.00     0.123 A 
ATOM      5  H2  UNL     1     106.800  21.741  22.340  1.00  0.00     0.167 HD
HETATM    6  O2  UNL     1     108.753  23.977  21.422  1.00  0.00    -0.308 OA
HETATM    7  C16 UNL     1     107.962  23.909  20.360  1.00  0.00     0.170 A 
BRANCH   4   8
HETATM    8  C3  UNL     1     109.057  22.939  23.655  1.00  0.00     0.086 C 
BRANCH   8   9
HETATM    9  C2  UNL     1     108.590  21.664  24.303  1.00  0.00     0.035 C 
BRANCH   9  10
HETATM   10  C1  UNL     1     109.398  20.478  23.800  1.00  0.00     0.230 C 
BRANCH  10  11
HETATM   11  N1  UNL     1     110.784  20.888  23.849  1.00  0.00    -0.079 N 
ATOM     12  H13 UNL     1     110.956  21.665  24.488  1.00  0.00     0.274 HD
ATOM     13  H12 UNL     1     111.392  20.211  24.310  1.00  0.00     0.274 HD
ATOM     14  H11 UNL     1     111.053  21.087  22.885  1.00  0.00     0.274 HD
ENDBRANCH  10  11
ENDBRANCH   9  10
ENDBRANCH   8   9
ENDBRANCH   4   8
ENDBRANCH   1   2
BRANCH   1  15
HETATM   15  N3  UNL     1     104.778  23.380  19.849  1.00  0.00    -0.066 N 
ATOM     16  H32 UNL     1     104.894  24.131  20.530  1.00  0.00     0.278 HD
ATOM     17  H31 UNL     1     104.682  23.966  19.021  1.00  0.00     0.278 HD
BRANCH  15  18
HETATM   18  C7  UNL     1     103.632  22.580  20.098  1.00  0.00     0.188 C 
HETATM   19  C8  UNL     1     103.771  21.127  19.794  1.00  0.00     0.035 C 
HETATM   20  C9  UNL     1     102.335  20.636  19.720  1.00  0.00     0.027 C 
HETATM   21  C10 UNL     1     101.467  21.884  19.732  1.00  0.00     0.085 C 
HETATM   22  C15 UNL     1     102.424  22.931  19.213  1.00  0.00     0.058 C 
BRANCH  21  23
HETATM   23  N4  UNL     1     100.317  21.685  18.974  1.00  0.00    -0.385 N 
HETATM   24  C11 UNL     1      99.704  20.414  18.990  1.00  0.00     0.148 C 
HETATM   25  C12 UNL     1      99.333  20.041  17.569  1.00  0.00     0.187 C 
HETATM   26  O1  UNL     1      99.276  21.137  16.729  1.00  0.00    -0.385 OA
HETATM   27  C13 UNL     1      98.706  22.254  17.333  1.00  0.00     0.212 C 
HETATM   28  C14 UNL     1      99.592  22.779  18.462  1.00  0.00     0.084 C 
ENDBRANCH  21  23
ENDBRANCH  15  18
ENDBRANCH   1  15
TORSDOF 8
ENDMDL
MODEL 5
REMARK VINA RESULT: -7.423718567      4.770      7.804
REMARK  8 active torsions:
REMARK  status: ('A' for Active; 'I' for Inactive)
REMARK    1  A    between atoms: N1_1  and  C1_5 
REMARK    2  A    between atoms: C1_5  and  C2_6 
REMARK    3  A    between atoms: C2_6  and  C3_7 
REMARK    4  A    between atoms: C3_7  and  C4_8 
REMARK    5  A    between atoms: C5_11  and  C6_12 
REMARK    6  A    between atoms: C6_12  and  N3_13 
REMARK    7  A    between atoms: N3_13  and  C7_16 
REMARK    8  A    between atoms: C10_19  and  N4_20 
ROOT
HETATM    1  C6  UNL     1     105.800  22.645  19.812  1.00  0.00     0.291 C 
ENDROOT
BRANCH   1   2
HETATM    2  C5  UNL     1     106.612  23.785  19.383  1.00  0.00     0.059 A 
HETATM    3  N2  UNL     1     106.166  24.835  18.685  1.00  0.00    -0.341 N 
HETATM    4  C4  UNL     1     107.178  25.674  18.464  1.00  0.00     0.123 A 
ATOM      5  H2  UNL     1     105.205  24.972  18.372  1.00  0.00     0.167 HD
HETATM    6  O2  UNL     1     108.239  25.154  19.016  1.00  0.00    -0.308 OA
HETATM    7  C16 UNL     1     107.948  23.997  19.594  1.00  0.00     0.170 A 
BRANCH   4   8
HETATM    8  C3  UNL     1     107.159  26.978  17.726  1.00  0.00     0.086 C 
BRANCH   8   9
HETATM    9  C2  UNL     1     108.478  27.200  17.038  1.00  0.00     0.035 C 
BRANCH   9  10
HETATM   10  C1  UNL     1     109.266  28.302  17.729  1.00  0.00     0.230 C 
BRANCH  10  11
HETATM   11  N1  UNL     1     110.236  27.635  18.568  1.00  0.00    -0.079 N 
ATOM     12  H13 UNL     1     110.731  26.879  18.094  1.00  0.00     0.274 HD
ATOM     13  H12 UNL     1     111.055  28.208  18.777  1.00  0.00     0.274 HD
ATOM     14  H11 UNL     1     109.730  27.331  19.399  1.00  0.00     0.274 HD
ENDBRANCH  10  11
ENDBRANCH   9  10
ENDBRANCH   8   9
ENDBRANCH   4   8
ENDBRANCH   1   2
BRANCH   1  15
HETATM   15  N3  UNL     1     104.884  22.993  20.890  1.00  0.00    -0.066 N 
ATOM     16  H32 UNL     1     105.326  22.976  21.809  1.00  0.00     0.278 HD
ATOM     17  H31 UNL     1     104.622  23.978  20.887  1.00  0.00     0.278 HD
BRANCH  15  18
HETATM   18  C7  UNL     1     103.767  22.122  20.796  1.00  0.00     0.188 C 
HETATM   19  C8  UNL     1     103.922  20.958  19.876  1.00  0.00     0.035 C 
HETATM   20  C9  UNL     1     102.494  20.496  19.640  1.00  0.00     0.027 C 
HETATM   21  C10 UNL     1     101.603  21.576  20.231  1.00  0.00     0.085 C 
HETATM   22  C15 UNL     1     102.513  22.780  20.198  1.00  0.00     0.058 C 
BRANCH  21  23
HETATM   23  N4  UNL     1     100.422  21.687  19.502  1.00  0.00    -0.385 N 
HETATM   24  C11 UNL     1      99.750  20.509  19.111  1.00  0.00     0.148 C 
HETATM   25  C12 UNL     1      99.322  20.657  17.665  1.00  0.00     0.187 C 
HETATM   26  O1  UNL     1      99.292  21.976  17.251  1.00  0.00    -0.385 OA
HETATM   27  C13 UNL     1      98.793  22.838  18.223  1.00  0.00     0.212 C 
HETATM   28  C14 UNL     1      99.735  22.915  19.424  1.00  0.00     0.084 C 
ENDBRANCH  21  23
ENDBRANCH  15  18
ENDBRANCH   1  15
TORSDOF 8
ENDMDL
